data_image0
_chemical_formula_structural       HSCHCFeSCHSHFeSCFeS2FeSFeS3CH2C7H6CH2C4H4SFeCHCH2CFeNHCHCNH2C2H3CSH2CSCH6C3FeHC2H2C2HNC9H14C3HSH4S2H3C2SH3CH4CH3SHCFeS2FeSHFeCFeS3FeS2FeS2FeCFeS3C6H4C6H2CHCH2C3SHNCHCHCH4CHC4HCH2CHC2H4CH2NC4H2CH2CHC2H5CHSH5CH3C3HC2H2CHCH4SCNC5H6FeH2CSH3CH3CH8FeSCHC2SFeS2FeS2FeSFeS3CHC2H2CHC5H3C6H6CH2C4HCHCHC7NC3H2C2HCHCH2SC2HFeH4CHNC3HCH3SH4CSHC2HNSCH3N2C3H5SH3C3HCHC2H4CH3CH2CH4C3HSFeSCFeSFeS2HFeS2FeS2FeSFeS3HCHNC6H5CHCNHC3SCHCH5FeHCHNHCSCH3FeC3SC2HC3H3CH3NC9H14CHCHC2H4CHCH2C2H2SH3C4HC5HC2HFeHC2H3CH6SC2HCHSFeS2FeSCFeCFeS3FeS2FeS2FeHFeS3C6H4CH2C3H3CHCH2C2H4CSCH2CH2C5HC2H5CHCNC9H8CH3C2HNC2H2CHC4H2NH2SH2CSCH3CSC2H3SHC4H2C3HCHC2H2CHCHNH2NHCH3CHCH2C2H4CH2CHSCH4FeS2FeS2FeSFeS3HC2H2C4H2C2HCHC6H5CH2CH2CH2C2H4C2H2FeCHC2H4C2H5CH2NHC3H2NCHCHCH4C3H3C2HCH6CNC5H3CH2FeSHC2HCSCFeHSFeSCHCSFeC2HCS2CSFeSCHFeHCHC2H2CHC2H5C8H3CNC2SNC7H5CH11CH2C4NSH5CFeC2SH6C2FeH4CSCHC3HCH4CHNHCH2CH2CH2SCSFe2H2SH3CHC2HCHFeCSHSFeSCSHSHFeH2FeC4SHSHC2HSH2CHCHCH2C2HSHC3NC2H4SH2FeCSCSHCHC5H4CSCHC2HSCHCHCSCSCHC2FeC2HCH3CH2NC4HCSH4CH3CH3C2SHCHCHCHCH2CNH2CHCNH3CFeC3H2CHFe2CS2HCH4CH2S2FeSFeS2NH2S2H3FeCFeSHSC2HCHCFeHSH2CH3NC6H2CHC4H2SH2C2FeH2C2HCFeCH3C3H7CNH5NH4C2HC2Fe2CH2CH2CH3CHC7H2C2H3CH4SHCHNHCSHC5H2CHSHFeHSFeSHCFeSC2H2C2HC2HSH3SH6C3SHC2H2FeC6H5CHCHNC6H6CHCH2CH2C3NH2C2HC2H2CNCH2CH2SFeSCH2CHCH2CHC2H4CHC2H2CH2CHCSCHCFeCSCSFeH2SCSCFeCSFeHNH2SCFeSH2C2SHC2HC3HCHC2HCHC5H3CSHC2HSH2C6H4CHCSFeCHCH2CHC2HC2HCHCSH2CH2CHC2HCH2NCHC2H3NCHCH2SHSHCFeHCH2SCH2CH3NH3CH4C3H2FeH2CSC2H2NCSH6CHC2NHCH3SHFeSFeS2FeCS2HFeHSFeSC2S2H2SHCHC2HFeC2H3C7H4C5HC4H4CFeC4HC2HSHCHSC2HNC2HC2H2CHSH5CH3C2FeH3SH2C2H4C2FeCHC2H4CN2CSCSC2H3SHCHCHCSC2H6SH3C2HCH3C3HCH
_chemical_formula_sum              "H864 S192 C720 Fe96 N48"
_cell_length_a       28.4708
_cell_length_b       42.4706
_cell_length_c       62.2794
_cell_angle_alpha    90.1604
_cell_angle_beta     90.5935
_cell_angle_gamma    90.0708

_space_group_name_H-M_alt    "P 1"
_space_group_IT_number       1

loop_
  _space_group_symop_operation_xyz
  'x, y, z'

loop_
  _atom_site_type_symbol
  _atom_site_label
  _atom_site_symmetry_multiplicity
  _atom_site_fract_x
  _atom_site_fract_y
  _atom_site_fract_z
  _atom_site_occupancy
  H   H1        1.0  0.06884  0.15493  0.96774  1.0000
  S   S1        1.0  0.09866  0.11730  0.24192  1.0000
  C   C1        1.0  0.49761  0.05127  0.02028  1.0000
  H   H2        1.0  0.40188  0.00468  0.09273  1.0000
  C   C2        1.0  0.20945  0.06670  0.26773  1.0000
  Fe  Fe1       1.0  0.07611  0.37711  0.12867  1.0000
  S   S2        1.0  0.15108  0.37372  0.11609  1.0000
  C   C3        1.0  0.29567  0.21766  0.96380  1.0000
  H   H3        1.0  0.21279  0.07710  0.28412  1.0000
  S   S3        1.0  0.07010  0.39042  0.16364  1.0000
  H   H4        1.0  0.42510  0.14434  0.03199  1.0000
  Fe  Fe2       1.0  0.41512  0.27959  0.02801  1.0000
  S   S4        1.0  0.40549  0.26528  0.06260  1.0000
  C   C4        1.0  0.19674  0.03525  0.22747  1.0000
  Fe  Fe3       1.0  0.35730  0.22479  0.01061  1.0000
  S   S5        1.0  0.34371  0.20607  0.04353  1.0000
  S   S6        1.0  0.33872  0.19906  0.97986  1.0000
  Fe  Fe4       1.0  0.32973  0.25661  0.05278  1.0000
  S   S7        1.0  0.26160  0.26035  0.07171  1.0000
  Fe  Fe5       1.0  0.41979  0.21602  0.05050  1.0000
  S   S8        1.0  0.46528  0.18075  0.06879  1.0000
  S   S9        1.0  0.33868  0.27452  0.01899  1.0000
  S   S10       1.0  0.43422  0.23093  0.01690  1.0000
  C   C5        1.0  0.26630  0.24063  0.97250  1.0000
  H   H5        1.0  0.42880  0.15545  0.98285  1.0000
  H   H6        1.0  0.26903  0.24661  0.98934  1.0000
  C   C6        1.0  0.06697  0.03568  0.20225  1.0000
  C   C7        1.0  0.17984  0.34253  0.10232  1.0000
  C   C8        1.0  0.15845  0.31329  0.09872  1.0000
  C   C9        1.0  0.18378  0.28867  0.08897  1.0000
  C   C10       1.0  0.23036  0.29312  0.08221  1.0000
  C   C11       1.0  0.25135  0.32261  0.08527  1.0000
  C   C12       1.0  0.22632  0.34705  0.09543  1.0000
  H   H7        1.0  0.12254  0.30948  0.10354  1.0000
  H   H8        1.0  0.16726  0.26593  0.08673  1.0000
  H   H9        1.0  0.28718  0.32637  0.08028  1.0000
  H   H10       1.0  0.24319  0.36959  0.09806  1.0000
  H   H11       1.0  0.16043  0.19693  0.28626  1.0000
  H   H12       1.0  0.48398  0.01202  0.04098  1.0000
  C   C13       1.0  0.20589  0.01547  0.28358  1.0000
  H   H13       1.0  0.24114  0.00817  0.27782  1.0000
  H   H14       1.0  0.24574  0.06325  0.26174  1.0000
  C   C14       1.0  0.07871  0.02192  0.18243  1.0000
  C   C15       1.0  0.04715  0.01723  0.21838  1.0000
  C   C16       1.0  0.03273  0.22134  0.20226  1.0000
  C   C17       1.0  0.06580  0.47942  0.19803  1.0000
  H   H15       1.0  0.11762  0.48549  0.22329  1.0000
  H   H16       1.0  0.08410  0.20721  0.96036  1.0000
  H   H17       1.0  0.11298  0.02222  0.27777  1.0000
  H   H18       1.0  0.09443  0.03618  0.17006  1.0000
  S   S11       1.0  0.46142  0.31590  0.01205  1.0000
  Fe  Fe6       1.0  0.03907  0.08529  0.25044  1.0000
  C   C18       1.0  0.42280  0.04132  0.03666  1.0000
  H   H19       1.0  0.50275  0.27899  0.08717  1.0000
  C   C19       1.0  0.35557  0.31242  0.96697  1.0000
  H   H20       1.0  0.44187  0.33254  0.96709  1.0000
  H   H21       1.0  0.47619  0.14254  0.99955  1.0000
  C   C20       1.0  0.39587  0.13826  0.02073  1.0000
  Fe  Fe7       1.0  0.04254  0.15377  0.23601  1.0000
  N   N1        1.0  0.41187  0.11647  0.00369  1.0000
  H   H22       1.0  0.40100  0.02697  0.04692  1.0000
  C   C21       1.0  0.50590  0.15407  0.05714  1.0000
  H   H23       1.0  0.35573  0.12887  0.98170  1.0000
  C   C22       1.0  0.43224  0.08783  0.01362  1.0000
  N   N2        1.0  0.18254  0.03667  0.26786  1.0000
  H   H24       1.0  0.34181  0.09739  0.99930  1.0000
  H   H25       1.0  0.07347  0.06045  0.20507  1.0000
  C   C23       1.0  0.37091  0.10784  0.98995  1.0000
  C   C24       1.0  0.46940  0.03280  0.03333  1.0000
  H   H26       1.0  0.50410  0.09181  0.00109  1.0000
  H   H27       1.0  0.03728  0.23076  0.23618  1.0000
  H   H28       1.0  0.27531  0.23569  0.11790  1.0000
  C   C25       1.0  0.01724  0.28664  0.19768  1.0000
  S   S12       1.0  0.03240  0.03316  0.24359  1.0000
  H   H29       1.0  0.38222  0.16062  0.01383  1.0000
  H   H30       1.0  0.20989  0.27328  0.96637  1.0000
  C   C26       1.0  0.02393  0.27328  0.21810  1.0000
  S   S13       1.0  0.04433  0.17279  0.26984  1.0000
  C   C27       1.0  0.44537  0.13408  0.99004  1.0000
  H   H31       1.0  0.11538  0.05846  0.26362  1.0000
  H   H32       1.0  0.21199  0.05853  0.22732  1.0000
  H   H33       1.0  0.19147  0.08501  0.25786  1.0000
  H   H34       1.0  0.08219  0.45860  0.19146  1.0000
  H   H35       1.0  0.36706  0.12829  0.03050  1.0000
  H   H36       1.0  0.45803  0.11937  0.97647  1.0000
  C   C28       1.0  0.17947  0.02115  0.24654  1.0000
  C   C29       1.0  0.47790  0.35439  0.04733  1.0000
  C   C30       1.0  0.48839  0.34758  0.02594  1.0000
  Fe  Fe8       1.0  0.09607  0.13364  0.27635  1.0000
  H   H37       1.0  0.50369  0.12206  0.08393  1.0000
  C   C31       1.0  0.03183  0.24076  0.22039  1.0000
  C   C32       1.0  0.02517  0.49160  0.18833  1.0000
  H   H38       1.0  0.36822  0.07425  0.03026  1.0000
  H   H39       1.0  0.45284  0.34004  0.05583  1.0000
  C   C33       1.0  0.47964  0.07841  0.01056  1.0000
  C   C34       1.0  0.40438  0.06841  0.02700  1.0000
  H   H40       1.0  0.38109  0.09055  0.97736  1.0000
  N   N3        1.0  0.15796  0.30167  0.16866  1.0000
  C   C35       1.0  0.11339  0.30490  0.15647  1.0000
  C   C36       1.0  0.14837  0.28490  0.18907  1.0000
  C   C37       1.0  0.17451  0.33390  0.17430  1.0000
  C   C38       1.0  0.19168  0.28367  0.15547  1.0000
  C   C39       1.0  0.18326  0.25142  0.15065  1.0000
  C   C40       1.0  0.23188  0.29773  0.14606  1.0000
  C   C41       1.0  0.21350  0.23427  0.13750  1.0000
  C   C42       1.0  0.26203  0.28026  0.13306  1.0000
  C   C43       1.0  0.25279  0.24868  0.12872  1.0000
  H   H41       1.0  0.09808  0.28173  0.15189  1.0000
  H   H42       1.0  0.08651  0.31766  0.16595  1.0000
  H   H43       1.0  0.11892  0.31828  0.14138  1.0000
  H   H44       1.0  0.12926  0.26233  0.18653  1.0000
  H   H45       1.0  0.12542  0.29898  0.19985  1.0000
  H   H46       1.0  0.18159  0.27967  0.19794  1.0000
  H   H47       1.0  0.17785  0.34902  0.15977  1.0000
  H   H48       1.0  0.14921  0.34636  0.18487  1.0000
  H   H49       1.0  0.20894  0.33323  0.18290  1.0000
  H   H50       1.0  0.15251  0.23940  0.15653  1.0000
  H   H51       1.0  0.24011  0.32242  0.14787  1.0000
  H   H52       1.0  0.20588  0.20988  0.13364  1.0000
  H   H53       1.0  0.29165  0.29162  0.12546  1.0000
  H   H54       1.0  0.38642  0.25258  0.96208  1.0000
  C   C44       1.0  0.13459  0.04376  0.27549  1.0000
  C   C45       1.0  0.49924  0.38035  0.05763  1.0000
  C   C46       1.0  0.19380  0.01964  0.20768  1.0000
  H   H55       1.0  0.51061  0.23955  0.04855  1.0000
  S   S14       1.0  0.03998  0.18017  0.20436  1.0000
  H   H56       1.0  0.50253  0.28163  0.04732  1.0000
  H   H57       1.0  0.37084  0.31847  0.98303  1.0000
  H   H58       1.0  0.20632  0.03094  0.19324  1.0000
  H   H59       1.0  0.42543  0.27616  0.97828  1.0000
  S   S15       1.0  0.03997  0.09889  0.28527  1.0000
  S   S16       1.0  0.02036  0.33943  0.12995  1.0000
  H   H60       1.0  0.49074  0.38572  0.07413  1.0000
  H   H61       1.0  0.32813  0.29425  0.96987  1.0000
  H   H62       1.0  0.02326  0.28819  0.23221  1.0000
  C   C47       1.0  0.02615  0.23470  0.18184  1.0000
  C   C48       1.0  0.41277  0.27194  0.96155  1.0000
  S   S17       1.0  0.02597  0.41536  0.11796  1.0000
  H   H63       1.0  0.01868  0.40347  0.22378  1.0000
  H   H64       1.0  0.04197  0.47766  0.27467  1.0000
  H   H65       1.0  0.02654  0.21976  0.16774  1.0000
  C   C49       1.0  0.01826  0.26722  0.17955  1.0000
  H   H66       1.0  0.13649  0.18282  0.95935  1.0000
  H   H67       1.0  0.02000  0.10832  0.97062  1.0000
  H   H68       1.0  0.02126  0.43148  0.25321  1.0000
  H   H69       1.0  0.33842  0.33417  0.96081  1.0000
  C   C50       1.0  0.23257  0.25557  0.95949  1.0000
  H   H70       1.0  0.18516  0.99377  0.28660  1.0000
  H   H71       1.0  0.13510  0.05694  0.29100  1.0000
  H   H72       1.0  0.25762  0.14369  0.55330  1.0000
  S   S18       1.0  0.44211  0.14585  0.59163  1.0000
  H   H73       1.0  0.14227  0.45763  0.58659  1.0000
  C   C51       1.0  0.13050  0.09648  0.50475  1.0000
  Fe  Fe9       1.0  0.37098  0.27276  0.39276  1.0000
  S   S19       1.0  0.35864  0.29725  0.36144  1.0000
  S   S20       1.0  0.33588  0.29020  0.42283  1.0000
  Fe  Fe10      1.0  0.44198  0.22826  0.37360  1.0000
  S   S21       1.0  0.43444  0.24862  0.34039  1.0000
  H   H74       1.0  0.38004  0.19421  0.43928  1.0000
  Fe  Fe11      1.0  0.43673  0.29572  0.35719  1.0000
  C   C52       1.0  0.02751  0.14877  0.54111  1.0000
  Fe  Fe12      1.0  0.35660  0.24859  0.34710  1.0000
  S   S22       1.0  0.29676  0.24431  0.32269  1.0000
  S   S23       1.0  0.44921  0.27535  0.38987  1.0000
  S   S24       1.0  0.36409  0.22415  0.37901  1.0000
  Fe  Fe13      1.0  0.19682  0.21823  0.56249  1.0000
  S   S25       1.0  0.17175  0.18295  0.53817  1.0000
  S   S26       1.0  0.23254  0.19819  0.59241  1.0000
  Fe  Fe14      1.0  0.15692  0.27364  0.53668  1.0000
  S   S27       1.0  0.13025  0.24189  0.51030  1.0000
  S   S28       1.0  0.14885  0.32624  0.53030  1.0000
  Fe  Fe15      1.0  0.10532  0.21068  0.53688  1.0000
  C   C53       1.0  0.17312  0.11251  0.50361  1.0000
  Fe  Fe16      1.0  0.19888  0.21675  0.51376  1.0000
  S   S29       1.0  0.23684  0.19486  0.48581  1.0000
  S   S30       1.0  0.12717  0.24404  0.56329  1.0000
  S   S31       1.0  0.22868  0.25060  0.53807  1.0000
  C   C54       1.0  0.30648  0.26369  0.43969  1.0000
  C   C55       1.0  0.28861  0.27453  0.45924  1.0000
  C   C56       1.0  0.26666  0.25361  0.47341  1.0000
  C   C57       1.0  0.26256  0.22174  0.46805  1.0000
  C   C58       1.0  0.28015  0.21092  0.44842  1.0000
  C   C59       1.0  0.30202  0.23188  0.43426  1.0000
  H   H75       1.0  0.29203  0.29914  0.46354  1.0000
  H   H76       1.0  0.25315  0.26214  0.48852  1.0000
  H   H77       1.0  0.27693  0.18627  0.44422  1.0000
  H   H78       1.0  0.31591  0.22335  0.41933  1.0000
  C   C60       1.0  0.19806  0.16232  0.30479  1.0000
  C   C61       1.0  0.14855  0.08175  0.54141  1.0000
  C   C62       1.0  0.39881  0.23213  0.62226  1.0000
  C   C63       1.0  0.25980  0.21207  0.31604  1.0000
  C   C64       1.0  0.26770  0.18179  0.32407  1.0000
  C   C65       1.0  0.23686  0.15705  0.31847  1.0000
  H   H79       1.0  0.29775  0.17738  0.33439  1.0000
  H   H80       1.0  0.24330  0.13366  0.32465  1.0000
  C   C66       1.0  0.22091  0.21732  0.30243  1.0000
  H   H81       1.0  0.08514  0.06849  0.52443  1.0000
  C   C67       1.0  0.04795  0.10606  0.56533  1.0000
  H   H82       1.0  0.35301  0.17948  0.50942  1.0000
  H   H83       1.0  0.08265  0.15139  0.56494  1.0000
  C   C68       1.0  0.04043  0.36150  0.56530  1.0000
  C   C69       1.0  0.09501  0.37985  0.53061  1.0000
  C   C70       1.0  0.10293  0.35027  0.54010  1.0000
  S   S32       1.0  0.47568  0.33634  0.34143  1.0000
  H   H84       1.0  0.11651  0.38715  0.51729  1.0000
  N   N4        1.0  0.44550  0.21241  0.45213  1.0000
  C   C71       1.0  0.35379  0.15383  0.60960  1.0000
  H   H85       1.0  0.21466  0.24066  0.29610  1.0000
  C   C72       1.0  0.43948  0.19637  0.47303  1.0000
  H   H86       1.0  0.42059  0.20732  0.41949  1.0000
  C   C73       1.0  0.18823  0.23940  0.40177  1.0000
  H   H87       1.0  0.20514  0.05343  0.57188  1.0000
  H   H88       1.0  0.06917  0.09712  0.57845  1.0000
  H   H89       1.0  0.42025  0.15418  0.52830  1.0000
  H   H90       1.0  0.40821  0.21838  0.60767  1.0000
  C   C74       1.0  0.38315  0.15910  0.59209  1.0000
  H   H91       1.0  0.39060  0.24687  0.45739  1.0000
  C   C75       1.0  0.30782  0.16613  0.60955  1.0000
  C   C76       1.0  0.29062  0.18343  0.59193  1.0000
  C   C77       1.0  0.31980  0.18839  0.57435  1.0000
  C   C78       1.0  0.36581  0.17630  0.57446  1.0000
  H   H92       1.0  0.09416  0.44204  0.57147  1.0000
  C   C79       1.0  0.41789  0.19554  0.43538  1.0000
  H   H93       1.0  0.30703  0.20176  0.56072  1.0000
  H   H94       1.0  0.38835  0.18073  0.56093  1.0000
  C   C80       1.0  0.12185  0.46064  0.57141  1.0000
  H   H95       1.0  0.48644  0.21270  0.61844  1.0000
  C   C81       1.0  0.11849  0.08084  0.52353  1.0000
  C   C82       1.0  0.50180  0.15581  0.35136  1.0000
  H   H96       1.0  0.08067  0.31828  0.56470  1.0000
  H   H97       1.0  0.21566  0.28357  0.41571  1.0000
  H   H98       1.0  0.39945  0.25749  0.61786  1.0000
  H   H99       1.0  0.26198  0.21541  0.36236  1.0000
  C   C83       1.0  0.49499  0.21369  0.44481  1.0000
  H   H100      1.0  0.43257  0.25830  0.43818  1.0000
  H   H101      1.0  0.10650  0.09641  0.49113  1.0000
  N   N5        1.0  0.22190  0.10025  0.56054  1.0000
  C   C84       1.0  0.42547  0.16582  0.51302  1.0000
  C   C85       1.0  0.42848  0.24538  0.45361  1.0000
  C   C86       1.0  0.26565  0.11876  0.55749  1.0000
  C   C87       1.0  0.23582  0.06806  0.56725  1.0000
  H   H102      1.0  0.14480  0.45527  0.55750  1.0000
  H   H103      1.0  0.18265  0.13909  0.57352  1.0000
  C   C88       1.0  0.07495  0.34097  0.55727  1.0000
  H   H104      1.0  0.28756  0.11965  0.57242  1.0000
  H   H105      1.0  0.47097  0.00585  0.29712  1.0000
  C   C89       1.0  0.19181  0.09843  0.54101  1.0000
  H   H106      1.0  0.46000  0.00447  0.32578  1.0000
  C   C90       1.0  0.19547  0.11531  0.57825  1.0000
  C   C91       1.0  0.38779  0.18002  0.50241  1.0000
  H   H107      1.0  0.49809  0.22665  0.42933  1.0000
  H   H108      1.0  0.36395  0.20533  0.47510  1.0000
  H   H109      1.0  0.16429  0.10138  0.58308  1.0000
  H   H110      1.0  0.22173  0.29178  0.37974  1.0000
  H   H111      1.0  0.15095  0.26385  0.36560  1.0000
  C   C92       1.0  0.39451  0.19496  0.48271  1.0000
  H   H112      1.0  0.23558  0.12673  0.51934  1.0000
  S   S33       1.0  0.16077  0.13034  0.29798  1.0000
  H   H113      1.0  0.27087  0.26913  0.38995  1.0000
  H   H114      1.0  0.26354  0.20853  0.39073  1.0000
  H   H115      1.0  0.44778  0.25873  0.46633  1.0000
  H   H116      1.0  0.28808  0.10839  0.54478  1.0000
  H   H117      1.0  0.21831  0.19138  0.37414  1.0000
  C   C93       1.0  0.46996  0.16643  0.50391  1.0000
  H   H118      1.0  0.25408  0.05551  0.55402  1.0000
  H   H119      1.0  0.15123  0.22172  0.36297  1.0000
  H   H120      1.0  0.25787  0.27019  0.36185  1.0000
  C   C94       1.0  0.47711  0.18136  0.48418  1.0000
  C   C95       1.0  0.24151  0.26936  0.37802  1.0000
  C   C96       1.0  0.17401  0.24299  0.36334  1.0000
  H   H121      1.0  0.19001  0.24475  0.34709  1.0000
  C   C97       1.0  0.05567  0.13675  0.55770  1.0000
  C   C98       1.0  0.23972  0.21295  0.37682  1.0000
  H   H122      1.0  0.25997  0.06856  0.58145  1.0000
  H   H123      1.0  0.47529  0.17057  0.34397  1.0000
  C   C99       1.0  0.05970  0.40005  0.53829  1.0000
  H   H124      1.0  0.01982  0.35440  0.57896  1.0000
  C   C100      1.0  0.20372  0.11326  0.52132  1.0000
  H   H125      1.0  0.13699  0.06977  0.55571  1.0000
  H   H126      1.0  0.43065  0.17094  0.43331  1.0000
  H   H127      1.0  0.05424  0.42274  0.53088  1.0000
  H   H128      1.0  0.21771  0.11867  0.59291  1.0000
  S   S34       1.0  0.03406  0.18792  0.53221  1.0000
  C   C101      1.0  0.19011  0.19260  0.29684  1.0000
  N   N6        1.0  0.21059  0.24140  0.38044  1.0000
  C   C102      1.0  0.16018  0.21291  0.40705  1.0000
  C   C103      1.0  0.19443  0.26277  0.41799  1.0000
  C   C104      1.0  0.14097  0.20949  0.42751  1.0000
  C   C105      1.0  0.17458  0.25924  0.43829  1.0000
  C   C106      1.0  0.14848  0.23250  0.44314  1.0000
  H   H129      1.0  0.15373  0.19433  0.39550  1.0000
  H   H130      1.0  0.12078  0.18866  0.43142  1.0000
  H   H131      1.0  0.18085  0.27688  0.45064  1.0000
  H   H132      1.0  0.13469  0.22941  0.45918  1.0000
  H   H133      1.0  0.18215  0.12516  0.48910  1.0000
  H   H134      1.0  0.28533  0.16205  0.62317  1.0000
  Fe  Fe17      1.0  0.48590  0.12428  0.61879  1.0000
  H   H135      1.0  0.06056  0.30559  0.50966  1.0000
  H   H136      1.0  0.49910  0.15517  0.51222  1.0000
  C   C107      1.0  0.03270  0.39112  0.55591  1.0000
  S   S35       1.0  0.49550  0.19425  0.38721  1.0000
  H   H137      1.0  0.36645  0.14025  0.62313  1.0000
  H   H138      1.0  0.04227  0.47697  0.58862  1.0000
  H   H139      1.0  0.50925  0.18972  0.44163  1.0000
  C   C108      1.0  0.48731  0.00807  0.31336  1.0000
  H   H140      1.0  0.04767  0.47458  0.54835  1.0000
  H   H141      1.0  0.20029  0.48934  0.57247  1.0000
  H   H142      1.0  0.21059  0.02711  0.29952  1.0000
  C   C109      1.0  0.02256  0.30560  0.51095  1.0000
  H   H143      1.0  0.49907  0.03305  0.31525  1.0000
  H   H144      1.0  0.51238  0.18070  0.47800  1.0000
  H   H145      1.0  0.50733  0.12463  0.32404  1.0000
  H   H146      1.0  0.01953  0.25707  0.52069  1.0000
  H   H147      1.0  0.51400  0.39533  0.32760  1.0000
  H   H148      1.0  0.01687  0.35379  0.50237  1.0000
  H   H149      1.0  0.16871  0.34915  0.74792  1.0000
  H   H150      1.0  0.23774  0.27627  0.76399  1.0000
  Fe  Fe18      1.0  0.47916  0.35336  0.77248  1.0000
  S   S36       1.0  0.41126  0.34867  0.79131  1.0000
  C   C110      1.0  0.02091  0.11403  0.91636  1.0000
  H   H151      1.0  0.03415  0.47155  0.86498  1.0000
  C   C111      1.0  0.28130  0.34851  0.76779  1.0000
  C   C112      1.0  0.20561  0.35420  0.75013  1.0000
  S   S37       1.0  0.46438  0.11233  0.65229  1.0000
  Fe  Fe19      1.0  0.13848  0.28695  0.84573  1.0000
  S   S38       1.0  0.15254  0.24339  0.82637  1.0000
  S   S39       1.0  0.10760  0.32914  0.82846  1.0000
  Fe  Fe20      1.0  0.17851  0.25723  0.88659  1.0000
  S   S40       1.0  0.19597  0.21154  0.87040  1.0000
  S   S41       1.0  0.18525  0.26726  0.92205  1.0000
  Fe  Fe21      1.0  0.22230  0.24304  0.84379  1.0000
  S   S42       1.0  0.28994  0.23422  0.82565  1.0000
  Fe  Fe22      1.0  0.12481  0.21611  0.85456  1.0000
  S   S43       1.0  0.06150  0.18321  0.85377  1.0000
  S   S44       1.0  0.20978  0.28836  0.86136  1.0000
  S   S45       1.0  0.10587  0.26020  0.87255  1.0000
  C   C113      1.0  0.22804  0.24773  0.93769  1.0000
  H   H152      1.0  0.38823  0.18691  0.65150  1.0000
  C   C114      1.0  0.51256  0.00108  0.68218  1.0000
  C   C115      1.0  0.25723  0.22464  0.92895  1.0000
  H   H153      1.0  0.30458  0.33870  0.77982  1.0000
  H   H154      1.0  0.25425  0.21857  0.91212  1.0000
  C   C116      1.0  0.46898  0.00788  0.75369  1.0000
  H   H155      1.0  0.45598  0.07275  0.70796  1.0000
  C   C117      1.0  0.05690  0.14156  0.85506  1.0000
  C   C118      1.0  0.11822  0.43744  0.86681  1.0000
  C   C119      1.0  0.29090  0.20956  0.94203  1.0000
  C   C120      1.0  0.07158  0.35398  0.84390  1.0000
  C   C121      1.0  0.06711  0.34934  0.86598  1.0000
  H   H156      1.0  0.39113  0.30025  0.70825  1.0000
  H   H157      1.0  0.08590  0.33040  0.87379  1.0000
  H   H158      1.0  0.47099  0.30087  0.69323  1.0000
  C   C122      1.0  0.38380  0.31541  0.80281  1.0000
  C   C123      1.0  0.39104  0.28477  0.79524  1.0000
  C   C124      1.0  0.36330  0.25977  0.80300  1.0000
  C   C125      1.0  0.32814  0.26524  0.81827  1.0000
  C   C126      1.0  0.32228  0.29567  0.82637  1.0000
  C   C127      1.0  0.34987  0.32058  0.81864  1.0000
  H   H159      1.0  0.41691  0.28049  0.78297  1.0000
  H   H160      1.0  0.36821  0.23625  0.79668  1.0000
  H   H161      1.0  0.29588  0.30021  0.83828  1.0000
  H   H162      1.0  0.34420  0.34420  0.82463  1.0000
  H   H163      1.0  0.25524  0.33485  0.80844  1.0000
  H   H164      1.0  0.20561  0.31206  0.81606  1.0000
  C   C128      1.0  0.15836  0.45216  0.83422  1.0000
  H   H165      1.0  0.19748  0.35118  0.80597  1.0000
  H   H166      1.0  0.15024  0.29166  0.78997  1.0000
  C   C129      1.0  0.38805  0.27530  0.89329  1.0000
  C   C130      1.0  0.23321  0.33967  0.76649  1.0000
  C   C131      1.0  0.24023  0.28657  0.78040  1.0000
  C   C132      1.0  0.27277  0.38406  0.73777  1.0000
  H   H167      1.0  0.22707  0.26865  0.79195  1.0000
  C   C133      1.0  0.21839  0.32924  0.80398  1.0000
  H   H168      1.0  0.29863  0.30200  0.93605  1.0000
  C   C134      1.0  0.40463  0.28315  0.91386  1.0000
  H   H169      1.0  0.28797  0.40101  0.72685  1.0000
  C   C135      1.0  0.42517  0.19243  0.64733  1.0000
  C   C136      1.0  0.37368  0.29334  0.93022  1.0000
  C   C137      1.0  0.16335  0.30913  0.77811  1.0000
  C   C138      1.0  0.30905  0.28724  0.90408  1.0000
  C   C139      1.0  0.44413  0.28605  0.68591  1.0000
  C   C140      1.0  0.09627  0.12202  0.85676  1.0000
  C   C141      1.0  0.09047  0.08911  0.85844  1.0000
  N   N7        1.0  0.21380  0.31660  0.78185  1.0000
  C   C142      1.0  0.34030  0.27722  0.88844  1.0000
  C   C143      1.0  0.22537  0.37603  0.73601  1.0000
  C   C144      1.0  0.06829  0.48683  0.82671  1.0000
  H   H170      1.0  0.27811  0.28953  0.78421  1.0000
  H   H171      1.0  0.31361  0.19185  0.93518  1.0000
  C   C145      1.0  0.30066  0.37031  0.75365  1.0000
  C   C146      1.0  0.45517  0.26687  0.66838  1.0000
  H   H172      1.0  0.43519  0.17566  0.63441  1.0000
  C   C147      1.0  0.13889  0.17721  0.91679  1.0000
  H   H173      1.0  0.12110  0.07413  0.85957  1.0000
  C   C148      1.0  0.36473  0.26631  0.68534  1.0000
  H   H174      1.0  0.34764  0.23220  0.66139  1.0000
  H   H175      1.0  0.44741  0.18709  0.66169  1.0000
  S   S46       1.0  0.48019  0.36202  0.73685  1.0000
  C   C149      1.0  0.12364  0.45928  0.84971  1.0000
  C   C150      1.0  0.11385  0.19948  0.95017  1.0000
  H   H176      1.0  0.50664  0.10856  0.75784  1.0000
  Fe  Fe23      1.0  0.51169  0.07008  0.64961  1.0000
  H   H177      1.0  0.44188  0.28082  0.91692  1.0000
  H   H178      1.0  0.19871  0.38194  0.85312  1.0000
  H   H179      1.0  0.45339  0.10124  0.74289  1.0000
  H   H180      1.0  0.09029  0.23227  0.91657  1.0000
  C   C151      1.0  0.49135  0.10678  0.74136  1.0000
  H   H181      1.0  0.27181  0.28840  0.90040  1.0000
  N   N8        1.0  0.09441  0.48795  0.84745  1.0000
  C   C152      1.0  0.04736  0.37892  0.83400  1.0000
  C   C153      1.0  0.06736  0.15704  0.93244  1.0000
  C   C154      1.0  0.32516  0.29512  0.92470  1.0000
  H   H182      1.0  0.16310  0.19768  0.91524  1.0000
  C   C155      1.0  0.42896  0.32540  0.95080  1.0000
  H   H183      1.0  0.16466  0.46772  0.82086  1.0000
  H   H184      1.0  0.14078  0.33031  0.78016  1.0000
  H   H185      1.0  0.13111  0.13219  0.85666  1.0000
  S   S47       1.0  0.51355  0.39981  0.78000  1.0000
  H   H186      1.0  0.15716  0.29876  0.76190  1.0000
  H   H187      1.0  0.33762  0.37654  0.75516  1.0000
  H   H188      1.0  0.20379  0.38684  0.72362  1.0000
  H   H189      1.0  0.32745  0.27065  0.87257  1.0000
  C   C156      1.0  0.04864  0.14101  0.91426  1.0000
  S   S48       1.0  0.48290  0.02384  0.66248  1.0000
  H   H190      1.0  0.36183  0.22565  0.62580  1.0000
  C   C157      1.0  0.04540  0.07544  0.85867  1.0000
  C   C158      1.0  0.17854  0.40356  0.85230  1.0000
  H   H191      1.0  0.05084  0.38263  0.81692  1.0000
  N   N9        1.0  0.09697  0.18541  0.92960  1.0000
  S   S49       1.0  0.03989  0.03390  0.86077  1.0000
  C   C159      1.0  0.06987  0.20996  0.91795  1.0000
  H   H192      1.0  0.04676  0.46500  0.82543  1.0000
  H   H193      1.0  0.32977  0.26594  0.69207  1.0000
  H   H194      1.0  0.14018  0.39353  0.88098  1.0000
  N   N10       1.0  0.39204  0.30075  0.95201  1.0000
  N   N11       1.0  0.43140  0.22555  0.64048  1.0000
  C   C160      1.0  0.18521  0.42464  0.83551  1.0000
  C   C161      1.0  0.39913  0.28568  0.69444  1.0000
  C   C162      1.0  0.03842  0.36939  0.87809  1.0000
  H   H195      1.0  0.21117  0.41952  0.82338  1.0000
  H   H196      1.0  0.03511  0.36562  0.89519  1.0000
  H   H197      1.0  0.44335  0.26316  0.95240  1.0000
  H   H198      1.0  0.48732  0.25308  0.62677  1.0000
  H   H199      1.0  0.41223  0.26745  0.88104  1.0000
  S   S50       1.0  0.49220  0.45064  0.72832  1.0000
  H   H200      1.0  0.09248  0.44044  0.87928  1.0000
  H   H201      1.0  0.15907  0.15768  0.92437  1.0000
  H   H202      1.0  0.50648  0.22208  0.64485  1.0000
  C   C163      1.0  0.37532  0.24711  0.66776  1.0000
  C   C164      1.0  0.47132  0.03719  0.74357  1.0000
  C   C165      1.0  0.42093  0.24674  0.65874  1.0000
  H   H203      1.0  0.49316  0.10327  0.69850  1.0000
  C   C166      1.0  0.05631  0.14445  0.95295  1.0000
  H   H204      1.0  0.43853  0.04797  0.73875  1.0000
  C   C167      1.0  0.48008  0.22872  0.63236  1.0000
  C   C168      1.0  0.14551  0.41013  0.86801  1.0000
  H   H205      1.0  0.05538  0.14927  0.89821  1.0000
  H   H206      1.0  0.49100  0.26789  0.66295  1.0000
  H   H207      1.0  0.06057  0.20273  0.90124  1.0000
  H   H208      1.0  0.13569  0.22087  0.94745  1.0000
  C   C169      1.0  0.50996  0.99264  0.76019  1.0000
  H   H209      1.0  0.12953  0.16976  0.90013  1.0000
  H   H210      1.0  0.03655  0.21550  0.92634  1.0000
  H   H211      1.0  0.43528  0.99665  0.75626  1.0000
  C   C170      1.0  0.49321  0.08038  0.70710  1.0000
  H   H212      1.0  0.49336  0.13061  0.73389  1.0000
  H   H213      1.0  0.49573  0.21171  0.72636  1.0000
  C   C171      1.0  0.51506  0.05200  0.73942  1.0000
  H   H214      1.0  0.41533  0.34691  0.94269  1.0000
  H   H215      1.0  0.09192  0.48755  0.81265  1.0000
  H   H216      1.0  0.46048  0.31738  0.94199  1.0000
  H   H217      1.0  0.51165  0.06312  0.69680  1.0000
  C   C172      1.0  0.01850  0.39896  0.84613  1.0000
  C   C173      1.0  0.02822  0.11752  0.95488  1.0000
  C   C174      1.0  0.05934  0.49164  0.86476  1.0000
  H   H218      1.0  0.04477  0.53330  0.12204  1.0000
  S   S51       1.0  0.11350  0.63152  0.25505  1.0000
  Fe  Fe24      1.0  0.06634  0.58921  0.25782  1.0000
  S   S52       1.0  0.09231  0.54155  0.24638  1.0000
  C   C175      1.0  0.43529  0.65555  0.98844  1.0000
  Fe  Fe25      1.0  0.08110  0.86556  0.11769  1.0000
  S   S53       1.0  0.11910  0.84199  0.08989  1.0000
  Fe  Fe26      1.0  0.06521  0.92264  0.14681  1.0000
  S   S54       1.0  0.03030  0.67152  0.27943  1.0000
  S   S55       1.0  0.11188  0.88011  0.14954  1.0000
  H   H219      1.0  0.41261  0.84023  0.07003  1.0000
  Fe  Fe27      1.0  0.45571  0.78269  0.03047  1.0000
  S   S56       1.0  0.44866  0.76802  0.06479  1.0000
  S   S57       1.0  0.02027  0.83916  0.13206  1.0000
  Fe  Fe28      1.0  0.37386  0.74201  0.01566  1.0000
  S   S58       1.0  0.35956  0.72463  0.04911  1.0000
  S   S59       1.0  0.33775  0.71909  0.98713  1.0000
  Fe  Fe29      1.0  0.37092  0.77504  0.05916  1.0000
  S   S60       1.0  0.33463  0.80229  0.08583  1.0000
  Fe  Fe30      1.0  0.43802  0.71891  0.05179  1.0000
  S   S61       1.0  0.46748  0.67468  0.06771  1.0000
  S   S62       1.0  0.37897  0.79293  0.02538  1.0000
  S   S63       1.0  0.45144  0.73313  0.01783  1.0000
  H   H220      1.0  0.04524  0.94650  0.19226  1.0000
  C   C176      1.0  0.05176  0.79026  0.20061  1.0000
  H   H221      1.0  0.41629  0.65582  0.03045  1.0000
  N   N12       1.0  0.40508  0.63276  0.99996  1.0000
  C   C177      1.0  0.17962  0.83247  0.08863  1.0000
  C   C178      1.0  0.19629  0.81578  0.07072  1.0000
  C   C179      1.0  0.24382  0.80678  0.06943  1.0000
  C   C180      1.0  0.27501  0.81418  0.08618  1.0000
  C   C181      1.0  0.25856  0.83138  0.10391  1.0000
  C   C182      1.0  0.21114  0.84064  0.10508  1.0000
  H   H222      1.0  0.17216  0.80950  0.05787  1.0000
  H   H223      1.0  0.25604  0.79364  0.05567  1.0000
  H   H224      1.0  0.28254  0.83734  0.11687  1.0000
  H   H225      1.0  0.19890  0.85408  0.11867  1.0000
  H   H226      1.0  0.46828  0.66021  0.99759  1.0000
  C   C183      1.0  0.06392  0.77830  0.22095  1.0000
  H   H227      1.0  0.34271  0.64625  0.98232  1.0000
  C   C184      1.0  0.07091  0.98969  0.17869  1.0000
  N   N13       1.0  0.38907  0.88651  0.06060  1.0000
  H   H228      1.0  0.13636  0.60466  0.19837  1.0000
  C   C185      1.0  0.06551  0.52220  0.22431  1.0000
  C   C186      1.0  0.03510  0.76955  0.18476  1.0000
  C   C187      1.0  0.30442  0.77426  0.96890  1.0000
  S   S64       1.0  0.03982  0.91049  0.11342  1.0000
  C   C188      1.0  0.43572  0.93403  0.07237  1.0000
  H   H229      1.0  0.39919  0.90082  0.02782  1.0000
  C   C189      1.0  0.43926  0.96454  0.08065  1.0000
  H   H230      1.0  0.08435  0.65329  0.17388  1.0000
  H   H231      1.0  0.01916  0.72123  0.17675  1.0000
  H   H232      1.0  0.39180  0.86428  0.09163  1.0000
  H   H233      1.0  0.08616  0.58604  0.21058  1.0000
  H   H234      1.0  0.06960  0.73699  0.24110  1.0000
  Fe  Fe31      1.0  0.04860  0.85640  0.16379  1.0000
  H   H235      1.0  0.45230  0.89016  0.04156  1.0000
  C   C190      1.0  0.02451  0.53394  0.21484  1.0000
  H   H236      1.0  0.41314  0.86018  0.03302  1.0000
  N   N14       1.0  0.07338  0.60358  0.17858  1.0000
  H   H237      1.0  0.37476  0.61454  0.97047  1.0000
  C   C191      1.0  0.48134  0.55995  0.99249  1.0000
  S   S65       1.0  0.08859  0.97260  0.15420  1.0000
  C   C192      1.0  0.43190  0.60371  0.00486  1.0000
  H   H238      1.0  0.42552  0.75109  0.96026  1.0000
  H   H239      1.0  0.32122  0.89013  0.04493  1.0000
  H   H240      1.0  0.33999  0.85062  0.05006  1.0000
  Fe  Fe32      1.0  0.09309  0.64226  0.28912  1.0000
  C   C193      1.0  0.35490  0.96726  0.08314  1.0000
  C   C194      1.0  0.39151  0.91912  0.06908  1.0000
  C   C195      1.0  0.11487  0.55072  0.17445  1.0000
  S   S66       1.0  0.06155  0.83068  0.19532  1.0000
  C   C196      1.0  0.08219  0.57367  0.16701  1.0000
  C   C197      1.0  0.09025  0.63035  0.16553  1.0000
  H   H241      1.0  0.34068  0.60758  0.99407  1.0000
  C   C198      1.0  0.08589  0.49472  0.21598  1.0000
  C   C199      1.0  0.05990  0.74591  0.22542  1.0000
  C   C200      1.0  0.06493  0.53856  0.13648  1.0000
  H   H242      1.0  0.46823  0.92207  0.06886  1.0000
  H   H243      1.0  0.41733  0.67856  0.98600  1.0000
  H   H244      1.0  0.13796  0.95304  0.22310  1.0000
  C   C201      1.0  0.38712  0.64893  0.01940  1.0000
  H   H245      1.0  0.36792  0.67094  0.01531  1.0000
  H   H246      1.0  0.19129  0.75213  0.18094  1.0000
  H   H247      1.0  0.50580  0.52759  0.01666  1.0000
  N   N15       1.0  0.16870  0.78292  0.15520  1.0000
  C   C202      1.0  0.15887  0.75978  0.17237  1.0000
  C   C203      1.0  0.18940  0.81162  0.16521  1.0000
  C   C204      1.0  0.12314  0.79224  0.14528  1.0000
  C   C205      1.0  0.20184  0.76892  0.13968  1.0000
  C   C206      1.0  0.24851  0.76148  0.14615  1.0000
  C   C207      1.0  0.18894  0.76169  0.11808  1.0000
  C   C208      1.0  0.28060  0.74857  0.13174  1.0000
  C   C209      1.0  0.22117  0.74836  0.10391  1.0000
  C   C210      1.0  0.26698  0.74211  0.11065  1.0000
  H   H248      1.0  0.14130  0.73836  0.16577  1.0000
  H   H249      1.0  0.08952  0.62774  0.20833  1.0000
  H   H250      1.0  0.13545  0.76989  0.18481  1.0000
  H   H251      1.0  0.20044  0.82873  0.15275  1.0000
  H   H252      1.0  0.22038  0.80640  0.17554  1.0000
  H   H253      1.0  0.16377  0.82384  0.17583  1.0000
  H   H254      1.0  0.10321  0.77160  0.13897  1.0000
  H   H255      1.0  0.09977  0.80383  0.15710  1.0000
  H   H256      1.0  0.12826  0.80941  0.13201  1.0000
  H   H257      1.0  0.26070  0.76583  0.16236  1.0000
  H   H258      1.0  0.15459  0.76687  0.11147  1.0000
  H   H259      1.0  0.31650  0.74399  0.13679  1.0000
  H   H260      1.0  0.21107  0.74399  0.08733  1.0000
  H   H261      1.0  0.29234  0.73300  0.09934  1.0000
  C   C211      1.0  0.41440  0.88442  0.03991  1.0000
  H   H262      1.0  0.17040  0.97811  0.19077  1.0000
  C   C212      1.0  0.35098  0.93669  0.07482  1.0000
  H   H263      1.0  0.10111  0.49414  0.13608  1.0000
  C   C213      1.0  0.41145  0.86483  0.07625  1.0000
  C   C214      1.0  0.39892  0.98115  0.08605  1.0000
  H   H264      1.0  0.44810  0.87163  0.08022  1.0000
  H   H265      1.0  0.14158  0.97969  0.25783  1.0000
  H   H266      1.0  0.32357  0.98013  0.08760  1.0000
  H   H267      1.0  0.31996  0.87376  0.07180  1.0000
  C   C215      1.0  0.45495  0.58703  0.98821  1.0000
  H   H268      1.0  0.31860  0.78642  0.98279  1.0000
  C   C216      1.0  0.48463  0.54826  0.01330  1.0000
  H   H269      1.0  0.02351  0.97076  0.22696  1.0000
  H   H270      1.0  0.14620  0.50515  0.16935  1.0000
  C   C217      1.0  0.05060  0.97141  0.19477  1.0000
  C   C218      1.0  0.15546  0.97567  0.22450  1.0000
  H   H271      1.0  0.07690  0.79415  0.23329  1.0000
  H   H272      1.0  0.31587  0.92723  0.07325  1.0000
  S   S67       1.0  0.04123  0.68398  0.21367  1.0000
  H   H273      1.0  0.03305  0.58331  0.14068  1.0000
  H   H274      1.0  0.02510  0.77847  0.16913  1.0000
  H   H275      1.0  0.13444  0.55334  0.18929  1.0000
  C   C219      1.0  0.03870  0.98516  0.21451  1.0000
  C   C220      1.0  0.36409  0.62489  0.98608  1.0000
  C   C221      1.0  0.34036  0.87505  0.05666  1.0000
  C   C222      1.0  0.43562  0.59092  0.02591  1.0000
  H   H276      1.0  0.07179  0.63176  0.14975  1.0000
  C   C223      1.0  0.05803  0.56692  0.14746  1.0000
  C   C224      1.0  0.03172  0.73712  0.18914  1.0000
  C   C225      1.0  0.30899  0.74155  0.96719  1.0000
  C   C226      1.0  0.09680  0.51647  0.14431  1.0000
  C   C227      1.0  0.02222  0.60761  0.18223  1.0000
  H   H277      1.0  0.41994  0.60198  0.03973  1.0000
  C   C228      1.0  0.12209  0.52270  0.16310  1.0000
  C   C229      1.0  0.46133  0.56347  0.02990  1.0000
  H   H278      1.0  0.50257  0.61384  0.08046  1.0000
  Fe  Fe33      1.0  0.04737  0.65750  0.24548  1.0000
  H   H279      1.0  0.26550  0.71705  0.28673  1.0000
  C   C230      1.0  0.09748  0.60539  0.19983  1.0000
  C   C231      1.0  0.04407  0.72515  0.20947  1.0000
  H   H280      1.0  0.36176  0.63404  0.02829  1.0000
  H   H281      1.0  0.12852  0.62821  0.16235  1.0000
  H   H282      1.0  0.46454  0.55444  0.04613  1.0000
  C   C232      1.0  0.50537  0.64766  0.05474  1.0000
  H   H283      1.0  0.44509  0.64724  0.97219  1.0000
  H   H284      1.0  0.47376  0.97503  0.08312  1.0000
  H   H285      1.0  0.50807  0.83016  0.06270  1.0000
  H   H286      1.0  0.45314  0.59495  0.97176  1.0000
  H   H287      1.0  0.19153  0.68587  0.28494  1.0000
  H   H288      1.0  0.49987  0.54807  0.97968  1.0000
  S   S68       1.0  0.51029  0.81557  0.01696  1.0000
  C   C233      1.0  0.17361  0.98982  0.20624  1.0000
  C   C234      1.0  0.15785  0.99114  0.24433  1.0000
  H   H289      1.0  0.44252  0.60566  0.34031  1.0000
  C   C235      1.0  0.07375  0.49407  0.54946  1.0000
  H   H290      1.0  0.27198  0.75012  0.36505  1.0000
  S   S69       1.0  0.13938  0.65296  0.31837  1.0000
  Fe  Fe34      1.0  0.36884  0.77115  0.39735  1.0000
  S   S70       1.0  0.36145  0.79497  0.36552  1.0000
  S   S71       1.0  0.32462  0.78994  0.42440  1.0000
  Fe  Fe35      1.0  0.44940  0.73055  0.38172  1.0000
  S   S72       1.0  0.44933  0.75243  0.34879  1.0000
  C   C236      1.0  0.35155  0.63506  0.36960  1.0000
  Fe  Fe36      1.0  0.44031  0.79888  0.36621  1.0000
  C   C237      1.0  0.15435  0.57502  0.56952  1.0000
  Fe  Fe37      1.0  0.37062  0.74715  0.35096  1.0000
  S   S73       1.0  0.32892  0.73251  0.32122  1.0000
  S   S74       1.0  0.44686  0.77731  0.39899  1.0000
  S   S75       1.0  0.37121  0.72278  0.38290  1.0000
  Fe  Fe38      1.0  0.24236  0.72695  0.56150  1.0000
  S   S76       1.0  0.20928  0.68513  0.54531  1.0000
  S   S77       1.0  0.31636  0.72884  0.57567  1.0000
  Fe  Fe39      1.0  0.15966  0.77110  0.54886  1.0000
  S   S78       1.0  0.12128  0.73249  0.53103  1.0000
  S   S79       1.0  0.13763  0.82197  0.55546  1.0000
  Fe  Fe40      1.0  0.14142  0.70224  0.55924  1.0000
  H   H291      1.0  0.50658  0.68041  0.34937  1.0000
  Fe  Fe41      1.0  0.19239  0.71881  0.51851  1.0000
  S   S80       1.0  0.20816  0.70072  0.48521  1.0000
  S   S81       1.0  0.17599  0.74147  0.57790  1.0000
  S   S82       1.0  0.22936  0.75982  0.53383  1.0000
  C   C238      1.0  0.29428  0.76437  0.44154  1.0000
  C   C239      1.0  0.27043  0.77718  0.45908  1.0000
  C   C240      1.0  0.24428  0.75777  0.47269  1.0000
  C   C241      1.0  0.24148  0.72545  0.46867  1.0000
  C   C242      1.0  0.26544  0.71257  0.45115  1.0000
  C   C243      1.0  0.29210  0.73194  0.43766  1.0000
  H   H292      1.0  0.27181  0.80229  0.46207  1.0000
  H   H293      1.0  0.22537  0.76795  0.48597  1.0000
  H   H294      1.0  0.26353  0.68752  0.44816  1.0000
  H   H295      1.0  0.31076  0.72181  0.42429  1.0000
  C   C244      1.0  0.19345  0.67356  0.31841  1.0000
  H   H296      1.0  0.24711  0.80478  0.36310  1.0000
  H   H297      1.0  0.24340  0.72293  0.38279  1.0000
  C   C245      1.0  0.27771  0.70883  0.32048  1.0000
  C   C246      1.0  0.26127  0.69352  0.33875  1.0000
  C   C247      1.0  0.21901  0.67630  0.33777  1.0000
  H   H298      1.0  0.28099  0.69503  0.35361  1.0000
  H   H299      1.0  0.20572  0.66523  0.35210  1.0000
  H   H300      1.0  0.04988  0.80459  0.53273  1.0000
  C   C248      1.0  0.07857  0.63638  0.53984  1.0000
  H   H301      1.0  0.42570  0.66224  0.33122  1.0000
  C   C249      1.0  0.34364  0.64783  0.40794  1.0000
  H   H302      1.0  0.10474  0.65167  0.53289  1.0000
  H   H303      1.0  0.12308  0.73780  0.38378  1.0000
  C   C250      1.0  0.07977  0.87380  0.55676  1.0000
  C   C251      1.0  0.08441  0.84245  0.54971  1.0000
  H   H304      1.0  0.21492  0.77584  0.41535  1.0000
  H   H305      1.0  0.10892  0.88511  0.56498  1.0000
  H   H306      1.0  0.42451  0.67239  0.35904  1.0000
  H   H307      1.0  0.41108  0.72207  0.59049  1.0000
  C   C252      1.0  0.16167  0.75114  0.32510  1.0000
  S   S83       1.0  0.08821  0.67209  0.57651  1.0000
  C   C253      1.0  0.27464  0.63404  0.38720  1.0000
  H   H308      1.0  0.27836  0.75459  0.39337  1.0000
  H   H309      1.0  0.07445  0.71866  0.35428  1.0000
  C   C254      1.0  0.49065  0.88742  0.30982  1.0000
  H   H310      1.0  0.19472  0.81751  0.37652  1.0000
  H   H311      1.0  0.37490  0.68105  0.34221  1.0000
  C   C255      1.0  0.03751  0.89057  0.55356  1.0000
  C   C256      1.0  0.41769  0.67549  0.60390  1.0000
  C   C257      1.0  0.39312  0.70019  0.59382  1.0000
  C   C258      1.0  0.34554  0.69679  0.58804  1.0000
  C   C259      1.0  0.32265  0.66841  0.59242  1.0000
  H   H312      1.0  0.27383  0.64595  0.42078  1.0000
  C   C260      1.0  0.19043  0.76635  0.40283  1.0000
  C   C261      1.0  0.22569  0.80163  0.37774  1.0000
  H   H313      1.0  0.28598  0.66555  0.58810  1.0000
  H   H314      1.0  0.08529  0.73624  0.60400  1.0000
  H   H315      1.0  0.44436  0.61717  0.36768  1.0000
  H   H316      1.0  0.24845  0.81024  0.39125  1.0000
  H   H317      1.0  0.17257  0.75353  0.30855  1.0000
  C   C262      1.0  0.13512  0.74247  0.36773  1.0000
  H   H318      1.0  0.37209  0.76636  0.47802  1.0000
  C   C263      1.0  0.25295  0.74811  0.38050  1.0000
  N   N16       1.0  0.36748  0.72283  0.51232  1.0000
  C   C264      1.0  0.40454  0.71656  0.52869  1.0000
  C   C265      1.0  0.34888  0.75493  0.51646  1.0000
  C   C266      1.0  0.32839  0.70024  0.51544  1.0000
  C   C267      1.0  0.38700  0.71888  0.49051  1.0000
  C   C268      1.0  0.40697  0.68968  0.48422  1.0000
  C   C269      1.0  0.38738  0.74351  0.47507  1.0000
  C   C270      1.0  0.42666  0.68557  0.46390  1.0000
  C   C271      1.0  0.40738  0.73916  0.45487  1.0000
  C   C272      1.0  0.51369  0.90224  0.36767  1.0000
  H   H319      1.0  0.43558  0.73205  0.52625  1.0000
  H   H320      1.0  0.33505  0.75724  0.53308  1.0000
  H   H321      1.0  0.31911  0.76065  0.50540  1.0000
  H   H322      1.0  0.33994  0.67533  0.51460  1.0000
  H   H323      1.0  0.31171  0.70334  0.53141  1.0000
  H   H324      1.0  0.30052  0.70351  0.50301  1.0000
  H   H325      1.0  0.40757  0.66982  0.49502  1.0000
  H   H326      1.0  0.40727  0.75832  0.44337  1.0000
  C   C273      1.0  0.03177  0.82249  0.60259  1.0000
  H   H327      1.0  0.48026  0.91356  0.37039  1.0000
  H   H328      1.0  0.43737  0.95825  0.31092  1.0000
  H   H329      1.0  0.10053  0.77616  0.59899  1.0000
  C   C274      1.0  0.42004  0.60926  0.35465  1.0000
  C   C275      1.0  0.11981  0.73571  0.32966  1.0000
  H   H330      1.0  0.22413  0.77211  0.33730  1.0000
  N   N17       1.0  0.38165  0.63215  0.35042  1.0000
  C   C276      1.0  0.37147  0.64388  0.38976  1.0000
  C   C277      1.0  0.20223  0.56878  0.57110  1.0000
  H   H331      1.0  0.04784  0.51868  0.58696  1.0000
  H   H332      1.0  0.44246  0.70722  0.43359  1.0000
  C   C278      1.0  0.34716  0.64378  0.60272  1.0000
  H   H333      1.0  0.15740  0.78021  0.40398  1.0000
  C   C279      1.0  0.06379  0.64138  0.56089  1.0000
  C   C280      1.0  0.12192  0.55028  0.56906  1.0000
  C   C281      1.0  0.30210  0.63013  0.36888  1.0000
  C   C282      1.0  0.21787  0.53773  0.57217  1.0000
  H   H334      1.0  0.32821  0.63869  0.32592  1.0000
  H   H335      1.0  0.41676  0.69174  0.52841  1.0000
  N   N18       1.0  0.21083  0.76844  0.38098  1.0000
  H   H336      1.0  0.37963  0.61914  0.31683  1.0000
  H   H337      1.0  0.14223  0.59923  0.56857  1.0000
  S   S84       1.0  0.46101  0.84960  0.35864  1.0000
  H   H338      1.0  0.37663  0.77321  0.51486  1.0000
  H   H339      1.0  0.18342  0.74155  0.40758  1.0000
  C   C283      1.0  0.10657  0.73139  0.35090  1.0000
  S   S85       1.0  0.42409  0.61599  0.62189  1.0000
  C   C284      1.0  0.17822  0.75824  0.36362  1.0000
  H   H340      1.0  0.44207  0.66318  0.45945  1.0000
  H   H341      1.0  0.39161  0.72082  0.54528  1.0000
  H   H342      1.0  0.35965  0.65510  0.42305  1.0000
  C   C285      1.0  0.02985  0.62131  0.56972  1.0000
  S   S86       1.0  0.49461  0.69137  0.39550  1.0000
  C   C286      1.0  0.35586  0.62146  0.33084  1.0000
  C   C287      1.0  0.42697  0.71032  0.44929  1.0000
  H   H343      1.0  0.23697  0.63031  0.38623  1.0000
  H   H344      1.0  0.45428  0.67844  0.60817  1.0000
  H   H345      1.0  0.08789  0.49688  0.60364  1.0000
  S   S87       1.0  0.05095  0.59769  0.29267  1.0000
  H   H346      1.0  0.40574  0.58592  0.35940  1.0000
  C   C288      1.0  0.45531  0.91005  0.30945  1.0000
  C   C289      1.0  0.19079  0.76195  0.34176  1.0000
  C   C290      1.0  0.06848  0.49652  0.58804  1.0000
  C   C291      1.0  0.02586  0.59129  0.53647  1.0000
  H   H347      1.0  0.02451  0.60972  0.36631  1.0000
  H   H348      1.0  0.33926  0.59801  0.33327  1.0000
  C   C292      1.0  0.46655  0.94209  0.31089  1.0000
  C   C293      1.0  0.04653  0.82826  0.53891  1.0000
  C   C294      1.0  0.40264  0.66323  0.34554  1.0000
  H   H349      1.0  0.05350  0.51630  0.54786  1.0000
  C   C295      1.0  0.13648  0.51836  0.57022  1.0000
  H   H350      1.0  0.40871  0.64854  0.39151  1.0000
  C   C296      1.0  0.39478  0.64719  0.60850  1.0000
  C   C297      1.0  0.18569  0.51276  0.57171  1.0000
  H   H351      1.0  0.08523  0.55641  0.56766  1.0000
  H   H352      1.0  0.22721  0.58809  0.57140  1.0000
  C   C298      1.0  0.05973  0.61138  0.52771  1.0000
  H   H353      1.0  0.28354  0.62363  0.35431  1.0000
  C   C299      1.0  0.29533  0.64289  0.40667  1.0000
  H   H354      1.0  0.32913  0.62199  0.60625  1.0000
  N   N19       1.0  0.10117  0.49269  0.56981  1.0000
  H   H355      1.0  0.41894  0.90251  0.30869  1.0000
  H   H356      1.0  0.48165  0.86259  0.30957  1.0000
  N   N20       1.0  0.02828  0.76465  0.59152  1.0000
  H   H357      1.0  0.25526  0.53304  0.57332  1.0000
  C   C300      1.0  0.51401  0.95231  0.31291  1.0000
  H   H358      1.0  0.06855  0.77362  0.56332  1.0000
  H   H359      1.0  0.05380  0.73303  0.56720  1.0000
  H   H360      1.0  0.03423  0.91444  0.55944  1.0000
  C   C301      1.0  0.07155  0.76082  0.60480  1.0000
  H   H361      1.0  0.03152  0.87221  0.60976  1.0000
  C   C302      1.0  0.04053  0.75750  0.56899  1.0000
  H   H362      1.0  0.07156  0.60759  0.51145  1.0000
  H   H363      1.0  0.01744  0.59107  0.40380  1.0000
  C   C303      1.0  0.21084  0.68787  0.29993  1.0000
  C   C304      1.0  0.25274  0.70553  0.30101  1.0000
  H   H364      1.0  0.09831  0.72615  0.31670  1.0000
  H   H365      1.0  0.06631  0.82031  0.60971  1.0000
  H   H366      1.0  0.01838  0.62506  0.58603  1.0000
  H   H367      1.0  0.06500  0.76633  0.62198  1.0000
  C   C305      1.0  0.51484  0.86979  0.36308  1.0000
  H   H368      1.0  0.09707  0.49249  0.53526  1.0000
  H   H369      1.0  0.45132  0.97325  0.68931  1.0000
  C   C306      1.0  0.40700  0.67349  0.67345  1.0000
  H   H370      1.0  0.37023  0.66941  0.67854  1.0000
  S   S88       1.0  0.42522  0.86494  0.79613  1.0000
  C   C307      1.0  0.41578  0.73946  0.92682  1.0000
  H   H371      1.0  0.14731  0.82653  0.90359  1.0000
  H   H372      1.0  0.09902  0.84899  0.92777  1.0000
  H   H373      1.0  0.29359  0.70071  0.94774  1.0000
  H   H374      1.0  0.32351  0.82868  0.89239  1.0000
  Fe  Fe42      1.0  0.13853  0.77637  0.84729  1.0000
  S   S89       1.0  0.16262  0.73110  0.83195  1.0000
  S   S90       1.0  0.08814  0.80986  0.83087  1.0000
  Fe  Fe43      1.0  0.20515  0.76956  0.88570  1.0000
  S   S91       1.0  0.23339  0.72374  0.87343  1.0000
  S   S92       1.0  0.23338  0.79730  0.91425  1.0000
  Fe  Fe44      1.0  0.23560  0.74783  0.84127  1.0000
  S   S93       1.0  0.30260  0.74458  0.82146  1.0000
  Fe  Fe45      1.0  0.15796  0.71135  0.86548  1.0000
  S   S94       1.0  0.12759  0.66512  0.87826  1.0000
  S   S95       1.0  0.21133  0.79417  0.85409  1.0000
  S   S96       1.0  0.12960  0.75607  0.88019  1.0000
  H   H375      1.0  0.46765  0.69826  0.64630  1.0000
  C   C308      1.0  0.26715  0.74293  0.93286  1.0000
  C   C309      1.0  0.12196  0.92631  0.85225  1.0000
  H   H376      1.0  0.30408  0.77073  0.88705  1.0000
  H   H377      1.0  0.25241  0.73057  0.91920  1.0000
  C   C310      1.0  0.45483  0.73711  0.70393  1.0000
  C   C311      1.0  0.38511  0.72284  0.65707  1.0000
  C   C312      1.0  0.07202  0.61216  0.87883  1.0000
  C   C313      1.0  0.09034  0.63645  0.86604  1.0000
  H   H378      1.0  0.47709  0.73475  0.65998  1.0000
  H   H379      1.0  0.08117  0.61135  0.89573  1.0000
  C   C314      1.0  0.05174  0.83220  0.84762  1.0000
  C   C315      1.0  0.07879  0.63704  0.84416  1.0000
  H   H380      1.0  0.06016  0.86810  0.90907  1.0000
  C   C316      1.0  0.40272  0.79104  0.94180  1.0000
  H   H381      1.0  0.16931  0.90707  0.92595  1.0000
  C   C317      1.0  0.39198  0.83099  0.80287  1.0000
  C   C318      1.0  0.40861  0.80038  0.79943  1.0000
  C   C319      1.0  0.38075  0.77416  0.80500  1.0000
  C   C320      1.0  0.33614  0.77821  0.81414  1.0000
  C   C321      1.0  0.31967  0.80882  0.81758  1.0000
  C   C322      1.0  0.34743  0.83499  0.81201  1.0000
  H   H382      1.0  0.44286  0.79693  0.79243  1.0000
  H   H383      1.0  0.39391  0.75061  0.80226  1.0000
  H   H384      1.0  0.28524  0.81243  0.82424  1.0000
  H   H385      1.0  0.33410  0.85853  0.81458  1.0000
  H   H386      1.0  0.49200  0.93959  0.71634  1.0000
  C   C323      1.0  0.40805  0.74984  0.73504  1.0000
  H   H387      1.0  0.14886  0.88091  0.85874  1.0000
  H   H388      1.0  0.40515  0.76039  0.75089  1.0000
  C   C324      1.0  0.38841  0.80215  0.92164  1.0000
  H   H389      1.0  0.49327  0.69798  0.67251  1.0000
  H   H390      1.0  0.10346  0.53848  0.84666  1.0000
  C   C325      1.0  0.10072  0.95343  0.86016  1.0000
  H   H391      1.0  0.41064  0.66134  0.65764  1.0000
  H   H392      1.0  0.34281  0.74772  0.87068  1.0000
  C   C326      1.0  0.40210  0.75038  0.90654  1.0000
  C   C327      1.0  0.10176  0.93113  0.89588  1.0000
  H   H393      1.0  0.48103  0.76166  0.73205  1.0000
  H   H394      1.0  0.50956  0.54624  0.68543  1.0000
  H   H395      1.0  0.03790  0.79459  0.86979  1.0000
  H   H396      1.0  0.01781  0.91029  0.77346  1.0000
  C   C328      1.0  0.09091  0.95591  0.88193  1.0000
  C   C329      1.0  0.12468  0.51643  0.84781  1.0000
  H   H397      1.0  0.02333  0.85693  0.78920  1.0000
  H   H398      1.0  0.02495  0.70795  0.86734  1.0000
  Fe  Fe46      1.0  0.49869  0.86399  0.78185  1.0000
  C   C330      1.0  0.41594  0.75974  0.94443  1.0000
  H   H399      1.0  0.34162  0.83243  0.86509  1.0000
  C   C331      1.0  0.04188  0.58904  0.87000  1.0000
  C   C332      1.0  0.01562  0.88254  0.85619  1.0000
  H   H400      1.0  0.39188  0.74862  0.65606  1.0000
  H   H401      1.0  0.09184  0.97270  0.84944  1.0000
  H   H402      1.0  0.07646  0.49364  0.88086  1.0000
  H   H403      1.0  0.38233  0.84241  0.88595  1.0000
  C   C333      1.0  0.28126  0.79124  0.95255  1.0000
  C   C334      1.0  0.50258  0.50342  0.70384  1.0000
  H   H404      1.0  0.46457  0.50372  0.70324  1.0000
  H   H405      1.0  0.14953  0.51708  0.83419  1.0000
  H   H406      1.0  0.07465  0.97726  0.88794  1.0000
  H   H407      1.0  0.04407  0.50727  0.82487  1.0000
  H   H408      1.0  0.12954  0.92446  0.83527  1.0000
  C   C335      1.0  0.48816  0.97709  0.69289  1.0000
  H   H409      1.0  0.39917  0.79850  0.85005  1.0000
  H   H410      1.0  0.18598  0.86620  0.92739  1.0000
  N   N21       1.0  0.41886  0.70746  0.67202  1.0000
  H   H411      1.0  0.08890  0.88996  0.93001  1.0000
  C   C336      1.0  0.29036  0.72601  0.94912  1.0000
  C   C337      1.0  0.37289  0.72186  0.70496  1.0000
  C   C338      1.0  0.40993  0.78987  0.86627  1.0000
  H   H412      1.0  0.33604  0.73497  0.73382  1.0000
  H   H413      1.0  0.42561  0.71503  0.92898  1.0000
  N   N22       1.0  0.37108  0.79246  0.88187  1.0000
  C   C339      1.0  0.04860  0.61389  0.83532  1.0000
  H   H414      1.0  0.03808  0.51341  0.86256  1.0000
  C   C340      1.0  0.36918  0.73551  0.72537  1.0000
  H   H415      1.0  0.40221  0.73374  0.89337  1.0000
  C   C341      1.0  0.33165  0.77213  0.87457  1.0000
  H   H416      1.0  0.40237  0.80657  0.95565  1.0000
  H   H417      1.0  0.34803  0.71957  0.66198  1.0000
  H   H418      1.0  0.38748  0.71296  0.64051  1.0000
  H   H419      1.0  0.34177  0.71098  0.69817  1.0000
  C   C342      1.0  0.35398  0.82551  0.88147  1.0000
  C   C343      1.0  0.51113  0.95795  0.70817  1.0000
  C   C344      1.0  0.45075  0.75060  0.72436  1.0000
  H   H420      1.0  0.20600  0.89028  0.90566  1.0000
  H   H421      1.0  0.31479  0.78123  0.85968  1.0000
  H   H422      1.0  0.09384  0.93454  0.91262  1.0000
  C   C345      1.0  0.41588  0.72220  0.69358  1.0000
  C   C346      1.0  0.38743  0.78198  0.90335  1.0000
  H   H423      1.0  0.05898  0.87415  0.82862  1.0000
  C   C347      1.0  0.26248  0.77559  0.93451  1.0000
  H   H424      1.0  0.44097  0.80395  0.87157  1.0000
  H   H425      1.0  0.42163  0.76515  0.86396  1.0000
  H   H426      1.0  0.14576  0.51778  0.86296  1.0000
  H   H427      1.0  0.11536  0.84011  0.88068  1.0000
  H   H428      1.0  0.17755  0.84739  0.88338  1.0000
  H   H429      1.0  0.27772  0.81651  0.95394  1.0000
  C   C348      1.0  0.46622  0.70983  0.66236  1.0000
  N   N23       1.0  0.13345  0.87670  0.90331  1.0000
  C   C349      1.0  0.14378  0.84653  0.89218  1.0000
  C   C350      1.0  0.17546  0.88550  0.91621  1.0000
  C   C351      1.0  0.09377  0.87077  0.91813  1.0000
  C   C352      1.0  0.12209  0.90270  0.88828  1.0000
  C   C353      1.0  0.13286  0.90131  0.86603  1.0000
  H   H430      1.0  0.37744  0.82642  0.92093  1.0000
  H   H431      1.0  0.43057  0.66126  0.68512  1.0000
  H   H432      1.0  0.09294  0.65539  0.83409  1.0000
  C   C354      1.0  0.04313  0.86382  0.84265  1.0000
  H   H433      1.0  0.48900  0.73864  0.69670  1.0000
  H   H434      1.0  0.02856  0.57041  0.88003  1.0000
  Fe  Fe47      1.0  0.50169  0.61901  0.63052  1.0000
  S   S97       1.0  0.51323  0.85819  0.74645  1.0000
  H   H435      1.0  0.50820  0.96959  0.76759  1.0000
  C   C355      1.0  0.02945  0.59006  0.84823  1.0000
  C   C356      1.0  0.03171  0.81907  0.86595  1.0000
  H   H436      1.0  0.03966  0.61472  0.81841  1.0000
  C   C357      1.0  0.59811  0.35142  0.08020  1.0000
  S   S98       1.0  0.71554  0.02518  0.02837  1.0000
  C   C358      1.0  0.93613  0.02165  0.19091  1.0000
  Fe  Fe48      1.0  0.61276  0.46232  0.04447  1.0000
  H   H437      1.0  0.77605  0.47149  0.00666  1.0000
  S   S99       1.0  0.55820  0.43142  0.06041  1.0000
  Fe  Fe49      1.0  0.64170  0.03700  0.03850  1.0000
  S   S100      1.0  0.61384  0.08540  0.02814  1.0000
  C   C359      1.0  0.86721  0.11269  0.20741  1.0000
  H   H438      1.0  0.89896  0.40891  0.24660  1.0000
  C   C360      1.0  0.53230  0.26187  0.08634  1.0000
  S   S101      1.0  0.68471  0.44451  0.03641  1.0000
  Fe  Fe50      1.0  0.98845  0.13620  0.27606  1.0000
  C   C361      1.0  0.85271  0.09878  0.22647  1.0000
  C   C362      1.0  0.55159  0.10524  0.05978  1.0000
  H   H439      1.0  0.87616  0.38859  0.02075  1.0000
  C   C363      1.0  0.61165  0.30657  0.04806  1.0000
  S   S102      1.0  0.79426  0.00263  0.07652  1.0000
  S   S103      1.0  0.95612  0.39058  0.15629  1.0000
  C   C364      1.0  0.80459  0.46565  0.01829  1.0000
  S   S104      1.0  0.98302  0.12002  0.24183  1.0000
  Fe  Fe51      1.0  0.96958  0.37889  0.12185  1.0000
  S   S105      1.0  0.90793  0.37349  0.09860  1.0000
  C   C365      1.0  0.57716  0.32172  0.08195  1.0000
  H   H440      1.0  0.94107  0.03806  0.13728  1.0000
  Fe  Fe52      1.0  0.71123  0.48829  0.05260  1.0000
  H   H441      1.0  0.87748  0.00351  0.13288  1.0000
  C   C366      1.0  0.79414  0.02229  0.95876  1.0000
  H   H442      1.0  0.87883  0.43802  0.21351  1.0000
  C   C367      1.0  0.96313  0.07490  0.18454  1.0000
  C   C368      1.0  0.54240  0.39235  0.02541  1.0000
  H   H443      1.0  0.61736  0.29024  0.03502  1.0000
  H   H444      1.0  0.51590  0.23798  0.08653  1.0000
  C   C369      1.0  0.57215  0.11121  0.03990  1.0000
  H   H445      1.0  0.95260  0.47537  0.06134  1.0000
  C   C370      1.0  0.55922  0.13867  0.02869  1.0000
  C   C371      1.0  0.58333  0.29830  0.06584  1.0000
  H   H446      1.0  0.57510  0.14355  0.01334  1.0000
  H   H447      1.0  0.84370  0.21153  0.25039  1.0000
  H   H448      1.0  0.64029  0.38217  0.06098  1.0000
  H   H449      1.0  0.55406  0.26384  0.10123  1.0000
  H   H450      1.0  0.56733  0.40682  0.01691  1.0000
  C   C372      1.0  0.91325  0.43128  0.20660  1.0000
  C   C373      1.0  0.81221  0.45725  0.08083  1.0000
  C   C374      1.0  0.85223  0.46188  0.09389  1.0000
  C   C375      1.0  0.88112  0.43637  0.09991  1.0000
  C   C376      1.0  0.87060  0.40591  0.09267  1.0000
  C   C377      1.0  0.83041  0.40122  0.07973  1.0000
  C   C378      1.0  0.80115  0.42668  0.07397  1.0000
  C   C379      1.0  0.90270  0.46409  0.03616  1.0000
  H   H451      1.0  0.91195  0.44036  0.10985  1.0000
  H   H452      1.0  0.82193  0.37776  0.07411  1.0000
  H   H453      1.0  0.77012  0.42259  0.06422  1.0000
  C   C380      1.0  0.53152  0.39943  0.04673  1.0000
  N   N24       1.0  0.56091  0.26682  0.06680  1.0000
  C   C381      1.0  0.93049  0.40031  0.23793  1.0000
  C   C382      1.0  0.92644  0.40152  0.04429  1.0000
  S   S106      1.0  0.60305  0.48871  0.01346  1.0000
  N   N25       1.0  0.89369  0.19686  0.22643  1.0000
  C   C383      1.0  0.85375  0.21658  0.23354  1.0000
  C   C384      1.0  0.93339  0.20122  0.24177  1.0000
  C   C385      1.0  0.90911  0.20893  0.20525  1.0000
  C   C386      1.0  0.87933  0.16329  0.22598  1.0000
  C   C387      1.0  0.88071  0.14440  0.20707  1.0000
  C   C388      1.0  0.86330  0.14846  0.24496  1.0000
  C   C389      1.0  0.85071  0.11665  0.24520  1.0000
  H   H454      1.0  0.81596  0.48822  0.02578  1.0000
  H   H455      1.0  0.86244  0.24214  0.23293  1.0000
  H   H456      1.0  0.82220  0.21251  0.22318  1.0000
  H   H457      1.0  0.92476  0.19368  0.25836  1.0000
  H   H458      1.0  0.94466  0.22628  0.24283  1.0000
  C   C390      1.0  0.95092  0.05100  0.19869  1.0000
  H   H459      1.0  0.88032  0.20784  0.19305  1.0000
  H   H460      1.0  0.92091  0.23395  0.20621  1.0000
  H   H461      1.0  0.93979  0.19545  0.19915  1.0000
  H   H462      1.0  0.89242  0.15343  0.19185  1.0000
  H   H463      1.0  0.86127  0.16118  0.25997  1.0000
  H   H464      1.0  0.58150  0.21787  0.06776  1.0000
  H   H465      1.0  0.97343  0.41986  0.06848  1.0000
  H   H466      1.0  0.86849  0.09868  0.19285  1.0000
  H   H467      1.0  0.65268  0.34254  0.03250  1.0000
  H   H468      1.0  0.92038  0.37867  0.22880  1.0000
  H   H469      1.0  0.90540  0.48457  0.22502  1.0000
  C   C391      1.0  0.76017  0.00769  0.97152  1.0000
  H   H470      1.0  0.74338  0.02086  0.98415  1.0000
  H   H471      1.0  0.84319  0.07406  0.22678  1.0000
  C   C392      1.0  0.82266  0.42087  0.99652  1.0000
  C   C393      1.0  0.62550  0.35873  0.06252  1.0000
  C   C394      1.0  0.93656  0.45681  0.05178  1.0000
  C   C395      1.0  0.63223  0.33638  0.04646  1.0000
  N   N26       1.0  0.84346  0.44856  0.00777  1.0000
  S   S107      1.0  0.70476  0.45420  0.97585  1.0000
  H   H472      1.0  0.89383  0.48862  0.03402  1.0000
  H   H473      1.0  0.92908  0.00394  0.20286  1.0000
  H   H474      1.0  0.95463  0.05485  0.21586  1.0000
  H   H475      1.0  0.78899  0.45126  0.03128  1.0000
  H   H476      1.0  0.59181  0.36945  0.09222  1.0000
  C   C396      1.0  0.01147  0.47833  0.26410  1.0000
  Fe  Fe53      1.0  0.67789  0.47486  0.00698  1.0000
  C   C397      1.0  0.99984  0.45225  0.25134  1.0000
  C   C398      1.0  0.93243  0.01557  0.16847  1.0000
  S   S108      1.0  0.65148  0.01417  0.07095  1.0000
  H   H477      1.0  0.97619  0.09720  0.19071  1.0000
  H   H478      1.0  0.96445  0.18735  0.23667  1.0000
  H   H479      1.0  0.80393  0.40517  0.00790  1.0000
  H   H480      1.0  0.56120  0.08426  0.06860  1.0000
  H   H481      1.0  0.79596  0.42805  0.98428  1.0000
  H   H482      1.0  0.84976  0.40715  0.98782  1.0000
  C   C399      1.0  0.96165  0.45314  0.23649  1.0000
  C   C400      1.0  0.87963  0.44016  0.02404  1.0000
  Fe  Fe54      1.0  0.01164  0.35486  0.16434  1.0000
  H   H483      1.0  0.00704  0.42996  0.20193  1.0000
  H   H484      1.0  0.98199  0.39149  0.20228  1.0000
  H   H485      1.0  0.92518  0.45024  0.19552  1.0000
  H   H486      1.0  0.93456  0.37723  0.04822  1.0000
  C   C401      1.0  0.99112  0.41208  0.21256  1.0000
  S   S109      1.0  0.00727  0.32755  0.19564  1.0000
  C   C402      1.0  0.52076  0.36657  0.01505  1.0000
  H   H487      1.0  0.51685  0.18094  0.02840  1.0000
  C   C403      1.0  0.52931  0.26258  0.04797  1.0000
  C   C404      1.0  0.94353  0.04084  0.15452  1.0000
  C   C405      1.0  0.86419  0.46929  0.99122  1.0000
  H   H488      1.0  0.83993  0.10574  0.26012  1.0000
  C   C406      1.0  0.89248  0.40849  0.02863  1.0000
  H   H489      1.0  0.55557  0.31806  0.09586  1.0000
  H   H490      1.0  0.61747  0.24183  0.05120  1.0000
  H   H491      1.0  0.62292  0.24488  0.07987  1.0000
  H   H492      1.0  0.90620  0.41014  0.19645  1.0000
  C   C407      1.0  0.95905  0.06993  0.16248  1.0000
  H   H493      1.0  0.53411  0.04486  0.01798  1.0000
  N   N27       1.0  0.94920  0.42493  0.22353  1.0000
  H   H494      1.0  0.52912  0.36142  0.99851  1.0000
  C   C408      1.0  0.94846  0.42559  0.05580  1.0000
  H   H495      1.0  0.83818  0.47510  0.97830  1.0000
  H   H496      1.0  0.89481  0.45779  0.98349  1.0000
  C   C409      1.0  0.59732  0.24185  0.06638  1.0000
  H   H497      1.0  0.96870  0.08854  0.15149  1.0000
  H   H498      1.0  0.95692  0.39303  0.25022  1.0000
  C   C410      1.0  0.93493  0.48146  0.23579  1.0000
  H   H499      1.0  0.86105  0.48537  0.09936  1.0000
  H   H500      1.0  0.54824  0.26321  0.03247  1.0000
  S   S110      1.0  0.99896  0.47398  0.16547  1.0000
  C   C411      1.0  0.52612  0.15989  0.03717  1.0000
  S   S111      1.0  0.77796  0.49045  0.07312  1.0000
  Fe  Fe55      1.0  0.72296  0.99861  0.05947  1.0000
  Fe  Fe56      1.0  0.01532  0.42501  0.15310  1.0000
  H   H501      1.0  0.82474  0.99648  0.00864  1.0000
  H   H502      1.0  0.84532  0.99832  0.15727  1.0000
  S   S112      1.0  0.61090  0.99363  0.02277  1.0000
  H   H503      1.0  0.93476  0.07977  0.29050  1.0000
  H   H504      1.0  0.80349  0.04664  0.96174  1.0000
  H   H505      1.0  0.01230  0.27717  0.16377  1.0000
  C   C412      1.0  0.51896  0.12672  0.06842  1.0000
  H   H506      1.0  0.52674  0.28447  0.32225  1.0000
  C   C413      1.0  0.85010  0.09744  0.61405  1.0000
  C   C414      1.0  0.55196  0.14296  0.38168  1.0000
  H   H507      1.0  0.65529  0.04222  0.61982  1.0000
  C   C415      1.0  0.66176  0.35570  0.34791  1.0000
  H   H508      1.0  0.83964  0.09661  0.45814  1.0000
  Fe  Fe57      1.0  0.63334  0.04939  0.35177  1.0000
  C   C416      1.0  0.56392  0.99515  0.30062  1.0000
  S   S113      1.0  0.57552  0.07737  0.33545  1.0000
  H   H509      1.0  0.53032  0.28572  0.36171  1.0000
  S   S114      1.0  0.63236  0.42640  0.38225  1.0000
  Fe  Fe58      1.0  0.73556  0.03049  0.34659  1.0000
  S   S115      1.0  0.80271  0.03051  0.32723  1.0000
  C   C417      1.0  0.78587  0.01624  0.43033  1.0000
  S   S116      1.0  0.70095  0.07059  0.36391  1.0000
  H   H510      1.0  0.80129  0.03724  0.49076  1.0000
  S   S117      1.0  0.87878  0.03409  0.53883  1.0000
  H   H511      1.0  0.73133  0.05620  0.47028  1.0000
  Fe  Fe59      1.0  0.95249  0.45751  0.55176  1.0000
  H   H512      1.0  0.86002  0.35414  0.52288  1.0000
  H   H513      1.0  0.88699  0.03480  0.30311  1.0000
  Fe  Fe60      1.0  0.94841  0.01675  0.55148  1.0000
  C   C418      1.0  0.83159  0.01377  0.46355  1.0000
  C   C419      1.0  0.57094  0.37648  0.38272  1.0000
  C   C420      1.0  0.99955  0.27825  0.51719  1.0000
  C   C421      1.0  0.86401  0.08657  0.44675  1.0000
  S   S118      1.0  0.87413  0.45418  0.54812  1.0000
  H   H514      1.0  0.93338  0.25672  0.52408  1.0000
  S   S119      1.0  0.00439  0.04857  0.56617  1.0000
  H   H515      1.0  0.69147  0.33557  0.37646  1.0000
  C   C422      1.0  0.90289  0.08410  0.29934  1.0000
  C   C423      1.0  0.99228  0.12969  0.53196  1.0000
  H   H516      1.0  0.95878  0.08400  0.53175  1.0000
  S   S120      1.0  0.99123  0.41690  0.56767  1.0000
  H   H517      1.0  0.52576  0.33551  0.38284  1.0000
  H   H518      1.0  0.57450  0.43134  0.34313  1.0000
  C   C424      1.0  0.56378  0.41063  0.35188  1.0000
  H   H519      1.0  0.59842  0.21820  0.33934  1.0000
  C   C425      1.0  0.55403  0.11026  0.34966  1.0000
  H   H520      1.0  0.78173  0.01014  0.41365  1.0000
  C   C426      1.0  0.57015  0.11704  0.37044  1.0000
  H   H521      1.0  0.85101  0.01441  0.39277  1.0000
  H   H522      1.0  0.59639  0.10216  0.37794  1.0000
  C   C427      1.0  0.58516  0.40363  0.37162  1.0000
  C   C428      1.0  0.64403  0.30319  0.36047  1.0000
  H   H523      1.0  0.97462  0.39486  0.51635  1.0000
  S   S121      1.0  0.62216  0.01817  0.38044  1.0000
  H   H524      1.0  0.62423  0.37075  0.31975  1.0000
  C   C429      1.0  0.83408  0.06367  0.31788  1.0000
  C   C430      1.0  0.84377  0.13048  0.61606  1.0000
  C   C431      1.0  0.85067  0.08300  0.42520  1.0000
  N   N28       1.0  0.86763  0.06317  0.38734  1.0000
  C   C432      1.0  0.84721  0.12014  0.31506  1.0000
  C   C433      1.0  0.81971  0.09458  0.32208  1.0000
  H   H525      1.0  0.85933  0.02431  0.36508  1.0000
  H   H526      1.0  0.88738  0.30370  0.51672  1.0000
  H   H527      1.0  0.78755  0.09879  0.33071  1.0000
  H   H528      1.0  0.89343  0.12272  0.57833  1.0000
  S   S122      1.0  0.70387  0.05005  0.42586  1.0000
  H   H529      1.0  0.96797  0.37945  0.47885  1.0000
  H   H530      1.0  0.95054  0.04709  0.40749  1.0000
  Fe  Fe61      1.0  0.69311  0.03613  0.39109  1.0000
  C   C434      1.0  0.98552  0.09866  0.53915  1.0000
  S   S123      1.0  0.73305  0.48568  0.37854  1.0000
  C   C435      1.0  0.66839  0.33164  0.36276  1.0000
  S   S124      1.0  0.84715  0.45315  0.48759  1.0000
  H   H531      1.0  0.58735  0.37087  0.39797  1.0000
  C   C436      1.0  0.69132  0.07704  0.60114  1.0000
  H   H532      1.0  0.63852  0.23867  0.35634  1.0000
  C   C437      1.0  0.71145  0.02137  0.60140  1.0000
  C   C438      1.0  0.74819  0.02646  0.58688  1.0000
  C   C439      1.0  0.75574  0.05691  0.57914  1.0000
  C   C440      1.0  0.72775  0.08210  0.58642  1.0000
  C   C441      1.0  0.75216  0.03481  0.44042  1.0000
  H   H533      1.0  0.83608  0.14398  0.31840  1.0000
  H   H534      1.0  0.78323  0.06103  0.56767  1.0000
  H   H535      1.0  0.73458  0.10571  0.58077  1.0000
  H   H536      1.0  0.93663  0.07419  0.37515  1.0000
  C   C442      1.0  0.92553  0.05826  0.41795  1.0000
  S   S125      1.0  0.88384  0.00238  0.47667  1.0000
  C   C443      1.0  0.89035  0.04985  0.60030  1.0000
  H   H537      1.0  0.91475  0.08599  0.56899  1.0000
  C   C444      1.0  0.88897  0.11498  0.30372  1.0000
  C   C445      1.0  0.82573  0.00612  0.44177  1.0000
  H   H538      1.0  0.81578  0.09099  0.42101  1.0000
  S   S126      1.0  0.92304  0.14738  0.29513  1.0000
  C   C446      1.0  0.63071  0.35143  0.33073  1.0000
  H   H539      1.0  0.53560  0.24303  0.32133  1.0000
  C   C447      1.0  0.55454  0.26525  0.36066  1.0000
  H   H540      1.0  0.64950  0.28558  0.37271  1.0000
  C   C448      1.0  0.99709  0.33308  0.50674  1.0000
  S   S127      1.0  0.52776  0.07958  0.61479  1.0000
  C   C449      1.0  0.89935  0.08153  0.37336  1.0000
  S   S128      1.0  0.66008  0.10986  0.61147  1.0000
  C   C450      1.0  0.79018  0.46784  0.45323  1.0000
  H   H541      1.0  0.85271  0.09176  0.57169  1.0000
  C   C451      1.0  0.81867  0.07285  0.38225  1.0000
  C   C452      1.0  0.55454  0.26598  0.32222  1.0000
  Fe  Fe62      1.0  0.65620  0.47564  0.37245  1.0000
  C   C453      1.0  0.93498  0.09495  0.61149  1.0000
  C   C454      1.0  0.51764  0.16232  0.37224  1.0000
  H   H542      1.0  0.90878  0.02079  0.38246  1.0000
  C   C455      1.0  0.01307  0.08687  0.55601  1.0000
  H   H543      1.0  0.79285  0.05974  0.39215  1.0000
  H   H544      1.0  0.78334  0.44282  0.45205  1.0000
  H   H545      1.0  0.96565  0.08511  0.60271  1.0000
  C   C456      1.0  0.75747  0.04198  0.46233  1.0000
  H   H546      1.0  0.92053  0.35476  0.46971  1.0000
  H   H547      1.0  0.67924  0.37820  0.35020  1.0000
  N   N29       1.0  0.92128  0.36332  0.50377  1.0000
  C   C457      1.0  0.93041  0.37354  0.48143  1.0000
  C   C458      1.0  0.86957  0.36029  0.50611  1.0000
  C   C459      1.0  0.93721  0.38852  0.51866  1.0000
  C   C460      1.0  0.94739  0.33388  0.50844  1.0000
  H   H548      1.0  0.53284  0.24344  0.35994  1.0000
  C   C461      1.0  0.93825  0.06168  0.43958  1.0000
  S   S129      1.0  0.96260  0.47565  0.51847  1.0000
  H   H549      1.0  0.80932  0.06800  0.36518  1.0000
  H   H550      1.0  0.57524  0.26824  0.30725  1.0000
  H   H551      1.0  0.57347  0.02054  0.30239  1.0000
  H   H552      1.0  0.91009  0.39517  0.47721  1.0000
  C   C462      1.0  0.61773  0.24094  0.34124  1.0000
  H   H553      1.0  0.67844  0.48082  0.49936  1.0000
  H   H554      1.0  0.85121  0.38288  0.50238  1.0000
  H   H555      1.0  0.58059  0.32227  0.31532  1.0000
  C   C463      1.0  0.95087  0.27817  0.51911  1.0000
  H   H556      1.0  0.91688  0.41061  0.51623  1.0000
  H   H557      1.0  0.89360  0.03891  0.61645  1.0000
  H   H558      1.0  0.92077  0.04115  0.59093  1.0000
  C   C464      1.0  0.82130  0.47932  0.46902  1.0000
  C   C465      1.0  0.60578  0.32321  0.32839  1.0000
  S   S130      1.0  0.66854  0.01146  0.33240  1.0000
  H   H559      1.0  0.64281  0.24301  0.32772  1.0000
  C   C466      1.0  0.79697  0.03126  0.47396  1.0000
  H   H560      1.0  0.81337  0.09855  0.38469  1.0000
  C   C467      1.0  0.88096  0.06828  0.41015  1.0000
  H   H561      1.0  0.57475  0.26425  0.37599  1.0000
  C   C468      1.0  0.87566  0.05862  0.30646  1.0000
  H   H562      1.0  0.56440  0.14787  0.39782  1.0000
  C   C469      1.0  0.87195  0.02928  0.38175  1.0000
  H   H563      1.0  0.55548  0.01461  0.34161  1.0000
  H   H564      1.0  0.74202  0.47975  0.42745  1.0000
  C   C470      1.0  0.88746  0.09692  0.57924  1.0000
  N   N30       1.0  0.58511  0.26818  0.34167  1.0000
  H   H565      1.0  0.89002  0.07848  0.35604  1.0000
  H   H566      1.0  0.93329  0.38126  0.53574  1.0000
  C   C471      1.0  0.81645  0.07784  0.62422  1.0000
  H   H567      1.0  0.89746  0.10715  0.37710  1.0000
  C   C472      1.0  0.90748  0.07570  0.45396  1.0000
  N   N31       1.0  0.88984  0.08478  0.60155  1.0000
  H   H568      1.0  0.97042  0.13888  0.51912  1.0000
  H   H569      1.0  0.74031  0.47374  0.52752  1.0000
  H   H570      1.0  0.85817  0.04054  0.59214  1.0000
  C   C473      1.0  0.61190  0.29806  0.34320  1.0000
  Fe  Fe63      1.0  0.88409  0.47615  0.51582  1.0000
  C   C474      1.0  0.68293  0.04642  0.60840  1.0000
  C   C475      1.0  0.53612  0.35630  0.37413  1.0000
  C   C476      1.0  0.92490  0.30548  0.51480  1.0000
  H   H571      1.0  0.85477  0.34231  0.49490  1.0000
  H   H572      1.0  0.91673  0.07717  0.47087  1.0000
  C   C477      1.0  0.52954  0.39013  0.34311  1.0000
  H   H573      1.0  0.81745  0.05245  0.62324  1.0000
  Fe  Fe64      1.0  0.84845  0.99381  0.55769  1.0000
  Fe  Fe65      1.0  0.88982  0.99800  0.51273  1.0000
  C   C478      1.0  0.51991  0.12976  0.34013  1.0000
  S   S131      1.0  0.78450  0.99421  0.57961  1.0000
  S   S132      1.0  0.73275  0.99759  0.37476  1.0000
  H   H574      1.0  0.86798  0.14681  0.60880  1.0000
  C   C479      1.0  0.76676  0.48873  0.43927  1.0000
  H   H575      1.0  0.70533  0.99792  0.60742  1.0000
  H   H576      1.0  0.93940  0.12094  0.61134  1.0000
  H   H577      1.0  0.97156  0.05261  0.44544  1.0000
  H   H578      1.0  0.84960  0.48914  0.37729  1.0000
  C   C480      1.0  0.51574  0.36278  0.35410  1.0000
  H   H579      1.0  0.51803  0.22604  0.45667  1.0000
  H   H580      1.0  0.85231  0.99239  0.43374  1.0000
  S   S133      1.0  0.59094  0.38462  0.74303  1.0000
  S   S134      1.0  0.54780  0.32676  0.77282  1.0000
  Fe  Fe66      1.0  0.58230  0.37418  0.77814  1.0000
  S   S135      1.0  0.63379  0.38234  0.80592  1.0000
  Fe  Fe67      1.0  0.55126  0.33909  0.73756  1.0000
  S   S136      1.0  0.57502  0.31121  0.70833  1.0000
  S   S137      1.0  0.57563  0.09504  0.66261  1.0000
  N   N32       1.0  0.88098  0.37104  0.82475  1.0000
  H   H581      1.0  0.66805  0.39206  0.68282  1.0000
  H   H582      1.0  0.99985  0.41801  0.83844  1.0000
  S   S138      1.0  0.85773  0.46006  0.87290  1.0000
  S   S139      1.0  0.81934  0.46629  0.80996  1.0000
  H   H583      1.0  0.58989  0.34961  0.66584  1.0000
  H   H584      1.0  0.60565  0.43648  0.78206  1.0000
  H   H585      1.0  0.67301  0.41802  0.65144  1.0000
  Fe  Fe68      1.0  0.93659  0.45923  0.87090  1.0000
  C   C481      1.0  0.61997  0.48782  0.64196  1.0000
  Fe  Fe69      1.0  0.89077  0.99947  0.89853  1.0000
  S   S140      1.0  0.85643  0.02541  0.92585  1.0000
  H   H586      1.0  0.76256  0.43701  0.84341  1.0000
  S   S141      1.0  0.89714  0.02503  0.86714  1.0000
  C   C482      1.0  0.92820  0.32378  0.81357  1.0000
  C   C483      1.0  0.76144  0.46201  0.94102  1.0000
  H   H587      1.0  0.63110  0.37089  0.65005  1.0000
  C   C484      1.0  0.60248  0.42940  0.66259  1.0000
  H   H588      1.0  0.79124  0.99833  0.89240  1.0000
  C   C485      1.0  0.53094  0.25528  0.71898  1.0000
  Fe  Fe70      1.0  0.52949  0.13816  0.66312  1.0000
  H   H589      1.0  0.91547  0.32612  0.79726  1.0000
  S   S142      1.0  0.93922  0.47679  0.83714  1.0000
  H   H590      1.0  0.74939  0.03501  0.91496  1.0000
  H   H591      1.0  0.57131  0.45664  0.76222  1.0000
  C   C486      1.0  0.78998  0.47921  0.92694  1.0000
  H   H592      1.0  0.98884  0.08147  0.93812  1.0000
  H   H593      1.0  0.93662  0.40020  0.81281  1.0000
  H   H594      1.0  0.58538  0.07831  0.71461  1.0000
  N   N33       1.0  0.59501  0.39901  0.67373  1.0000
  C   C487      1.0  0.68581  0.40525  0.80653  1.0000
  C   C488      1.0  0.70642  0.41672  0.78782  1.0000
  C   C489      1.0  0.74733  0.43537  0.78917  1.0000
  C   C490      1.0  0.76785  0.44286  0.80919  1.0000
  C   C491      1.0  0.74733  0.43132  0.82788  1.0000
  C   C492      1.0  0.70667  0.41246  0.82652  1.0000
  H   H595      1.0  0.69106  0.41103  0.77233  1.0000
  H   H596      1.0  0.76317  0.44409  0.77463  1.0000
  C   C493      1.0  0.63268  0.39407  0.69002  1.0000
  H   H597      1.0  0.69089  0.40371  0.84108  1.0000
  C   C494      1.0  0.56011  0.27104  0.70463  1.0000
  C   C495      1.0  0.57671  0.25488  0.68649  1.0000
  C   C496      1.0  0.56417  0.22322  0.68269  1.0000
  C   C497      1.0  0.54935  0.39705  0.68502  1.0000
  H   H598      1.0  0.59953  0.26685  0.67538  1.0000
  H   H599      1.0  0.57769  0.21086  0.66885  1.0000
  S   S143      1.0  0.97811  0.41837  0.88416  1.0000
  H   H600      1.0  0.98119  0.14279  0.85407  1.0000
  H   H601      1.0  0.92328  0.35437  0.86450  1.0000
  C   C498      1.0  0.64544  0.43545  0.65191  1.0000
  C   C499      1.0  0.56493  0.09479  0.72485  1.0000
  Fe  Fe71      1.0  0.97160  0.00761  0.86726  1.0000
  H   H602      1.0  0.79230  0.02897  0.87265  1.0000
  H   H603      1.0  0.68753  0.46876  0.63431  1.0000
  C   C500      1.0  0.97738  0.29499  0.83863  1.0000
  C   C501      1.0  0.90144  0.39120  0.80780  1.0000
  H   H604      1.0  0.81943  0.34235  0.82898  1.0000
  C   C502      1.0  0.57508  0.47896  0.71558  1.0000
  Fe  Fe72      1.0  0.86066  0.48114  0.83984  1.0000
  C   C503      1.0  0.96303  0.31483  0.85513  1.0000
  H   H605      1.0  0.97716  0.31151  0.87121  1.0000
  H   H606      1.0  0.66149  0.03478  0.86855  1.0000
  H   H607      1.0  0.56476  0.11784  0.71633  1.0000
  C   C504      1.0  0.72707  0.04236  0.90108  1.0000
  C   C505      1.0  0.87084  0.39169  0.84341  1.0000
  C   C506      1.0  0.56812  0.45370  0.66197  1.0000
  H   H608      1.0  0.59349  0.46033  0.72388  1.0000
  H   H609      1.0  0.84680  0.41131  0.83886  1.0000
  H   H610      1.0  0.54638  0.41567  0.69752  1.0000
  H   H611      1.0  0.59115  0.04477  0.74369  1.0000
  H   H612      1.0  0.63413  0.46045  0.76234  1.0000
  H   H613      1.0  0.57944  0.02404  0.67865  1.0000
  H   H614      1.0  0.90352  0.40270  0.84998  1.0000
  C   C507      1.0  0.65405  0.46434  0.64192  1.0000
  N   N34       1.0  0.51651  0.08289  0.72843  1.0000
  H   H615      1.0  0.62727  0.37180  0.69914  1.0000
  H   H616      1.0  0.00245  0.27632  0.84190  1.0000
  H   H617      1.0  0.75526  0.43722  0.93809  1.0000
  H   H618      1.0  0.69782  0.99966  0.92646  1.0000
  H   H619      1.0  0.70245  0.01580  0.85086  1.0000
  N   N35       1.0  0.72357  0.01723  0.88446  1.0000
  H   H620      1.0  0.64075  0.46477  0.81272  1.0000
  H   H621      1.0  0.90551  0.37855  0.79232  1.0000
  H   H622      1.0  0.51787  0.26747  0.73298  1.0000
  H   H623      1.0  0.85318  0.37860  0.85651  1.0000
  C   C508      1.0  0.77188  0.00833  0.87840  1.0000
  C   C509      1.0  0.91359  0.34489  0.82993  1.0000
  H   H624      1.0  0.87883  0.41201  0.80425  1.0000
  C   C510      1.0  0.51837  0.22367  0.71516  1.0000
  C   C511      1.0  0.80544  0.14308  0.62700  1.0000
  Fe  Fe73      1.0  0.51945  0.40651  0.74452  1.0000
  Fe  Fe74      1.0  0.58895  0.10732  0.62791  1.0000
  C   C512      1.0  0.69947  0.03095  0.86539  1.0000
  H   H625      1.0  0.80970  0.37721  0.81326  1.0000
  H   H626      1.0  0.80047  0.16835  0.62781  1.0000
  C   C513      1.0  0.77271  0.12322  0.63645  1.0000
  H   H627      1.0  0.69180  0.04914  0.90708  1.0000
  H   H628      1.0  0.74429  0.06399  0.89482  1.0000
  C   C514      1.0  0.95983  0.29936  0.81791  1.0000
  H   H629      1.0  0.63382  0.41389  0.70177  1.0000
  H   H630      1.0  0.97124  0.08487  0.85716  1.0000
  H   H631      1.0  0.80556  0.46760  0.91333  1.0000
  C   C515      1.0  0.01187  0.12788  0.85528  1.0000
  H   H632      1.0  0.83930  0.34435  0.80176  1.0000
  C   C516      1.0  0.00609  0.09503  0.85710  1.0000
  C   C517      1.0  0.55623  0.03582  0.74636  1.0000
  C   C518      1.0  0.93179  0.33952  0.85097  1.0000
  C   C519      1.0  0.60283  0.45879  0.77284  1.0000
  C   C520      1.0  0.59643  0.37279  0.65797  1.0000
  C   C521      1.0  0.81565  0.00570  0.94205  1.0000
  C   C522      1.0  0.83553  0.35813  0.81683  1.0000
  H   H633      1.0  0.53450  0.45162  0.66972  1.0000
  H   H634      1.0  0.56929  0.37598  0.64517  1.0000
  C   C523      1.0  0.56012  0.00592  0.68695  1.0000
  C   C524      1.0  0.77854  0.09073  0.63529  1.0000
  H   H635      1.0  0.74201  0.13291  0.64424  1.0000
  H   H636      1.0  0.54508  0.37413  0.69347  1.0000
  H   H637      1.0  0.58413  0.09868  0.74028  1.0000
  C   C525      1.0  0.55339  0.00668  0.75667  1.0000
  H   H638      1.0  0.97110  0.28378  0.80514  1.0000
  H   H639      1.0  0.75218  0.07540  0.64216  1.0000
  H   H640      1.0  0.93767  0.08695  0.62846  1.0000
  H   H641      1.0  0.71515  0.05394  0.86071  1.0000
  S   S144      1.0  0.54823  0.15290  0.62979  1.0000
  H   H642      1.0  0.58518  0.99420  0.76128  1.0000
  C   C526      1.0  0.64104  0.48584  0.80208  1.0000
  H   H643      1.0  0.56005  0.46248  0.81187  1.0000
  N   N36       1.0  0.59966  0.48638  0.78731  1.0000
  H   H644      1.0  0.67473  0.48439  0.79322  1.0000
  C   C527      1.0  0.57694  0.48233  0.65168  1.0000
  S   S145      1.0  0.51795  0.16775  0.69312  1.0000
  H   H645      1.0  0.00734  0.10210  0.90217  1.0000
  C   C528      1.0  0.01060  0.10234  0.93663  1.0000
  C   C529      1.0  0.01393  0.39414  0.86822  1.0000
  C   C530      1.0  0.55707  0.48292  0.80072  1.0000
  C   C531      1.0  0.52598  0.47926  0.71495  1.0000
  C   C532      1.0  0.53479  0.20753  0.69700  1.0000
  H   H646      1.0  0.51902  0.39913  0.67372  1.0000
  H   H647      1.0  0.52481  0.47820  0.79103  1.0000
  C   C533      1.0  0.74041  0.47676  0.95866  1.0000
  H   H648      1.0  0.76586  0.91653  0.01523  1.0000
  S   S146      1.0  0.70866  0.51773  0.02264  1.0000
  H   H649      1.0  0.88139  0.96661  0.18716  1.0000
  Fe  Fe75      1.0  0.62545  0.96995  0.05431  1.0000
  H   H650      1.0  0.68131  0.62349  0.07353  1.0000
  S   S147      1.0  0.57399  0.93645  0.06976  1.0000
  Fe  Fe76      1.0  0.63425  0.53006  0.03142  1.0000
  S   S148      1.0  0.61098  0.58027  0.02324  1.0000
  H   H651      1.0  0.71513  0.69283  0.08032  1.0000
  C   C534      1.0  0.57049  0.72401  0.06100  1.0000
  Fe  Fe77      1.0  0.98131  0.88545  0.13005  1.0000
  S   S149      1.0  0.69722  0.95314  0.04531  1.0000
  C   C535      1.0  0.94640  0.50719  0.24893  1.0000
  C   C536      1.0  0.60001  0.69820  0.06455  1.0000
  H   H652      1.0  0.99475  0.52611  0.27246  1.0000
  H   H653      1.0  0.51697  0.67654  0.02705  1.0000
  C   C537      1.0  0.83598  0.92250  0.02935  1.0000
  C   C538      1.0  0.98480  0.50571  0.26291  1.0000
  H   H654      1.0  0.73232  0.52050  0.97576  1.0000
  C   C539      1.0  0.74859  0.50883  0.96231  1.0000
  C   C540      1.0  0.52466  0.65434  0.03474  1.0000
  H   H655      1.0  0.94674  0.94844  0.13912  1.0000
  S   S150      1.0  0.90400  0.88819  0.12012  1.0000
  H   H656      1.0  0.82724  0.58433  0.26114  1.0000
  H   H657      1.0  0.65253  0.65406  0.08815  1.0000
  H   H658      1.0  0.55887  0.76668  0.04316  1.0000
  S   S151      1.0  0.70567  0.95727  0.98364  1.0000
  H   H659      1.0  0.92446  0.94376  0.01756  1.0000
  H   H660      1.0  0.84501  0.64092  0.25748  1.0000
  H   H661      1.0  0.53808  0.72612  0.06991  1.0000
  H   H662      1.0  0.74544  0.66009  0.06834  1.0000
  H   H663      1.0  0.55754  0.57596  0.06333  1.0000
  H   H664      1.0  0.53452  0.87757  0.08312  1.0000
  C   C541      1.0  0.56755  0.60438  0.03519  1.0000
  C   C542      1.0  0.80315  0.60159  0.26761  1.0000
  C   C543      1.0  0.55523  0.63273  0.02496  1.0000
  S   S152      1.0  0.63954  0.50464  0.06302  1.0000
  H   H665      1.0  0.57026  0.63833  0.00955  1.0000
  C   C544      1.0  0.56114  0.90156  0.05537  1.0000
  C   C545      1.0  0.56912  0.89941  0.03331  1.0000
  H   H666      1.0  0.98943  0.97172  0.15335  1.0000
  H   H667      1.0  0.58578  0.91871  0.02500  1.0000
  Fe  Fe78      1.0  0.68520  0.98055  0.01498  1.0000
  C   C546      1.0  0.82470  0.96957  0.08702  1.0000
  C   C547      1.0  0.80080  0.94294  0.09428  1.0000
  C   C548      1.0  0.82570  0.91829  0.10433  1.0000
  C   C549      1.0  0.87482  0.91958  0.10676  1.0000
  C   C550      1.0  0.89897  0.94567  0.09870  1.0000
  C   C551      1.0  0.87391  0.97077  0.08923  1.0000
  H   H668      1.0  0.76295  0.94171  0.09271  1.0000
  H   H669      1.0  0.80668  0.89811  0.11030  1.0000
  H   H670      1.0  0.93686  0.94661  0.09991  1.0000
  H   H671      1.0  0.97293  0.52814  0.18953  1.0000
  H   H672      1.0  0.81466  0.98309  0.03554  1.0000
  C   C552      1.0  0.58203  0.74678  0.04591  1.0000
  H   H673      1.0  0.63205  0.76183  0.02260  1.0000
  C   C553      1.0  0.55436  0.87255  0.02180  1.0000
  H   H674      1.0  0.68345  0.55708  0.28972  1.0000
  N   N37       1.0  0.67497  0.66768  0.05641  1.0000
  C   C554      1.0  0.68356  0.65120  0.03575  1.0000
  C   C555      1.0  0.72035  0.67965  0.06503  1.0000
  C   C556      1.0  0.64242  0.69447  0.05293  1.0000
  C   C557      1.0  0.65329  0.71827  0.03777  1.0000
  C   C558      1.0  0.62336  0.74394  0.03432  1.0000
  C   C559      1.0  0.53138  0.84776  0.03224  1.0000
  H   H675      1.0  0.70346  0.66578  0.02420  1.0000
  H   H676      1.0  0.70389  0.62901  0.03798  1.0000
  H   H677      1.0  0.64991  0.64445  0.02779  1.0000
  H   H678      1.0  0.73792  0.69589  0.05368  1.0000
  H   H679      1.0  0.87604  0.87570  0.07063  1.0000
  H   H680      1.0  0.68507  0.71725  0.02848  1.0000
  C   C560      1.0  0.85252  0.88463  0.05823  1.0000
  H   H681      1.0  0.64437  0.60440  0.27493  1.0000
  C   C561      1.0  0.65707  0.64394  0.07180  1.0000
  H   H682      1.0  0.79675  0.85284  0.06635  1.0000
  H   H683      1.0  0.90560  0.98211  0.00945  1.0000
  C   C562      1.0  0.74751  0.97639  0.96766  1.0000
  H   H684      1.0  0.90058  0.93699  0.16885  1.0000
  H   H685      1.0  0.00792  0.55454  0.22152  1.0000
  C   C563      1.0  0.79108  0.90820  0.02703  1.0000
  C   C564      1.0  0.84774  0.93934  0.99263  1.0000
  C   C565      1.0  0.54810  0.59756  0.05519  1.0000
  N   N38       1.0  0.91797  0.98461  0.15954  1.0000
  H   H686      1.0  0.89969  0.97092  0.03694  1.0000
  H   H687      1.0  0.55996  0.87130  0.00466  1.0000
  C   C566      1.0  0.80782  0.87169  0.05585  1.0000
  C   C567      1.0  0.86650  0.90986  0.04538  1.0000
  H   H688      1.0  0.92618  0.52877  0.24790  1.0000
  C   C568      1.0  0.81322  0.63350  0.26550  1.0000
  C   C569      1.0  0.89696  0.96194  0.02013  1.0000
  H   H689      1.0  0.81204  0.93158  0.98751  1.0000
  H   H690      1.0  0.94304  0.95596  0.18581  1.0000
  C   C570      1.0  0.81561  0.97553  0.01846  1.0000
  N   N39       1.0  0.84924  0.94931  0.01548  1.0000
  C   C571      1.0  0.91041  0.96014  0.17618  1.0000
  H   H691      1.0  0.87209  0.91935  0.98971  1.0000
  H   H692      1.0  0.85743  0.95895  0.98166  1.0000
  C   C572      1.0  0.87348  0.98810  0.14716  1.0000
  H   H693      1.0  0.58816  0.68132  0.07626  1.0000
  H   H694      1.0  0.62290  0.63407  0.06626  1.0000
  S   S153      1.0  0.00417  0.90020  0.16327  1.0000
  Fe  Fe79      1.0  0.98961  0.62595  0.28091  1.0000
  S   S154      1.0  0.00151  0.61410  0.24620  1.0000
  C   C573      1.0  0.00458  0.51881  0.19685  1.0000
  H   H695      1.0  0.90103  0.91931  0.04867  1.0000
  H   H696      1.0  0.74211  0.87360  0.03858  1.0000
  C   C574      1.0  0.53983  0.87623  0.06596  1.0000
  H   H697      1.0  0.92542  0.55984  0.28813  1.0000
  C   C575      1.0  0.52485  0.84942  0.05444  1.0000
  H   H698      1.0  0.77924  0.96895  0.01379  1.0000
  H   H699      1.0  0.00210  0.61188  0.16717  1.0000
  C   C576      1.0  0.76370  0.59175  0.27900  1.0000
  H   H700      1.0  0.86049  0.96500  0.14093  1.0000
  C   C577      1.0  0.95482  0.97265  0.14498  1.0000
  C   C578      1.0  0.77717  0.88340  0.04025  1.0000
  H   H701      1.0  0.95916  0.98739  0.13045  1.0000
  H   H702      1.0  0.00701  0.58651  0.18998  1.0000
  H   H703      1.0  0.75915  0.56662  0.28061  1.0000
  H   H704      1.0  0.89270  0.99124  0.08359  1.0000
  C   C579      1.0  0.74336  0.64631  0.28551  1.0000
  H   H705      1.0  0.79136  0.68065  0.27264  1.0000
  C   C580      1.0  0.78315  0.65583  0.27425  1.0000
  C   C581      1.0  0.51717  0.61916  0.06491  1.0000
  H   H706      1.0  0.87622  0.49218  0.99798  1.0000
  H   H707      1.0  0.55191  0.99113  0.28378  1.0000
  C   C582      1.0  0.73298  0.61394  0.28869  1.0000
  H   H708      1.0  0.64646  0.64097  0.28945  1.0000
  H   H709      1.0  0.01471  0.62810  0.19283  1.0000
  C   C583      1.0  0.64811  0.61496  0.29124  1.0000
  H   H710      1.0  0.59724  0.98199  0.30299  1.0000
  C   C584      1.0  0.95454  0.56393  0.39758  1.0000
  S   S155      1.0  0.64956  0.60981  0.58541  1.0000
  C   C585      1.0  0.56304  0.61043  0.35815  1.0000
  H   H711      1.0  0.70247  0.96697  0.47347  1.0000
  C   C586      1.0  0.67808  0.51147  0.55113  1.0000
  Fe  Fe80      1.0  0.63678  0.54381  0.35932  1.0000
  C   C587      1.0  0.77436  0.52118  0.44113  1.0000
  S   S156      1.0  0.58560  0.57813  0.34362  1.0000
  C   C588      1.0  0.99172  0.58371  0.39182  1.0000
  S   S157      1.0  0.65078  0.92859  0.36125  1.0000
  Fe  Fe81      1.0  0.73124  0.51428  0.34829  1.0000
  H   H712      1.0  0.65840  0.66696  0.61143  1.0000
  H   H713      1.0  0.65832  0.56361  0.31530  1.0000
  S   S158      1.0  0.71154  0.55900  0.36492  1.0000
  C   C589      1.0  0.94474  0.83357  0.58296  1.0000
  S   S159      1.0  0.87533  0.52573  0.52792  1.0000
  C   C590      1.0  0.54176  0.63543  0.34696  1.0000
  Fe  Fe82      1.0  0.92592  0.94684  0.54318  1.0000
  C   C591      1.0  0.60735  0.54027  0.55977  1.0000
  S   S160      1.0  0.94295  0.89423  0.54188  1.0000
  Fe  Fe83      1.0  0.95370  0.52369  0.53327  1.0000
  H   H714      1.0  0.67922  0.56319  0.61683  1.0000
  N   N40       1.0  0.71705  0.51839  0.51471  1.0000
  H   H715      1.0  0.98124  0.74657  0.61531  1.0000
  H   H716      1.0  0.76938  0.65694  0.58848  1.0000
  S   S161      1.0  0.85391  0.95909  0.53040  1.0000
  C   C592      1.0  0.99385  0.74083  0.59891  1.0000
  Fe  Fe84      1.0  0.66239  0.98172  0.36205  1.0000
  S   S162      1.0  0.65657  0.50030  0.34046  1.0000
  H   H717      1.0  0.67149  0.51841  0.48660  1.0000
  H   H718      1.0  0.83686  0.90636  0.44511  1.0000
  C   C593      1.0  0.73037  0.95271  0.46699  1.0000
  C   C594      1.0  0.99905  0.87594  0.54354  1.0000
  S   S163      1.0  0.81891  0.51251  0.58722  1.0000
  H   H719      1.0  0.55967  0.83051  0.35588  1.0000
  C   C595      1.0  0.67859  0.91821  0.41544  1.0000
  C   C596      1.0  0.81053  0.93460  0.47087  1.0000
  H   H720      1.0  0.01014  0.76001  0.55780  1.0000
  C   C597      1.0  0.67915  0.52491  0.53022  1.0000
  C   C598      1.0  0.56469  0.61125  0.38057  1.0000
  C   C599      1.0  0.76461  0.91976  0.43946  1.0000
  H   H721      1.0  0.58102  0.59215  0.38935  1.0000
  C   C600      1.0  0.59829  0.90625  0.36350  1.0000
  H   H722      1.0  0.66004  0.70687  0.60240  1.0000
  C   C601      1.0  0.59975  0.87360  0.35969  1.0000
  C   C602      1.0  0.74927  0.66149  0.62212  1.0000
  H   H723      1.0  0.63293  0.86246  0.35613  1.0000
  C   C603      1.0  0.82762  0.54316  0.31766  1.0000
  H   H724      1.0  0.90077  0.55925  0.34841  1.0000
  C   C604      1.0  0.83589  0.55145  0.38500  1.0000
  C   C605      1.0  0.88563  0.59418  0.30566  1.0000
  C   C606      1.0  0.84688  0.59891  0.31906  1.0000
  C   C607      1.0  0.81824  0.57351  0.32515  1.0000
  C   C608      1.0  0.73972  0.54840  0.50832  1.0000
  H   H725      1.0  0.83891  0.62242  0.32468  1.0000
  H   H726      1.0  0.78897  0.57746  0.33564  1.0000
  H   H727      1.0  0.98458  0.58099  0.56437  1.0000
  C   C609      1.0  0.52235  0.66130  0.38059  1.0000
  S   S164      1.0  0.74451  0.54824  0.42460  1.0000
  H   H728      1.0  0.64838  0.90264  0.45533  1.0000
  C   C610      1.0  0.54579  0.98977  0.33820  1.0000
  C   C611      1.0  0.80626  0.53253  0.45659  1.0000
  H   H729      1.0  0.77619  0.96440  0.49367  1.0000
  S   S165      1.0  0.91926  0.62720  0.29791  1.0000
  H   H730      1.0  0.96554  0.59382  0.33897  1.0000
  H   H731      1.0  0.81265  0.55760  0.45793  1.0000
  C   C612      1.0  0.69696  0.58306  0.58621  1.0000
  C   C613      1.0  0.70328  0.56253  0.60350  1.0000
  C   C614      1.0  0.74072  0.54096  0.60350  1.0000
  C   C615      1.0  0.77242  0.53998  0.58638  1.0000
  C   C616      1.0  0.76653  0.56081  0.56923  1.0000
  C   C617      1.0  0.72866  0.58213  0.56907  1.0000
  H   H732      1.0  0.60673  0.92589  0.44032  1.0000
  H   H733      1.0  0.64042  0.55680  0.50906  1.0000
  H   H734      1.0  0.79151  0.56070  0.55629  1.0000
  H   H735      1.0  0.72401  0.59810  0.55572  1.0000
  C   C618      1.0  0.80670  0.91893  0.45126  1.0000
  H   H736      1.0  0.80468  0.53679  0.38879  1.0000
  C   C619      1.0  0.72487  0.93653  0.44713  1.0000
  S   S166      1.0  0.94954  0.50556  0.56703  1.0000
  Fe  Fe85      1.0  0.60294  0.61418  0.61456  1.0000
  C   C620      1.0  0.77212  0.64717  0.60444  1.0000
  H   H737      1.0  0.64332  0.50953  0.58168  1.0000
  C   C621      1.0  0.77244  0.95143  0.47872  1.0000
  H   H738      1.0  0.54489  0.63666  0.40910  1.0000
  H   H739      1.0  0.57782  0.97536  0.34109  1.0000
  C   C622      1.0  0.96867  0.85816  0.59306  1.0000
  H   H740      1.0  0.76431  0.90732  0.42433  1.0000
  C   C623      1.0  0.92560  0.56536  0.36091  1.0000
  C   C624      1.0  0.54908  0.92854  0.31329  1.0000
  H   H741      1.0  0.61441  0.98281  0.61981  1.0000
  C   C625      1.0  0.64206  0.54578  0.52467  1.0000
  C   C626      1.0  0.79789  0.61939  0.60684  1.0000
  H   H742      1.0  0.55401  0.94488  0.37248  1.0000
  C   C627      1.0  0.96269  0.58522  0.35534  1.0000
  H   H743      1.0  0.77166  0.50775  0.53792  1.0000
  C   C628      1.0  0.55531  0.92022  0.36840  1.0000
  S   S167      1.0  0.55005  0.65332  0.61498  1.0000
  H   H744      1.0  0.87892  0.54074  0.42196  1.0000
  H   H745      1.0  0.77126  0.54434  0.49832  1.0000
  C   C629      1.0  0.89566  0.56371  0.29845  1.0000
  H   H746      1.0  0.66805  0.61099  0.33440  1.0000
  H   H747      1.0  0.71604  0.56362  0.49858  1.0000
  C   C630      1.0  0.92037  0.55396  0.38216  1.0000
  H   H748      1.0  0.73025  0.61499  0.33109  1.0000
  C   C631      1.0  0.75309  0.71545  0.60929  1.0000
  C   C632      1.0  0.64255  0.51911  0.56557  1.0000
  H   H749      1.0  0.57984  0.57025  0.53502  1.0000
  C   C633      1.0  0.75436  0.49740  0.52340  1.0000
  H   H750      1.0  0.64368  0.91906  0.40719  1.0000
  H   H751      1.0  0.76340  0.70917  0.59267  1.0000
  N   N41       1.0  0.67957  0.93786  0.43523  1.0000
  C   C634      1.0  0.87838  0.50572  0.37300  1.0000
  H   H752      1.0  0.83071  0.56000  0.36834  1.0000
  C   C635      1.0  0.88171  0.52133  0.40997  1.0000
  C   C636      1.0  0.69697  0.50306  0.49524  1.0000
  H   H753      1.0  0.69096  0.64560  0.32270  1.0000
  H   H754      1.0  0.68561  0.89299  0.41902  1.0000
  H   H755      1.0  0.56470  0.87891  0.31267  1.0000
  N   N42       1.0  0.69225  0.60453  0.30184  1.0000
  C   C637      1.0  0.60697  0.55345  0.53932  1.0000
  H   H756      1.0  0.61672  0.60792  0.30072  1.0000
  C   C638      1.0  0.55828  0.85537  0.35964  1.0000
  H   H757      1.0  0.87423  0.51488  0.29852  1.0000
  H   H758      1.0  0.73492  0.73861  0.60807  1.0000
  S   S168      1.0  0.79184  0.51075  0.32480  1.0000
  H   H759      1.0  0.63546  0.94240  0.46323  1.0000
  S   S169      1.0  0.63133  0.51828  0.39085  1.0000
  H   H760      1.0  0.70439  0.92663  0.40340  1.0000
  C   C639      1.0  0.53743  0.89666  0.31159  1.0000
  Fe  Fe86      1.0  0.70817  0.52948  0.39477  1.0000
  H   H761      1.0  0.51920  0.98276  0.35026  1.0000
  C   C640      1.0  0.82993  0.51167  0.47038  1.0000
  H   H762      1.0  0.96291  0.73887  0.58800  1.0000
  H   H763      1.0  0.85462  0.52071  0.48215  1.0000
  S   S170      1.0  0.00445  0.55978  0.52069  1.0000
  C   C641      1.0  0.96402  0.80331  0.58264  1.0000
  H   H764      1.0  0.83517  0.57233  0.39586  1.0000
  H   H765      1.0  0.78258  0.49326  0.51150  1.0000
  C   C642      1.0  0.00395  0.84478  0.53613  1.0000
  H   H766      1.0  0.97448  0.83332  0.52827  1.0000
  H   H767      1.0  0.68336  0.94782  0.62392  1.0000
  H   H768      1.0  0.87116  0.51231  0.35603  1.0000
  N   N43       1.0  0.88009  0.53343  0.38760  1.0000
  H   H769      1.0  0.75118  0.56221  0.52262  1.0000
  H   H770      1.0  0.94509  0.78545  0.57372  1.0000
  H   H771      1.0  0.81484  0.60877  0.59309  1.0000
  C   C643      1.0  0.00797  0.79672  0.59265  1.0000
  H   H772      1.0  0.74534  0.52508  0.61691  1.0000
  H   H773      1.0  0.54070  0.63507  0.32959  1.0000
  H   H774      1.0  0.72054  0.56046  0.31337  1.0000
  H   H775      1.0  0.63669  0.97282  0.41929  1.0000
  C   C644      1.0  0.64096  0.92674  0.44916  1.0000
  C   C645      1.0  0.66988  0.97080  0.42879  1.0000
  C   C646      1.0  0.54414  0.63649  0.39172  1.0000
  H   H776      1.0  0.69232  0.67681  0.58859  1.0000
  H   H777      1.0  0.91227  0.83854  0.57435  1.0000
  Fe  Fe87      1.0  0.87146  0.50372  0.56067  1.0000
  H   H778      1.0  0.58101  0.54711  0.57133  1.0000
  H   H779      1.0  0.84352  0.93446  0.47978  1.0000
  C   C647      1.0  0.69564  0.61967  0.32335  1.0000
  S   S171      1.0  0.91766  0.97833  0.57201  1.0000
  C   C648      1.0  0.86654  0.53834  0.30433  1.0000
  C   C649      1.0  0.68876  0.56995  0.30513  1.0000
  H   H780      1.0  0.72473  0.49714  0.48342  1.0000
  H   H781      1.0  0.95327  0.55695  0.41422  1.0000
  N   N44       1.0  0.72264  0.69117  0.61917  1.0000
  C   C650      1.0  0.68179  0.68535  0.60474  1.0000
  S   S172      1.0  0.96216  0.98400  0.52390  1.0000
  H   H782      1.0  0.00957  0.71675  0.59936  1.0000
  H   H783      1.0  0.58576  0.93420  0.31591  1.0000
  H   H784      1.0  0.85164  0.50528  0.41327  1.0000
  H   H785      1.0  0.95456  0.88186  0.59233  1.0000
  H   H786      1.0  0.66666  0.98696  0.44278  1.0000
  H   H787      1.0  0.69876  0.98020  0.41877  1.0000
  C   C651      1.0  0.01075  0.59634  0.55751  1.0000
  H   H788      1.0  0.78585  0.71892  0.61894  1.0000
  C   C652      1.0  0.52203  0.66100  0.35812  1.0000
  C   C653      1.0  0.01211  0.85266  0.60279  1.0000
  N   N45       1.0  0.52713  0.98577  0.31609  1.0000
  H   H789      1.0  0.91439  0.50772  0.41318  1.0000
  C   C654      1.0  0.99580  0.59430  0.37074  1.0000
  H   H790      1.0  0.70504  0.49576  0.55704  1.0000
  H   H791      1.0  0.91212  0.49254  0.37345  1.0000
  H   H792      1.0  0.72126  0.66453  0.29209  1.0000
  S   S173      1.0  0.62584  0.86371  0.75963  1.0000
  H   H793      1.0  0.78246  0.55098  0.95088  1.0000
  Fe  Fe88      1.0  0.60381  0.87082  0.79377  1.0000
  S   S174      1.0  0.65452  0.87654  0.82216  1.0000
  Fe  Fe89      1.0  0.57087  0.82570  0.75770  1.0000
  S   S175      1.0  0.58192  0.77493  0.74737  1.0000
  S   S176      1.0  0.63274  0.62692  0.64679  1.0000
  Fe  Fe90      1.0  0.57598  0.66343  0.64840  1.0000
  C   C655      1.0  0.00389  0.83775  0.87942  1.0000
  S   S177      1.0  0.60995  0.55869  0.68366  1.0000
  S   S178      1.0  0.86620  0.95402  0.88388  1.0000
  H   H794      1.0  0.64479  0.87125  0.70422  1.0000
  Fe  Fe91      1.0  0.94351  0.52522  0.85187  1.0000
  H   H795      1.0  0.61782  0.83376  0.67374  1.0000
  S   S179      1.0  0.99080  0.56196  0.83631  1.0000
  Fe  Fe92      1.0  0.94280  0.94182  0.88211  1.0000
  S   S180      1.0  0.96390  0.89289  0.89266  1.0000
  C   C656      1.0  0.79749  0.51139  0.93034  1.0000
  C   C657      1.0  0.68818  0.98327  0.91387  1.0000
  S   S181      1.0  0.94694  0.50709  0.88563  1.0000
  S   S182      1.0  0.86502  0.53119  0.85182  1.0000
  H   H796      1.0  0.52625  0.50570  0.76129  1.0000
  H   H797      1.0  0.88801  0.92610  0.80540  1.0000
  S   S183      1.0  0.58680  0.71580  0.65375  1.0000
  H   H798      1.0  0.86171  0.83077  0.84697  1.0000
  C   C658      1.0  0.97809  0.67066  0.85762  1.0000
  H   H799      1.0  0.58790  0.68750  0.69620  1.0000
  C   C659      1.0  0.98792  0.68841  0.89416  1.0000
  C   C660      1.0  0.58579  0.71281  0.69796  1.0000
  H   H800      1.0  0.73359  0.70962  0.65121  1.0000
  Fe  Fe93      1.0  0.86803  0.50961  0.88483  1.0000
  C   C661      1.0  0.95825  0.86078  0.80636  1.0000
  C   C662      1.0  0.52794  0.52754  0.69375  1.0000
  H   H801      1.0  0.68277  0.88681  0.68416  1.0000
  H   H802      1.0  0.92360  0.83702  0.84517  1.0000
  H   H803      1.0  0.81940  0.96133  0.92535  1.0000
  C   C663      1.0  0.55891  0.96247  0.71264  1.0000
  C   C664      1.0  0.70130  0.90405  0.82260  1.0000
  C   C665      1.0  0.70996  0.92414  0.80533  1.0000
  C   C666      1.0  0.74758  0.94573  0.80638  1.0000
  C   C667      1.0  0.77672  0.94751  0.82469  1.0000
  C   C668      1.0  0.76780  0.92757  0.84202  1.0000
  C   C669      1.0  0.73054  0.90580  0.84089  1.0000
  H   H804      1.0  0.68768  0.92302  0.79116  1.0000
  H   H805      1.0  0.75413  0.96106  0.79289  1.0000
  H   H806      1.0  0.78938  0.92888  0.85635  1.0000
  H   H807      1.0  0.72407  0.89033  0.85432  1.0000
  C   C670      1.0  0.58234  0.75927  0.72112  1.0000
  C   C671      1.0  0.58035  0.77847  0.70294  1.0000
  C   C672      1.0  0.91900  0.87988  0.81169  1.0000
  C   C673      1.0  0.58473  0.73201  0.67980  1.0000
  C   C674      1.0  0.89009  0.83770  0.83573  1.0000
  H   H808      1.0  0.82529  0.89234  0.80896  1.0000
  C   C675      1.0  0.99626  0.86963  0.87470  1.0000
  C   C676      1.0  0.95210  0.92097  0.78858  1.0000
  C   C677      1.0  0.57065  0.93167  0.65660  1.0000
  C   C678      1.0  0.75279  0.64569  0.64220  1.0000
  H   H809      1.0  0.58044  0.77970  0.66826  1.0000
  H   H810      1.0  0.91306  0.89428  0.85307  1.0000
  H   H811      1.0  0.65870  0.95192  0.93736  1.0000
  H   H812      1.0  0.77902  0.60540  0.65960  1.0000
  C   C679      1.0  0.55353  0.54768  0.74791  1.0000
  Fe  Fe94      1.0  0.56662  0.89708  0.75140  1.0000
  C   C680      1.0  0.66561  0.95570  0.92042  1.0000
  C   C681      1.0  0.99027  0.90178  0.78384  1.0000
  C   C682      1.0  0.59683  0.51520  0.77402  1.0000
  C   C683      1.0  0.91682  0.91022  0.80218  1.0000
  H   H813      1.0  0.63535  0.91145  0.91058  1.0000
  C   C684      1.0  0.63256  0.56222  0.75797  1.0000
  C   C685      1.0  0.65269  0.93282  0.90541  1.0000
  H   H814      1.0  0.62701  0.51052  0.63469  1.0000
  S   S184      1.0  0.95290  0.96281  0.84945  1.0000
  H   H815      1.0  0.52230  0.55167  0.73819  1.0000
  C   C686      1.0  0.77776  0.61748  0.64428  1.0000
  H   H816      1.0  0.84156  0.63973  0.87891  1.0000
  S   S185      1.0  0.83189  0.53397  0.91257  1.0000
  C   C687      1.0  0.58183  0.76485  0.68231  1.0000
  C   C688      1.0  0.99320  0.87172  0.79262  1.0000
  H   H817      1.0  0.91678  0.61909  0.92741  1.0000
  N   N46       1.0  0.90296  0.61847  0.89318  1.0000
  C   C689      1.0  0.92885  0.58846  0.89129  1.0000
  C   C690      1.0  0.76890  0.95979  0.95090  1.0000
  H   H818      1.0  0.98884  0.82761  0.89372  1.0000
  C   C691      1.0  0.93416  0.64439  0.88626  1.0000
  C   C692      1.0  0.57258  0.95710  0.64239  1.0000
  H   H819      1.0  0.73581  0.65423  0.65650  1.0000
  H   H820      1.0  0.93423  0.63095  0.85231  1.0000
  C   C693      1.0  0.60045  0.50342  0.70582  1.0000
  H   H821      1.0  0.64455  0.91256  0.69845  1.0000
  S   S186      1.0  0.52438  0.63115  0.66434  1.0000
  H   H822      1.0  0.93874  0.58338  0.87440  1.0000
  H   H823      1.0  0.96174  0.58892  0.90110  1.0000
  H   H824      1.0  0.65324  0.85424  0.65497  1.0000
  H   H825      1.0  0.86175  0.60253  0.92009  1.0000
  H   H826      1.0  0.57801  0.80369  0.70488  1.0000
  C   C694      1.0  0.99897  0.69092  0.87251  1.0000
  H   H827      1.0  0.62019  0.99013  0.70532  1.0000
  H   H828      1.0  0.90741  0.56828  0.89688  1.0000
  H   H829      1.0  0.63842  0.50354  0.70673  1.0000
  C   C695      1.0  0.57696  0.52785  0.69498  1.0000
  C   C696      1.0  0.94680  0.64738  0.86435  1.0000
  Fe  Fe95      1.0  0.87750  0.97816  0.85246  1.0000
  H   H830      1.0  0.75912  0.93555  0.94779  1.0000
  H   H831      1.0  0.83702  0.85266  0.80083  1.0000
  H   H832      1.0  0.66249  0.57778  0.75619  1.0000
  S   S187      1.0  0.59061  0.93811  0.73070  1.0000
  H   H833      1.0  0.98792  0.67208  0.84088  1.0000
  H   H834      1.0  0.01061  0.90715  0.85255  1.0000
  C   C697      1.0  0.56420  0.88031  0.68600  1.0000
  C   C698      1.0  0.80305  0.97436  0.93816  1.0000
  H   H835      1.0  0.85248  0.88421  0.85683  1.0000
  H   H836      1.0  0.83492  0.59856  0.88524  1.0000
  H   H837      1.0  0.86790  0.91576  0.83950  1.0000
  H   H838      1.0  0.68159  0.90349  0.64873  1.0000
  C   C699      1.0  0.83587  0.86872  0.81496  1.0000
  C   C700      1.0  0.58486  0.72645  0.71854  1.0000
  Fe  Fe96      1.0  0.57890  0.59324  0.65972  1.0000
  C   C701      1.0  0.86012  0.61670  0.87937  1.0000
  H   H839      1.0  0.89115  0.81928  0.82300  1.0000
  C   C702      1.0  0.88710  0.62154  0.91577  1.0000
  C   C703      1.0  0.68567  0.96459  0.87709  1.0000
  H   H840      1.0  0.69383  0.96635  0.86023  1.0000
  H   H841      1.0  0.86917  0.64446  0.91848  1.0000
  H   H842      1.0  0.86789  0.60958  0.86260  1.0000
  H   H843      1.0  0.80686  0.86071  0.82553  1.0000
  C   C704      1.0  0.87858  0.89186  0.84472  1.0000
  N   N47       1.0  0.60940  0.88422  0.67456  1.0000
  N   N48       1.0  0.88173  0.86945  0.82650  1.0000
  C   C705      1.0  0.61836  0.85445  0.66278  1.0000
  S   S188      1.0  0.54730  0.90582  0.78581  1.0000
  C   C706      1.0  0.64701  0.88878  0.69098  1.0000
  S   S189      1.0  0.55223  0.57827  0.62712  1.0000
  C   C707      1.0  0.77694  0.52608  0.94815  1.0000
  C   C708      1.0  0.60964  0.91111  0.65943  1.0000
  H   H844      1.0  0.94973  0.66467  0.91809  1.0000
  H   H845      1.0  0.58620  0.71150  0.73258  1.0000
  H   H846      1.0  0.55610  0.90127  0.69596  1.0000
  S   S190      1.0  0.55353  0.82985  0.79277  1.0000
  H   H847      1.0  0.68518  0.72702  0.63691  1.0000
  C   C709      1.0  0.65184  0.94319  0.63303  1.0000
  H   H848      1.0  0.65295  0.91928  0.87209  1.0000
  C   C710      1.0  0.65035  0.91774  0.64723  1.0000
  H   H849      1.0  0.59034  0.58732  0.73481  1.0000
  C   C711      1.0  0.63528  0.53636  0.77181  1.0000
  S   S191      1.0  0.82430  0.97449  0.82508  1.0000
  C   C712      1.0  0.70465  0.70459  0.63956  1.0000
  C   C713      1.0  0.95590  0.66562  0.90105  1.0000
  H   H850      1.0  0.94992  0.94447  0.78185  1.0000
  H   H851      1.0  0.64186  0.50694  0.81271  1.0000
  H   H852      1.0  0.55074  0.50088  0.65183  1.0000
  H   H853      1.0  0.59129  0.85053  0.65000  1.0000
  H   H854      1.0  0.96359  0.83755  0.81295  1.0000
  H   H855      1.0  0.67896  0.68858  0.64727  1.0000
  S   S192      1.0  0.96649  0.98517  0.89984  1.0000
  H   H856      1.0  0.00531  0.70377  0.90570  1.0000
  H   H857      1.0  0.66818  0.53318  0.78029  1.0000
  H   H858      1.0  0.54263  0.97277  0.64070  1.0000
  C   C714      1.0  0.66266  0.93726  0.88378  1.0000
  C   C715      1.0  0.59185  0.56780  0.74600  1.0000
  H   H859      1.0  0.56510  0.86008  0.69733  1.0000
  C   C716      1.0  0.55602  0.52154  0.76146  1.0000
  H   H860      1.0  0.53440  0.87614  0.67464  1.0000
  H   H861      1.0  0.55102  0.50445  0.81054  1.0000
  H   H862      1.0  0.53842  0.92908  0.66541  1.0000
  C   C717      1.0  0.58318  0.98657  0.70201  1.0000
  C   C718      1.0  0.61305  0.96288  0.63066  1.0000
  C   C719      1.0  0.69852  0.98871  0.89188  1.0000
  H   H863      1.0  0.77225  0.99040  0.86535  1.0000
  C   C720      1.0  0.80040  0.60443  0.62666  1.0000
  H   H864      1.0  0.81909  0.58228  0.62820  1.0000
