data_image0
_chemical_formula_structural       HCSNHC3SH5CHCH2C2H5C2HSCFe2HCH2C2HFeSHCH2C3HCFeSH3CFeHFeS2FeSHFeSFeS3CHFeS2C2H2C6H4C4HCH3C6H4C2H6NC2HC5H5NC2H2SHCH3CFeH3NC3H2CH2C3HCHCHCHSHCHC2SCSCH3CSC2H2CH2SHFeS2FeSHFeS2FeSFeS4HC5H3C7H4C8H7C3NHNHSH8CH5CSHCHCH2CHCHC4NHNCH4C4H2CH3CHCSC4H2CH3C4SHC2H3SC2HCH2CH2CHFeCHCH2CSCHCSCH3SC2H2CH2CHC2HNHC2H2C2H2CHFeNHSHCH2C3H2FeSHCH3C2FeHS2CSHSH3CFeHCH2CHSH2SC3HCHCNCH2C2HCH4CH4C2FeCSH3CHCNH2C2FeH2SC7H4CFeC3SC5HCH3C3FeC2HCHSH2CH2CHSH2CH4NCH3CSHCH5C2HCH2NH2C3H5CHSCH5SH3FeSNCFeSH3C2SH2CHFe2HCH2SHCFeSCSCSC6HSHSHC2H3CHCHFeNH2Fe2HCHCH2C2HFeH5CFeSFeS2FeS2FeSFeHS3H3C2HC6H2C6H2CHC6H4C3HCHSHCHCHC2H2CHNH4CH2CH6CH4CH2NSHC3H3CH2CSH3CHCHC2HCN2CH2CHCHCHCHCHCHC3H4SHC2H3FeS2FeS2FeCFeS3HCHFeSHC7H4C3HCHCH3NCHC6H3NC4HC2SH6CH7CH2C2H3C2HC2HC3HC2NSH2C3H2CH6SC2H2CHCSHFeHSCH2CHC2HCHSFeHSHSFeSHC6H2CSCH4NC6H4SHFeCH4CSHCH
_chemical_formula_sum              "H432 C360 S96 N24 Fe48"
_cell_length_a       47.5299
_cell_length_b       38.1255
_cell_length_c       30.5053
_cell_angle_alpha    90.1872
_cell_angle_beta     104.217
_cell_angle_gamma    89.9811

_space_group_name_H-M_alt    "P 1"
_space_group_IT_number       1

loop_
  _space_group_symop_operation_xyz
  'x, y, z'

loop_
  _atom_site_type_symbol
  _atom_site_label
  _atom_site_symmetry_multiplicity
  _atom_site_fract_x
  _atom_site_fract_y
  _atom_site_fract_z
  _atom_site_occupancy
  H   H1        1.0  0.11953  0.33740  0.44883  1.0000
  C   C1        1.0  0.25386  0.07761  0.18159  1.0000
  S   S1        1.0  0.12042  0.03226  0.03192  1.0000
  N   N1        1.0  0.22772  0.06066  0.05422  1.0000
  H   H2        1.0  0.21576  0.01972  0.00355  1.0000
  C   C2        1.0  0.27666  0.05715  0.10947  1.0000
  C   C3        1.0  0.21166  0.02311  0.23562  1.0000
  C   C4        1.0  0.23576  0.07593  0.13791  1.0000
  S   S2        1.0  0.04136  0.99437  0.02782  1.0000
  H   H3        1.0  0.97800  0.09787  0.02614  1.0000
  H   H4        1.0  0.24534  0.02286  0.29793  1.0000
  H   H5        1.0  0.98488  0.99962  0.04526  1.0000
  H   H6        1.0  0.19080  0.09154  0.06118  1.0000
  H   H7        1.0  0.25348  0.02218  0.02858  1.0000
  C   C5        1.0  0.19629  0.06455  0.05209  1.0000
  H   H8        1.0  0.21319  0.08223  0.13482  1.0000
  C   C6        1.0  0.22332  0.99425  0.17161  1.0000
  H   H9        1.0  0.19658  0.03783  0.24992  1.0000
  H   H10       1.0  0.08449  0.37136  0.46053  1.0000
  C   C7        1.0  0.20368  0.01326  0.18982  1.0000
  C   C8        1.0  0.00689  0.46197  0.46701  1.0000
  H   H11       1.0  0.24491  0.08464  0.20989  1.0000
  H   H12       1.0  0.18252  0.05935  0.01747  1.0000
  H   H13       1.0  0.22976  0.00447  0.06049  1.0000
  H   H14       1.0  0.28656  0.04933  0.08268  1.0000
  H   H15       1.0  0.23236  0.11445  0.03640  1.0000
  C   C9        1.0  0.24652  0.06473  0.10055  1.0000
  C   C10       1.0  0.23551  0.08751  0.02423  1.0000
  H   H16       1.0  0.06923  0.31582  0.42548  1.0000
  S   S3        1.0  0.16962  0.02680  0.15604  1.0000
  C   C11       1.0  0.28301  0.06839  0.18945  1.0000
  Fe  Fe1       1.0  0.30011  0.01655  0.44527  1.0000
  Fe  Fe2       1.0  0.14865  0.00117  0.08877  1.0000
  H   H17       1.0  0.08234  0.27164  0.43038  1.0000
  C   C12       1.0  0.23923  0.01455  0.26293  1.0000
  H   H18       1.0  0.25850  0.08522  0.02239  1.0000
  H   H19       1.0  0.29657  0.06814  0.22373  1.0000
  C   C13       1.0  0.23192  0.02533  0.03608  1.0000
  C   C14       1.0  0.29447  0.05856  0.15340  1.0000
  H   H20       1.0  0.18931  0.04575  0.07518  1.0000
  Fe  Fe3       1.0  0.08888  0.98680  0.02480  1.0000
  S   S4        1.0  0.27741  0.06124  0.47395  1.0000
  H   H21       1.0  0.02512  0.45511  0.45340  1.0000
  C   C15       1.0  0.97824  0.45646  0.44087  1.0000
  H   H22       1.0  0.22978  0.00995  0.45192  1.0000
  H   H23       1.0  0.05574  0.28527  0.46000  1.0000
  C   C16       1.0  0.07557  0.29368  0.44956  1.0000
  C   C17       1.0  0.98189  0.98849  0.01176  1.0000
  C   C18       1.0  0.25926  0.99669  0.24431  1.0000
  H   H24       1.0  0.13387  0.29413  0.45671  1.0000
  C   C19       1.0  0.12454  0.31560  0.47353  1.0000
  Fe  Fe4       1.0  0.30716  0.98870  0.35271  1.0000
  S   S5        1.0  0.29530  0.98941  0.27586  1.0000
  H   H25       1.0  0.22184  0.08499  0.98894  1.0000
  H   H26       1.0  0.01256  0.06860  0.98917  1.0000
  H   H27       1.0  0.21741  0.98645  0.13648  1.0000
  C   C20       1.0  0.25111  0.98636  0.19866  1.0000
  Fe  Fe5       1.0  0.14242  0.00148  0.98647  1.0000
  H   H28       1.0  0.19477  0.98975  0.44836  1.0000
  Fe  Fe6       1.0  0.24144  0.15681  0.69592  1.0000
  S   S6        1.0  0.19512  0.15907  0.70336  1.0000
  S   S7        1.0  0.26258  0.10978  0.66870  1.0000
  Fe  Fe7       1.0  0.25784  0.22503  0.75030  1.0000
  S   S8        1.0  0.21355  0.23141  0.76179  1.0000
  H   H29       1.0  0.30602  0.26759  0.91579  1.0000
  Fe  Fe8       1.0  0.21446  0.17330  0.77649  1.0000
  S   S9        1.0  0.19903  0.16000  0.84056  1.0000
  Fe  Fe9       1.0  0.19796  0.21702  0.68862  1.0000
  S   S10       1.0  0.16109  0.25129  0.64976  1.0000
  S   S11       1.0  0.26054  0.16817  0.77022  1.0000
  S   S12       1.0  0.24249  0.21361  0.67583  1.0000
  C   C21       1.0  0.27422  0.11834  0.88424  1.0000
  H   H30       1.0  0.25490  0.25639  0.89060  1.0000
  Fe  Fe10      1.0  0.15186  0.44034  0.54778  1.0000
  S   S13       1.0  0.12585  0.44733  0.59909  1.0000
  S   S14       1.0  0.17403  0.38862  0.54029  1.0000
  C   C22       1.0  0.27149  0.32945  0.86453  1.0000
  C   C23       1.0  0.26625  0.37146  0.74249  1.0000
  H   H31       1.0  0.19252  0.42744  0.71850  1.0000
  H   H32       1.0  0.19693  0.07442  0.55775  1.0000
  C   C24       1.0  0.17242  0.05914  0.90506  1.0000
  C   C25       1.0  0.18522  0.05685  0.86808  1.0000
  C   C26       1.0  0.19310  0.08726  0.84747  1.0000
  C   C27       1.0  0.18859  0.12055  0.86392  1.0000
  C   C28       1.0  0.17611  0.12286  0.90128  1.0000
  C   C29       1.0  0.16784  0.09246  0.92147  1.0000
  H   H33       1.0  0.18884  0.03129  0.85495  1.0000
  H   H34       1.0  0.20267  0.08491  0.81887  1.0000
  H   H35       1.0  0.17236  0.14843  0.91422  1.0000
  H   H36       1.0  0.15772  0.09489  0.94944  1.0000
  C   C30       1.0  0.26682  0.09735  0.61423  1.0000
  C   C31       1.0  0.25418  0.11611  0.57497  1.0000
  C   C32       1.0  0.25771  0.10459  0.53255  1.0000
  C   C33       1.0  0.27397  0.07433  0.52869  1.0000
  H   H37       1.0  0.28729  0.38226  0.73876  1.0000
  C   C34       1.0  0.27141  0.15245  0.89950  1.0000
  H   H38       1.0  0.24157  0.13936  0.57727  1.0000
  H   H39       1.0  0.14206  0.32498  0.50228  1.0000
  H   H40       1.0  0.12523  0.27782  0.54813  1.0000
  C   C35       1.0  0.17358  0.35331  0.57772  1.0000
  C   C36       1.0  0.19291  0.32520  0.57905  1.0000
  C   C37       1.0  0.19071  0.29470  0.60394  1.0000
  C   C38       1.0  0.16861  0.29170  0.62668  1.0000
  C   C39       1.0  0.14972  0.32010  0.62613  1.0000
  C   C40       1.0  0.15246  0.35097  0.60236  1.0000
  H   H41       1.0  0.20917  0.32663  0.55974  1.0000
  H   H42       1.0  0.20513  0.27279  0.60354  1.0000
  H   H43       1.0  0.13254  0.31797  0.64356  1.0000
  H   H44       1.0  0.13730  0.37220  0.60137  1.0000
  C   C41       1.0  0.28309  0.06709  0.61036  1.0000
  C   C42       1.0  0.26983  0.30466  0.82969  1.0000
  H   H45       1.0  0.24427  0.43625  0.74671  1.0000
  H   H46       1.0  0.30211  0.17137  0.55505  1.0000
  H   H47       1.0  0.23453  0.99601  0.65434  1.0000
  H   H48       1.0  0.99499  0.04128  0.91408  1.0000
  H   H49       1.0  0.14815  0.40628  0.73381  1.0000
  H   H50       1.0  0.30510  0.20460  0.98056  1.0000
  N   N2        1.0  0.24099  0.38743  0.71008  1.0000
  C   C43       1.0  0.24511  0.42610  0.71280  1.0000
  C   C44       1.0  0.07111  0.39310  0.51623  1.0000
  H   H51       1.0  0.26773  0.34267  0.73769  1.0000
  C   C45       1.0  0.21352  0.37581  0.72021  1.0000
  C   C46       1.0  0.20815  0.33958  0.72533  1.0000
  C   C47       1.0  0.19094  0.39952  0.72320  1.0000
  C   C48       1.0  0.08835  0.33242  0.51418  1.0000
  C   C49       1.0  0.16506  0.38761  0.73198  1.0000
  H   H52       1.0  0.06968  0.35151  0.61366  1.0000
  H   H53       1.0  0.29925  0.08335  0.85337  1.0000
  H   H54       1.0  0.05901  0.40935  0.57658  1.0000
  H   H55       1.0  0.22849  0.44004  0.68649  1.0000
  H   H56       1.0  0.14060  0.34275  0.74416  1.0000
  N   N3        1.0  0.28700  0.21559  0.91023  1.0000
  C   C50       1.0  0.25930  0.22898  0.88155  1.0000
  C   C51       1.0  0.21453  0.03706  0.60957  1.0000
  H   H57       1.0  0.25979  0.22850  0.84527  1.0000
  H   H58       1.0  0.25767  0.09893  0.88507  1.0000
  S   S15       1.0  0.16344  0.01952  0.92982  1.0000
  H   H59       1.0  0.29909  0.03222  0.56601  1.0000
  C   C52       1.0  0.24109  0.37611  0.66362  1.0000
  H   H60       1.0  0.24021  0.21318  0.88455  1.0000
  H   H61       1.0  0.06651  0.41861  0.50044  1.0000
  H   H62       1.0  0.25334  0.33270  0.87975  1.0000
  C   C53       1.0  0.08314  0.32779  0.55780  1.0000
  Fe  Fe11      1.0  0.09600  0.48101  0.54720  1.0000
  H   H63       1.0  0.22366  0.31976  0.72149  1.0000
  H   H64       1.0  0.26134  0.38423  0.65429  1.0000
  H   H65       1.0  0.21178  0.05417  0.63674  1.0000
  N   N4        1.0  0.09897  0.30377  0.48942  1.0000
  C   C54       1.0  0.28666  0.05562  0.56800  1.0000
  C   C55       1.0  0.29164  0.17917  0.89644  1.0000
  C   C56       1.0  0.29668  0.34966  0.88035  1.0000
  H   H66       1.0  0.26517  0.37622  0.77813  1.0000
  H   H67       1.0  0.26650  0.43413  0.70729  1.0000
  C   C57       1.0  0.29385  0.29879  0.81186  1.0000
  H   H68       1.0  0.22240  0.38768  0.63833  1.0000
  H   H69       1.0  0.25026  0.28948  0.81757  1.0000
  C   C58       1.0  0.28531  0.21636  0.95815  1.0000
  C   C59       1.0  0.97976  0.05478  0.92953  1.0000
  C   C60       1.0  0.18227  0.32799  0.73439  1.0000
  H   H70       1.0  0.08933  0.25944  0.52756  1.0000
  C   C61       1.0  0.22752  0.00435  0.61940  1.0000
  H   H71       1.0  0.25247  0.15807  0.91196  1.0000
  C   C62       1.0  0.16078  0.35195  0.73780  1.0000
  H   H72       1.0  0.08762  0.30344  0.57617  1.0000
  C   C63       1.0  0.07271  0.35531  0.57991  1.0000
  H   H73       1.0  0.23929  0.34710  0.65961  1.0000
  S   S16       1.0  0.29996  0.37584  0.92923  1.0000
  H   H74       1.0  0.29286  0.05230  0.64044  1.0000
  C   C64       1.0  0.08163  0.36587  0.49386  1.0000
  H   H75       1.0  0.17848  0.30012  0.73736  1.0000
  C   C65       1.0  0.06675  0.38789  0.55919  1.0000
  C   C66       1.0  0.01172  0.47658  0.51035  1.0000
  S   S17       1.0  0.29458  0.26412  0.77353  1.0000
  C   C67       1.0  0.98972  0.07020  0.97193  1.0000
  S   S18       1.0  0.11996  0.47028  0.49310  1.0000
  C   C68       1.0  0.29752  0.10962  0.86618  1.0000
  H   H76       1.0  0.26613  0.20185  0.96338  1.0000
  H   H77       1.0  0.28327  0.24371  0.97007  1.0000
  H   H78       1.0  0.24775  0.11930  0.50247  1.0000
  C   C69       1.0  0.10788  0.27178  0.51717  1.0000
  S   S19       1.0  0.28542  0.47249  0.92007  1.0000
  C   C70       1.0  0.21088  0.02729  0.52986  1.0000
  C   C71       1.0  0.20616  0.04843  0.56494  1.0000
  H   H79       1.0  0.11692  0.25124  0.49848  1.0000
  H   H80       1.0  0.27255  0.99056  0.50961  1.0000
  C   C72       1.0  0.22389  0.99359  0.53865  1.0000
  H   H81       1.0  0.19654  0.48399  0.78814  1.0000
  H   H82       1.0  0.20487  0.03845  0.49638  1.0000
  S   S20       1.0  0.04727  0.48508  0.54486  1.0000
  H   H83       1.0  0.24249  0.83111  0.40629  1.0000
  Fe  Fe12      1.0  0.13764  0.93240  0.03681  1.0000
  S   S21       1.0  0.11588  0.95837  0.08552  1.0000
  S   S22       1.0  0.15105  0.87516  0.03772  1.0000
  Fe  Fe13      1.0  0.25455  0.71960  0.27868  1.0000
  S   S23       1.0  0.21010  0.71342  0.29032  1.0000
  H   H84       1.0  0.26280  0.58829  0.41407  1.0000
  Fe  Fe14      1.0  0.24065  0.67376  0.19201  1.0000
  S   S24       1.0  0.19458  0.66483  0.19742  1.0000
  S   S25       1.0  0.26241  0.65983  0.13454  1.0000
  Fe  Fe15      1.0  0.19468  0.72254  0.21517  1.0000
  S   S26       1.0  0.15898  0.76344  0.19486  1.0000
  Fe  Fe16      1.0  0.21389  0.65649  0.27253  1.0000
  S   S27       1.0  0.20608  0.60756  0.31222  1.0000
  S   S28       1.0  0.23906  0.73209  0.20501  1.0000
  S   S29       1.0  0.25993  0.66223  0.26549  1.0000
  S   S30       1.0  0.17243  0.97318  0.04429  1.0000
  H   H85       1.0  0.24532  0.77739  0.36103  1.0000
  C   C73       1.0  0.26905  0.62000  0.10793  1.0000
  C   C74       1.0  0.25890  0.58749  0.11866  1.0000
  C   C75       1.0  0.26448  0.55680  0.09612  1.0000
  C   C76       1.0  0.28031  0.55808  0.06270  1.0000
  C   C77       1.0  0.98344  0.55588  0.43549  1.0000
  H   H86       1.0  0.05463  0.92150  0.00101  1.0000
  H   H87       1.0  0.24668  0.58600  0.14421  1.0000
  H   H88       1.0  0.25648  0.53184  0.10475  1.0000
  C   C78       1.0  0.29038  0.59061  0.05183  1.0000
  C   C79       1.0  0.19048  0.59715  0.35836  1.0000
  C   C80       1.0  0.18959  0.56179  0.37138  1.0000
  C   C81       1.0  0.17827  0.55210  0.40839  1.0000
  C   C82       1.0  0.16779  0.57775  0.43321  1.0000
  C   C83       1.0  0.16841  0.61309  0.41995  1.0000
  C   C84       1.0  0.17961  0.62276  0.38282  1.0000
  H   H89       1.0  0.19785  0.54169  0.35276  1.0000
  H   H90       1.0  0.26591  0.62803  0.36047  1.0000
  H   H91       1.0  0.16043  0.63323  0.43883  1.0000
  H   H92       1.0  0.17988  0.65001  0.37325  1.0000
  C   C85       1.0  0.25633  0.60154  0.44135  1.0000
  C   C86       1.0  0.05066  0.82388  0.09109  1.0000
  C   C87       1.0  0.15510  0.84616  0.08412  1.0000
  C   C88       1.0  0.17165  0.81552  0.08483  1.0000
  C   C89       1.0  0.17389  0.79057  0.11946  1.0000
  C   C90       1.0  0.15910  0.79575  0.15330  1.0000
  C   C91       1.0  0.14283  0.82661  0.15297  1.0000
  C   C92       1.0  0.14100  0.85186  0.11875  1.0000
  H   H93       1.0  0.01344  0.85726  0.99096  1.0000
  H   H94       1.0  0.18628  0.76679  0.11912  1.0000
  H   H95       1.0  0.13122  0.83074  0.17893  1.0000
  H   H96       1.0  0.12805  0.87519  0.11848  1.0000
  H   H97       1.0  0.00467  0.86501  0.04413  1.0000
  H   H98       1.0  0.06544  0.52054  0.46410  1.0000
  H   H99       1.0  0.28353  0.84052  0.27403  1.0000
  C   C93       1.0  0.26299  0.79608  0.36771  1.0000
  C   C94       1.0  0.26142  0.82655  0.39332  1.0000
  C   C95       1.0  0.18593  0.91442  0.16554  1.0000
  N   N5        1.0  0.27167  0.66171  0.41909  1.0000
  H   H100      1.0  0.02357  0.54446  0.48191  1.0000
  N   N6        1.0  0.04885  0.87767  0.04282  1.0000
  H   H101      1.0  0.27590  0.88397  0.25106  1.0000
  S   S31       1.0  0.28651  0.51822  0.03571  1.0000
  H   H102      1.0  0.20474  0.81313  0.23905  1.0000
  H   H103      1.0  0.09740  0.53624  0.44942  1.0000
  H   H104      1.0  0.17619  0.92025  0.13031  1.0000
  H   H105      1.0  0.20500  0.59864  0.04577  1.0000
  H   H106      1.0  0.22727  0.81849  0.17437  1.0000
  H   H107      1.0  0.21864  0.91836  0.47587  1.0000
  H   H108      1.0  0.16307  0.95566  0.19032  1.0000
  H   H109      1.0  0.05555  0.77846  0.13440  1.0000
  C   C96       1.0  0.21210  0.60655  0.01607  1.0000
  H   H110      1.0  0.24125  0.55258  0.46254  1.0000
  H   H111      1.0  0.30633  0.69956  0.42572  1.0000
  H   H112      1.0  0.06572  0.52552  0.40570  1.0000
  H   H113      1.0  0.07597  0.90176  0.10216  1.0000
  H   H114      1.0  0.00804  0.90124  0.00883  1.0000
  C   C97       1.0  0.28430  0.85099  0.40258  1.0000
  S   S32       1.0  0.15412  0.56754  0.48134  1.0000
  H   H115      1.0  0.09140  0.83765  0.01427  1.0000
  C   C98       1.0  0.17846  0.93431  0.19930  1.0000
  H   H116      1.0  0.26399  0.87049  0.29984  1.0000
  C   C99       1.0  0.21102  0.89964  0.25624  1.0000
  H   H117      1.0  0.24016  0.79891  0.26954  1.0000
  H   H118      1.0  0.07368  0.58469  0.37683  1.0000
  C   C100      1.0  0.24823  0.65278  0.48381  1.0000
  H   H119      1.0  0.18246  0.81078  0.05801  1.0000
  C   C101      1.0  0.24672  0.83086  0.19710  1.0000
  H   H120      1.0  0.25671  0.84935  0.17713  1.0000
  C   C102      1.0  0.19124  0.92724  0.24455  1.0000
  C   C103      1.0  0.03081  0.57446  0.42480  1.0000
  C   C104      1.0  0.28484  0.62129  0.07441  1.0000
  C   C105      1.0  0.07757  0.59542  0.41178  1.0000
  N   N7        1.0  0.23924  0.84883  0.23604  1.0000
  H   H121      1.0  0.07050  0.62331  0.41039  1.0000
  N   N8        1.0  0.06289  0.57412  0.44039  1.0000
  C   C106      1.0  0.25911  0.63845  0.44817  1.0000
  H   H122      1.0  0.10161  0.59549  0.42524  1.0000
  H   H123      1.0  0.20996  0.87214  0.14876  1.0000
  H   H124      1.0  0.29262  0.64631  0.06561  1.0000
  H   H125      1.0  0.02682  0.60330  0.36120  1.0000
  C   C107      1.0  0.26677  0.86154  0.26644  1.0000
  C   C108      1.0  0.98545  0.58831  0.36868  1.0000
  C   C109      1.0  0.22599  0.82237  0.26033  1.0000
  C   C110      1.0  0.06276  0.79164  0.10766  1.0000
  H   H126      1.0  0.26258  0.80919  0.20837  1.0000
  H   H127      1.0  0.25753  0.70371  0.37174  1.0000
  C   C111      1.0  0.07326  0.53751  0.43989  1.0000
  H   H128      1.0  0.17799  0.52484  0.41795  1.0000
  H   H129      1.0  0.23037  0.67093  0.37311  1.0000
  H   H130      1.0  0.21240  0.55445  0.99265  1.0000
  C   C112      1.0  0.01574  0.58999  0.38327  1.0000
  H   H131      1.0  0.09470  0.75222  0.10462  1.0000
  C   C113      1.0  0.24895  0.68593  0.39434  1.0000
  S   S33       1.0  0.28241  0.88794  0.43711  1.0000
  C   C114      1.0  0.20569  0.88678  0.17678  1.0000
  C   C115      1.0  0.00634  0.98233  0.99441  1.0000
  C   C116      1.0  0.08227  0.82576  0.03978  1.0000
  C   C117      1.0  0.21882  0.87847  0.22268  1.0000
  H   H132      1.0  0.22198  0.83290  0.29226  1.0000
  H   H133      1.0  0.03957  0.89325  0.10633  1.0000
  C   C118      1.0  0.08462  0.77661  0.09066  1.0000
  H   H134      1.0  0.22014  0.89493  0.29181  1.0000
  H   H135      1.0  0.03386  0.83454  0.10548  1.0000
  H   H136      1.0  0.11142  0.78190  0.04377  1.0000
  C   C119      1.0  0.01367  0.55738  0.45041  1.0000
  C   C120      1.0  0.28337  0.64252  0.38494  1.0000
  C   C121      1.0  0.06057  0.84241  0.05741  1.0000
  C   C122      1.0  0.29580  0.68279  0.44709  1.0000
  S   S34       1.0  0.27471  0.97894  0.39324  1.0000
  H   H137      1.0  0.26653  0.97264  0.18402  1.0000
  C   C123      1.0  0.28782  0.78941  0.35213  1.0000
  C   C124      1.0  0.24384  0.58053  0.46901  1.0000
  H   H138      1.0  0.18591  0.94345  0.27062  1.0000
  H   H139      1.0  0.21572  0.66089  0.03563  1.0000
  H   H140      1.0  0.04630  0.92870  0.07285  1.0000
  S   S35       1.0  0.29189  0.75028  0.32288  1.0000
  C   C125      1.0  0.05284  0.90122  0.08276  1.0000
  C   C126      1.0  0.09402  0.79338  0.05637  1.0000
  H   H141      1.0  0.24014  0.70304  0.41731  1.0000
  C   C127      1.0  0.01742  0.87511  0.02082  1.0000
  H   H142      1.0  0.30218  0.59232  0.02583  1.0000
  H   H143      1.0  0.22257  0.96666  0.42991  1.0000
  C   C128      1.0  0.30875  0.84472  0.38592  1.0000
  H   H144      1.0  0.08701  0.89730  0.02479  1.0000
  H   H145      1.0  0.29317  0.66075  0.36429  1.0000
  C   C129      1.0  0.06321  0.89460  0.01025  1.0000
  H   H146      1.0  0.30059  0.62362  0.40118  1.0000
  Fe  Fe17      1.0  0.30627  0.93797  0.42787  1.0000
  C   C130      1.0  0.21814  0.64173  0.01040  1.0000
  H   H147      1.0  0.28838  0.70113  0.47029  1.0000
  C   C131      1.0  0.21858  0.98497  0.45628  1.0000
  H   H148      1.0  0.26636  0.94817  0.48311  1.0000
  H   H149      1.0  0.20015  0.52672  0.92236  1.0000
  C   C132      1.0  0.21543  0.93589  0.50362  1.0000
  S   S36       1.0  0.12195  0.52956  0.57228  1.0000
  C   C133      1.0  0.26270  0.56490  0.91259  1.0000
  H   H150      1.0  0.26736  0.54560  0.88776  1.0000
  C   C134      1.0  0.23335  0.59547  0.50356  1.0000
  S   S37       1.0  0.29826  0.52273  0.81466  1.0000
  C   C135      1.0  0.21416  0.57461  0.86697  1.0000
  H   H151      1.0  0.27101  0.95209  0.54261  1.0000
  H   H152      1.0  0.22679  0.50989  0.89564  1.0000
  H   H153      1.0  0.22271  0.57915  0.52376  1.0000
  S   S38       1.0  0.16902  0.50056  0.69641  1.0000
  C   C136      1.0  0.22344  0.52861  0.92196  1.0000
  C   C137      1.0  0.25547  0.52365  0.73524  1.0000
  H   H154      1.0  0.24056  0.63627  0.91369  1.0000
  H   H155      1.0  0.02052  0.96340  0.93687  1.0000
  C   C138      1.0  0.21645  0.58133  0.98499  1.0000
  H   H156      1.0  0.22106  0.59995  0.85509  1.0000
  H   H157      1.0  0.19167  0.93891  0.50000  1.0000
  C   C139      1.0  0.22706  0.51862  0.70829  1.0000
  H   H158      1.0  0.22679  0.64304  0.53734  1.0000
  C   C140      1.0  0.24155  0.49898  0.79964  1.0000
  C   C141      1.0  0.23239  0.62707  0.94166  1.0000
  H   H159      1.0  0.06321  0.61455  0.48998  1.0000
  N   N9        1.0  0.22952  0.97052  0.50254  1.0000
  H   H160      1.0  0.21639  0.55480  0.84108  1.0000
  C   C142      1.0  0.23214  0.98284  0.58459  1.0000
  C   C143      1.0  0.26282  0.51405  0.78111  1.0000
  H   H161      1.0  0.27645  0.55809  0.94664  1.0000
  H   H162      1.0  0.27178  0.53532  0.72057  1.0000
  C   C144      1.0  0.00207  0.96806  0.95096  1.0000
  C   C145      1.0  0.20557  0.50479  0.72743  1.0000
  H   H163      1.0  0.24272  0.95795  0.59406  1.0000
  H   H164      1.0  0.19068  0.57667  0.86623  1.0000
  C   C146      1.0  0.22826  0.65198  0.97327  1.0000
  H   H165      1.0  0.22454  0.92144  0.53550  1.0000
  Fe  Fe18      1.0  0.14744  0.51772  0.52038  1.0000
  N   N10       1.0  0.23153  0.56503  0.91280  1.0000
  H   H166      1.0  0.24891  0.68066  0.49034  1.0000
  S   S39       1.0  0.10887  0.95790  0.97522  1.0000
  H   H167      1.0  0.23701  0.51876  0.95478  1.0000
  C   C147      1.0  0.22659  0.59092  0.94649  1.0000
  H   H168      1.0  0.22158  0.52645  0.67316  1.0000
  H   H169      1.0  0.05964  0.87957  0.97801  1.0000
  C   C148      1.0  0.26120  0.96509  0.50991  1.0000
  C   C149      1.0  0.98749  0.48574  0.52691  1.0000
  C   C150      1.0  0.23553  0.63152  0.51095  1.0000
  H   H170      1.0  0.99092  0.49737  0.56022  1.0000
  H   H171      1.0  0.27022  0.59069  0.90303  1.0000
  Fe  Fe19      1.0  0.15366  0.49500  0.61992  1.0000
  S   S40       1.0  0.18119  0.48680  0.57070  1.0000
  H   H172      1.0  0.06562  0.57075  0.51240  1.0000
  C   C151      1.0  0.21299  0.49495  0.77317  1.0000
  H   H173      1.0  0.24697  0.49089  0.83451  1.0000
  H   H174      1.0  0.09642  0.58983  0.49888  1.0000
  H   H175      1.0  0.23330  0.67936  0.96941  1.0000
  C   C152      1.0  0.07229  0.58795  0.48732  1.0000
  C   C153      1.0  0.44099  0.98898  0.47435  1.0000
  Fe  Fe20      1.0  0.59174  0.45666  0.01824  1.0000
  H   H176      1.0  0.37347  0.07621  0.46913  1.0000
  S   S41       1.0  0.40555  0.00797  0.46237  1.0000
  S   S42       1.0  0.33003  0.03013  0.40094  1.0000
  C   C154      1.0  0.45160  0.48401  0.99458  1.0000
  S   S43       1.0  0.62096  0.41173  0.04875  1.0000
  H   H177      1.0  0.33805  0.08878  0.47314  1.0000
  S   S44       1.0  0.34229  0.45567  0.00102  1.0000
  H   H178      1.0  0.36700  0.12094  0.48159  1.0000
  H   H179      1.0  0.31718  0.05130  0.15983  1.0000
  H   H180      1.0  0.63921  0.33955  0.09723  1.0000
  C   C155      1.0  0.50838  0.46341  0.98881  1.0000
  Fe  Fe21      1.0  0.35897  0.98686  0.43722  1.0000
  H   H181      1.0  0.46219  0.03937  0.47935  1.0000
  C   C156      1.0  0.46537  0.01129  0.48184  1.0000
  H   H182      1.0  0.48575  0.43412  0.93015  1.0000
  H   H183      1.0  0.51234  0.01520  0.49765  1.0000
  C   C157      1.0  0.60236  0.21739  0.73921  1.0000
  H   H184      1.0  0.59288  0.19888  0.75981  1.0000
  S   S45       1.0  0.34888  0.45541  0.89619  1.0000
  H   H185      1.0  0.61252  0.20078  0.71710  1.0000
  H   H186      1.0  0.58466  0.23227  0.71608  1.0000
  S   S46       1.0  0.61007  0.98886  0.58117  1.0000
  C   C158      1.0  0.32510  0.14823  0.61758  1.0000
  C   C159      1.0  0.36062  0.10402  0.61208  1.0000
  C   C160      1.0  0.33327  0.13311  0.54449  1.0000
  H   H187      1.0  0.36863  0.03927  0.57829  1.0000
  C   C161      1.0  0.45523  0.46162  0.95995  1.0000
  H   H188      1.0  0.37620  0.08498  0.62952  1.0000
  C   C162      1.0  0.48337  0.45153  0.95709  1.0000
  N   N11       1.0  0.62388  0.24129  0.76820  1.0000
  C   C163      1.0  0.31861  0.31990  0.82645  1.0000
  H   H189      1.0  0.37279  0.03044  0.52293  1.0000
  H   H190      1.0  0.62609  0.07048  0.60827  1.0000
  C   C164      1.0  0.34591  0.12380  0.63810  1.0000
  C   C165      1.0  0.40155  0.08945  0.55347  1.0000
  H   H191      1.0  0.33722  0.31576  0.81253  1.0000
  C   C166      1.0  0.61832  0.31030  0.85613  1.0000
  H   H192      1.0  0.33165  0.18779  0.87387  1.0000
  H   H193      1.0  0.33594  0.12821  0.84862  1.0000
  H   H194      1.0  0.56638  0.24515  0.77829  1.0000
  H   H195      1.0  0.33815  0.04427  0.53057  1.0000
  C   C167      1.0  0.57085  0.28492  0.82803  1.0000
  H   H196      1.0  0.33954  0.36072  0.87245  1.0000
  H   H197      1.0  0.35006  0.11964  0.67428  1.0000
  H   H198      1.0  0.31308  0.16273  0.63770  1.0000
  H   H199      1.0  0.40998  0.08028  0.58877  1.0000
  C   C168      1.0  0.36198  0.04827  0.54268  1.0000
  C   C169      1.0  0.58911  0.30862  0.85632  1.0000
  Fe  Fe22      1.0  0.63392  0.00949  0.53161  1.0000
  C   C170      1.0  0.62941  0.28839  0.82760  1.0000
  S   S47       1.0  0.62062  0.47166  0.97233  1.0000
  H   H200      1.0  0.33179  0.23247  0.92741  1.0000
  H   H201      1.0  0.63248  0.32883  0.87813  1.0000
  H   H202      1.0  0.58064  0.32583  0.87842  1.0000
  C   C171      1.0  0.61149  0.26395  0.79826  1.0000
  H   H203      1.0  0.61991  0.28220  0.71857  1.0000
  C   C172      1.0  0.31994  0.34550  0.86026  1.0000
  N   N12       1.0  0.36960  0.08542  0.53742  1.0000
  H   H204      1.0  0.40810  0.11735  0.55185  1.0000
  H   H205      1.0  0.54809  0.28378  0.82829  1.0000
  C   C173      1.0  0.58173  0.26280  0.79933  1.0000
  C   C174      1.0  0.35468  0.10793  0.56437  1.0000
  Fe  Fe23      1.0  0.31942  0.43057  0.93495  1.0000
  H   H206      1.0  0.63090  0.11625  0.66794  1.0000
  H   H207      1.0  0.43635  0.45199  0.93535  1.0000
  S   S48       1.0  0.54327  0.44941  0.98302  1.0000
  C   C175      1.0  0.63632  0.26352  0.73783  1.0000
  C   C176      1.0  0.31536  0.16931  0.87824  1.0000
  C   C177      1.0  0.63974  0.09313  0.60800  1.0000
  C   C178      1.0  0.31813  0.13496  0.86348  1.0000
  C   C179      1.0  0.36161  0.09340  0.48825  1.0000
  C   C180      1.0  0.31893  0.15301  0.57096  1.0000
  C   C181      1.0  0.49391  0.99766  0.49229  1.0000
  H   H208      1.0  0.41320  0.07363  0.53252  1.0000
  H   H209      1.0  0.63909  0.20302  0.82037  1.0000
  H   H210      1.0  0.31202  0.24211  0.87007  1.0000
  H   H211      1.0  0.32655  0.13730  0.50845  1.0000
  C   C182      1.0  0.64251  0.11913  0.64179  1.0000
  Fe  Fe24      1.0  0.36959  0.48414  0.96137  1.0000
  C   C183      1.0  0.31032  0.24031  0.90577  1.0000
  C   C184      1.0  0.49523  0.90515  0.38972  1.0000
  C   C185      1.0  0.55624  0.87640  0.42703  1.0000
  S   S49       1.0  0.33814  0.94616  0.38515  1.0000
  C   C186      1.0  0.50062  0.86771  0.32807  1.0000
  C   C187      1.0  0.50479  0.48595  0.02341  1.0000
  C   C188      1.0  0.36714  0.55526  0.05804  1.0000
  C   C189      1.0  0.45267  0.88142  0.33766  1.0000
  C   C190      1.0  0.36018  0.56130  0.13362  1.0000
  H   H212      1.0  0.42715  0.93519  0.47253  1.0000
  C   C191      1.0  0.47039  0.86434  0.31413  1.0000
  H   H213      1.0  0.41433  0.57488  0.12027  1.0000
  H   H214      1.0  0.52365  0.49508  0.04840  1.0000
  H   H215      1.0  0.41518  0.53858  0.15805  1.0000
  C   C192      1.0  0.34820  0.61731  0.16494  1.0000
  C   C193      1.0  0.55498  0.58765  0.05008  1.0000
  C   C194      1.0  0.47663  0.49622  0.02611  1.0000
  Fe  Fe25      1.0  0.63420  0.93768  0.48407  1.0000
  C   C195      1.0  0.44556  0.95273  0.47778  1.0000
  C   C196      1.0  0.46509  0.90177  0.37541  1.0000
  H   H216      1.0  0.55497  0.60244  0.11840  1.0000
  C   C197      1.0  0.36364  0.59819  0.13935  1.0000
  H   H217      1.0  0.50381  0.92091  0.41944  1.0000
  S   S50       1.0  0.61303  0.49374  0.07419  1.0000
  H   H218      1.0  0.46060  0.84839  0.28487  1.0000
  H   H219      1.0  0.54627  0.88832  0.45291  1.0000
  C   C198      1.0  0.34048  0.54479  0.15542  1.0000
  H   H220      1.0  0.58813  0.65290  0.12065  1.0000
  H   H221      1.0  0.58594  0.88168  0.36365  1.0000
  C   C199      1.0  0.51398  0.88859  0.36631  1.0000
  H   H222      1.0  0.37855  0.54118  0.03542  1.0000
  S   S51       1.0  0.41656  0.49778  0.00008  1.0000
  H   H223      1.0  0.34717  0.49750  0.08802  1.0000
  H   H224      1.0  0.45131  0.91507  0.39381  1.0000
  C   C200      1.0  0.59235  0.64451  0.05291  1.0000
  H   H225      1.0  0.54596  0.94391  0.41450  1.0000
  H   H226      1.0  0.55101  0.84793  0.42562  1.0000
  H   H227      1.0  0.34342  0.55166  0.04391  1.0000
  H   H228      1.0  0.37203  0.58353  0.05558  1.0000
  N   N13       1.0  0.37603  0.54191  0.10497  1.0000
  C   C201      1.0  0.55328  0.93098  0.38645  1.0000
  H   H229      1.0  0.55554  0.88877  0.31685  1.0000
  H   H230      1.0  0.58020  0.87933  0.44010  1.0000
  H   H231      1.0  0.38298  0.48975  0.08159  1.0000
  C   C202      1.0  0.32913  0.60032  0.18589  1.0000
  S   S52       1.0  0.32948  0.97483  0.48345  1.0000
  H   H232      1.0  0.33559  0.51712  0.15194  1.0000
  C   C203      1.0  0.58137  0.63713  0.09017  1.0000
  H   H233      1.0  0.31643  0.61542  0.20436  1.0000
  H   H234      1.0  0.37778  0.61267  0.12315  1.0000
  H   H235      1.0  0.35034  0.64560  0.16762  1.0000
  H   H236      1.0  0.42022  0.53174  0.10198  1.0000
  H   H237      1.0  0.54343  0.94533  0.35471  1.0000
  C   C204      1.0  0.58478  0.62360  0.01403  1.0000
  C   C205      1.0  0.32541  0.56416  0.18135  1.0000
  H   H238      1.0  0.57718  0.93532  0.39434  1.0000
  C   C206      1.0  0.56217  0.87717  0.35127  1.0000
  H   H239      1.0  0.51300  0.85375  0.30834  1.0000
  H   H240      1.0  0.54114  0.56532  0.05112  1.0000
  N   N14       1.0  0.54584  0.89306  0.38212  1.0000
  H   H241      1.0  0.60776  0.66583  0.05493  1.0000
  H   H242      1.0  0.47420  0.51344  0.05317  1.0000
  C   C207      1.0  0.56283  0.60866  0.08886  1.0000
  C   C208      1.0  0.56544  0.59471  0.01120  1.0000
  C   C209      1.0  0.40778  0.54709  0.12219  1.0000
  H   H243      1.0  0.32663  0.86312  0.39320  1.0000
  H   H244      1.0  0.55945  0.84819  0.34903  1.0000
  H   H245      1.0  0.42926  0.87887  0.32675  1.0000
  H   H246      1.0  0.37708  0.49144  0.13727  1.0000
  H   H247      1.0  0.31278  0.66551  0.46794  1.0000
  C   C210      1.0  0.37051  0.50350  0.10313  1.0000
  H   H248      1.0  0.63042  0.88058  0.32880  1.0000
  S   S53       1.0  0.63688  0.91148  0.41673  1.0000
  C   C211      1.0  0.31069  0.81378  0.36153  1.0000
  H   H249      1.0  0.59351  0.53776  0.99486  1.0000
  H   H250      1.0  0.33008  0.80869  0.34995  1.0000
  H   H251      1.0  0.56092  0.52390  0.00971  1.0000
  H   H252      1.0  0.63793  0.60860  0.16369  1.0000
  H   H253      1.0  0.63607  0.56289  0.10506  1.0000
  S   S54       1.0  0.60330  0.98369  0.47182  1.0000
  H   H254      1.0  0.30981  0.55126  0.19653  1.0000
  H   H255      1.0  0.59504  0.63013  0.98725  1.0000
  H   H256      1.0  0.56416  0.51800  0.95328  1.0000
  Fe  Fe26      1.0  0.58172  0.95942  0.52231  1.0000
  S   S55       1.0  0.33820  0.52987  0.94565  1.0000
  N   N15       1.0  0.55718  0.57168  0.97083  1.0000
  C   C212      1.0  0.49848  0.96143  0.49602  1.0000
  Fe  Fe27      1.0  0.31045  0.50010  0.98275  1.0000
  S   S56       1.0  0.61146  0.91237  0.53254  1.0000
  H   H257      1.0  0.59224  0.58417  0.93997  1.0000
  H   H258      1.0  0.51476  0.59493  0.94913  1.0000
  H   H259      1.0  0.56082  0.56687  0.90179  1.0000
  C   C213      1.0  0.56802  0.58424  0.93191  1.0000
  C   C214      1.0  0.52509  0.56863  0.95552  1.0000
  S   S57       1.0  0.53385  0.94222  0.50834  1.0000
  H   H260      1.0  0.56001  0.61113  0.92160  1.0000
  H   H261      1.0  0.51547  0.55491  0.98050  1.0000
  C   C215      1.0  0.47409  0.93914  0.48881  1.0000
  H   H262      1.0  0.51829  0.55280  0.92390  1.0000
  Fe  Fe28      1.0  0.31538  0.49863  0.88420  1.0000
  Fe  Fe29      1.0  0.64144  0.94379  0.58752  1.0000
  H   H263      1.0  0.47730  0.91107  0.49177  1.0000
  C   C216      1.0  0.56946  0.53634  0.98270  1.0000
  H   H264      1.0  0.64666  0.36867  0.14436  1.0000
  H   H265      1.0  0.67553  0.30409  0.07901  1.0000
  S   S58       1.0  0.84204  0.41850  0.41608  1.0000
  H   H266      1.0  0.76524  0.43479  0.19629  1.0000
  C   C217      1.0  0.95401  0.46574  0.45733  1.0000
  Fe  Fe30      1.0  0.80971  0.44873  0.36295  1.0000
  S   S59       1.0  0.78991  0.42938  0.29141  1.0000
  C   C218      1.0  0.73450  0.34540  0.18514  1.0000
  S   S60       1.0  0.65933  0.44201  0.17641  1.0000
  C   C219      1.0  0.71223  0.35571  0.26072  1.0000
  S   S61       1.0  0.78627  0.47029  0.41278  1.0000
  C   C220      1.0  0.75402  0.43859  0.26036  1.0000
  C   C221      1.0  0.73126  0.44298  0.28153  1.0000
  C   C222      1.0  0.70238  0.44492  0.25532  1.0000
  C   C223      1.0  0.69610  0.44369  0.20781  1.0000
  C   C224      1.0  0.71909  0.44177  0.18675  1.0000
  C   C225      1.0  0.74778  0.43829  0.21292  1.0000
  H   H267      1.0  0.73574  0.44291  0.31806  1.0000
  S   S62       1.0  0.67653  0.46527  0.05959  1.0000
  H   H268      1.0  0.68445  0.39717  0.11652  1.0000
  S   S63       1.0  0.91846  0.45785  0.42249  1.0000
  H   H269      1.0  0.71257  0.37265  0.10058  1.0000
  C   C226      1.0  0.70388  0.34669  0.17870  1.0000
  C   C227      1.0  0.69064  0.30871  0.11278  1.0000
  H   H270      1.0  0.71283  0.30782  0.10706  1.0000
  H   H271      1.0  0.75677  0.35814  0.29880  1.0000
  H   H272      1.0  0.91841  0.38931  0.46425  1.0000
  C   C228      1.0  0.74211  0.35405  0.26581  1.0000
  H   H273      1.0  0.74423  0.34229  0.15688  1.0000
  C   C229      1.0  0.68975  0.37143  0.10344  1.0000
  H   H274      1.0  0.67602  0.36867  0.06841  1.0000
  Fe  Fe31      1.0  0.65099  0.42874  0.00562  1.0000
  N   N16       1.0  0.68453  0.34254  0.13282  1.0000
  H   H275      1.0  0.97482  0.44517  0.40738  1.0000
  H   H276      1.0  0.68848  0.28634  0.13511  1.0000
  Fe  Fe32      1.0  0.82092  0.44404  0.46679  1.0000
  Fe  Fe33      1.0  0.87054  0.46658  0.42341  1.0000
  H   H277      1.0  0.68478  0.44652  0.27198  1.0000
  C   C230      1.0  0.97018  0.08645  0.99277  1.0000
  H   H278      1.0  0.77656  0.34934  0.23218  1.0000
  C   C231      1.0  0.69326  0.35233  0.21790  1.0000
  H   H279      1.0  0.67045  0.35528  0.21636  1.0000
  H   H280      1.0  0.71488  0.44186  0.15036  1.0000
  C   C232      1.0  0.75323  0.34909  0.22809  1.0000
  C   C233      1.0  0.65314  0.34302  0.13212  1.0000
  H   H281      1.0  0.70375  0.36098  0.28999  1.0000
  Fe  Fe34      1.0  0.64509  0.45065  0.10034  1.0000
  H   H282      1.0  0.88548  0.36826  0.46632  1.0000
  H   H283      1.0  0.93500  0.98662  0.99948  1.0000
  H   H284      1.0  0.92622  0.09976  0.98910  1.0000
  H   H285      1.0  0.64748  0.32166  0.15320  1.0000
  H   H286      1.0  0.91908  0.34511  0.48524  1.0000
  C   C234      1.0  0.90856  0.37120  0.48498  1.0000
  Fe  Fe35      1.0  0.81267  0.00434  0.91343  1.0000
  S   S64       1.0  0.79558  0.05963  0.91900  1.0000
  Fe  Fe36      1.0  0.76152  0.22588  0.75615  1.0000
  S   S65       1.0  0.71900  0.22816  0.77592  1.0000
  S   S66       1.0  0.79852  0.18867  0.78757  1.0000
  Fe  Fe37      1.0  0.74093  0.27485  0.67418  1.0000
  S   S67       1.0  0.69653  0.27811  0.68786  1.0000
  S   S68       1.0  0.74485  0.30226  0.60859  1.0000
  Fe  Fe38      1.0  0.71928  0.28617  0.76125  1.0000
  S   S69       1.0  0.69911  0.33376  0.78926  1.0000
  Fe  Fe39      1.0  0.69974  0.22032  0.70142  1.0000
  H   H287      1.0  0.88931  0.12221  0.93516  1.0000
  S   S70       1.0  0.76393  0.28490  0.74706  1.0000
  S   S71       1.0  0.74204  0.21587  0.68211  1.0000
  S   S72       1.0  0.81878  0.41948  0.53493  1.0000
  H   H288      1.0  0.75387  0.35116  0.68748  1.0000
  H   H289      1.0  0.94710  0.40399  0.58508  1.0000
  H   H290      1.0  0.73948  0.35679  0.73634  1.0000
  C   C235      1.0  0.73389  0.41196  0.64710  1.0000
  C   C236      1.0  0.68123  0.37067  0.92523  1.0000
  H   H291      1.0  0.85549  0.36061  0.51271  1.0000
  C   C237      1.0  0.74667  0.37107  0.70921  1.0000
  C   C238      1.0  0.69300  0.34728  0.84247  1.0000
  C   C239      1.0  0.70248  0.32769  0.88208  1.0000
  C   C240      1.0  0.69662  0.33932  0.92304  1.0000
  C   C241      1.0  0.72271  0.09654  0.69490  1.0000
  C   C242      1.0  0.72312  0.40549  0.59998  1.0000
  H   H292      1.0  0.71439  0.30361  0.88128  1.0000
  H   H293      1.0  0.70412  0.32388  0.95336  1.0000
  C   C243      1.0  0.76673  0.33385  0.58890  1.0000
  C   C244      1.0  0.78964  0.35181  0.61792  1.0000
  C   C245      1.0  0.80532  0.37766  0.60066  1.0000
  C   C246      1.0  0.79863  0.38574  0.55417  1.0000
  C   C247      1.0  0.77617  0.36726  0.52502  1.0000
  C   C248      1.0  0.76030  0.34166  0.54235  1.0000
  H   H294      1.0  0.79525  0.34597  0.65364  1.0000
  H   H295      1.0  0.82273  0.39161  0.62356  1.0000
  C   C249      1.0  0.73415  0.42351  0.56796  1.0000
  H   H296      1.0  0.74272  0.32792  0.51947  1.0000
  C   C250      1.0  0.79411  0.09396  0.87917  1.0000
  C   C251      1.0  0.80594  0.09037  0.84167  1.0000
  C   C252      1.0  0.80648  0.11927  0.81305  1.0000
  C   C253      1.0  0.79425  0.15167  0.82062  1.0000
  C   C254      1.0  0.78148  0.15483  0.85718  1.0000
  C   C255      1.0  0.78159  0.12621  0.88640  1.0000
  H   H297      1.0  0.81505  0.06554  0.83509  1.0000
  H   H298      1.0  0.81645  0.11658  0.78493  1.0000
  H   H299      1.0  0.77243  0.17973  0.86389  1.0000
  H   H300      1.0  0.77236  0.12929  0.91526  1.0000
  C   C256      1.0  0.89640  0.41877  0.52937  1.0000
  C   C257      1.0  0.67191  0.12648  0.57375  1.0000
  C   C258      1.0  0.67510  0.15212  0.60798  1.0000
  H   H301      1.0  0.66581  0.23505  0.81546  1.0000
  C   C259      1.0  0.72562  0.05027  0.75010  1.0000
  H   H302      1.0  0.72033  0.10666  0.66119  1.0000
  S   S73       1.0  0.83432  0.98954  0.85868  1.0000
  H   H303      1.0  0.68868  0.17483  0.60754  1.0000
  C   C260      1.0  0.89040  0.05634  0.86066  1.0000
  H   H304      1.0  0.93754  0.35055  0.61382  1.0000
  C   C261      1.0  0.89897  0.35952  0.55814  1.0000
  H   H305      1.0  0.68329  0.12955  0.54732  1.0000
  C   C262      1.0  0.72774  0.11100  0.77378  1.0000
  C   C263      1.0  0.88739  0.10919  0.90195  1.0000
  H   H306      1.0  0.85858  0.05207  0.91958  1.0000
  H   H307      1.0  0.74185  0.99103  0.71220  1.0000
  C   C264      1.0  0.90189  0.32127  0.62389  1.0000
  H   H308      1.0  0.76552  0.01873  0.69028  1.0000
  N   N17       1.0  0.72308  0.39309  0.68211  1.0000
  H   H309      1.0  0.76605  0.38665  0.72615  1.0000
  H   H310      1.0  0.94396  0.04140  0.87598  1.0000
  H   H311      1.0  0.89598  0.02788  0.86186  1.0000
  H   H312      1.0  0.89953  0.12524  0.88230  1.0000
  C   C265      1.0  0.85650  0.32643  0.56782  1.0000
  H   H313      1.0  0.68873  0.99414  0.63662  1.0000
  H   H314      1.0  0.64428  0.24746  0.71280  1.0000
  C   C266      1.0  0.71372  0.41845  0.71278  1.0000
  H   H315      1.0  0.70420  0.40482  0.73813  1.0000
  H   H316      1.0  0.72069  0.02572  0.59843  1.0000
  H   H317      1.0  0.70683  0.38586  0.58689  1.0000
  H   H318      1.0  0.73203  0.43430  0.73282  1.0000
  H   H319      1.0  0.68994  0.35669  0.69042  1.0000
  H   H320      1.0  0.69707  0.43680  0.69337  1.0000
  C   C267      1.0  0.75660  0.43699  0.65985  1.0000
  H   H321      1.0  0.67945  0.38454  0.64199  1.0000
  H   H322      1.0  0.88507  0.06478  0.96908  1.0000
  H   H323      1.0  0.86669  0.05793  0.84496  1.0000
  H   H324      1.0  0.70406  0.34815  0.64248  1.0000
  C   C268      1.0  0.69800  0.36972  0.66318  1.0000
  H   H325      1.0  0.90559  0.43877  0.51028  1.0000
  H   H326      1.0  0.76649  0.44253  0.69499  1.0000
  N   N18       1.0  0.89809  0.07245  0.90649  1.0000
  S   S74       1.0  0.66241  0.18134  0.68428  1.0000
  H   H327      1.0  0.89039  0.02531  0.94003  1.0000
  C   C269      1.0  0.91498  0.34453  0.59944  1.0000
  C   C270      1.0  0.95018  0.05519  0.90787  1.0000
  C   C271      1.0  0.67757  0.37859  0.84460  1.0000
  H   H328      1.0  0.66997  0.39398  0.81429  1.0000
  H   H329      1.0  0.89737  0.42939  0.56375  1.0000
  H   H330      1.0  0.74313  0.06106  0.62680  1.0000
  C   C272      1.0  0.67172  0.39023  0.88557  1.0000
  H   H331      1.0  0.72436  0.14918  0.72132  1.0000
  H   H332      1.0  0.91434  0.31031  0.65548  1.0000
  C   C273      1.0  0.66021  0.14871  0.64198  1.0000
  S   S75       1.0  0.65211  0.06466  0.53068  1.0000
  H   H333      1.0  0.95203  0.41025  0.52958  1.0000
  H   H334      1.0  0.72952  0.13052  0.80018  1.0000
  H   H335      1.0  0.90150  0.06982  0.83729  1.0000
  C   C274      1.0  0.72494  0.12147  0.72928  1.0000
  H   H336      1.0  0.86249  0.29467  0.62741  1.0000
  C   C275      1.0  0.92964  0.07180  0.92804  1.0000
  H   H337      1.0  0.72623  0.41749  0.53228  1.0000
  C   C276      1.0  0.74368  0.00622  0.68217  1.0000
  C   C277      1.0  0.72324  0.06002  0.70437  1.0000
  H   H338      1.0  0.72528  0.02308  0.75985  1.0000
  C   C278      1.0  0.69177  0.01541  0.66244  1.0000
  N   N19       1.0  0.72036  0.03282  0.66873  1.0000
  N   N20       1.0  0.91178  0.38475  0.53164  1.0000
  C   C279      1.0  0.87271  0.31232  0.60816  1.0000
  H   H339      1.0  0.70414  0.06492  0.60989  1.0000
  H   H340      1.0  0.65521  0.27921  0.75655  1.0000
  C   C280      1.0  0.94316  0.39166  0.55097  1.0000
  H   H341      1.0  0.73078  0.06746  0.81914  1.0000
  C   C281      1.0  0.65426  0.09684  0.57356  1.0000
  H   H342      1.0  0.95621  0.36721  0.55313  1.0000
  C   C282      1.0  0.72233  0.04688  0.62422  1.0000
  H   H343      1.0  0.67369  0.03445  0.65116  1.0000
  C   C283      1.0  0.72826  0.07547  0.78428  1.0000
  H   H344      1.0  0.86391  0.11059  0.88427  1.0000
  C   C284      1.0  0.94058  0.08736  0.97125  1.0000
  H   H345      1.0  0.83364  0.31989  0.55600  1.0000
  C   C285      1.0  0.86931  0.34970  0.54317  1.0000
  H   H346      1.0  0.87309  0.41644  0.51197  1.0000
  C   C286      1.0  0.75635  0.44793  0.58166  1.0000
  C   C287      1.0  0.64730  0.21920  0.79586  1.0000
  C   C288      1.0  0.88240  0.05286  0.93504  1.0000
  H   H347      1.0  0.65979  0.41428  0.88644  1.0000
  H   H348      1.0  0.68893  0.00325  0.69414  1.0000
  H   H349      1.0  0.65654  0.20095  0.77439  1.0000
  H   H350      1.0  0.78543  0.47298  0.63792  1.0000
  S   S76       1.0  0.67404  0.38334  0.97801  1.0000
  H   H351      1.0  0.76556  0.46079  0.55668  1.0000
  C   C289      1.0  0.76761  0.45461  0.62750  1.0000
  C   C290      1.0  0.95885  0.48054  0.50061  1.0000
  H   H352      1.0  0.77071  0.37301  0.48923  1.0000
  H   H353      1.0  0.65220  0.29086  0.82850  1.0000
  H   H354      1.0  0.74297  0.98638  0.65503  1.0000
  Fe  Fe40      1.0  0.73119  0.78325  0.17588  1.0000
  S   S77       1.0  0.68915  0.78018  0.19849  1.0000
  S   S78       1.0  0.73168  0.82989  0.12784  1.0000
  Fe  Fe41      1.0  0.75745  0.72259  0.24026  1.0000
  S   S79       1.0  0.71806  0.71789  0.26731  1.0000
  S   S80       1.0  0.79519  0.68485  0.26478  1.0000
  Fe  Fe42      1.0  0.69398  0.72133  0.19419  1.0000
  C   C291      1.0  0.72405  0.55383  0.14478  1.0000
  Fe  Fe43      1.0  0.71721  0.77691  0.26947  1.0000
  S   S81       1.0  0.71714  0.80633  0.33572  1.0000
  S   S82       1.0  0.73352  0.72441  0.16662  1.0000
  S   S83       1.0  0.75903  0.78157  0.24730  1.0000
  H   H355      1.0  0.83349  0.62636  0.29477  1.0000
  C   C292      1.0  0.65903  0.88095  0.39573  1.0000
  H   H356      1.0  0.74416  0.69654  0.37750  1.0000
  Fe  Fe44      1.0  0.81777  0.51509  0.41792  1.0000
  S   S84       1.0  0.79769  0.56930  0.41551  1.0000
  H   H357      1.0  0.65461  0.97212  0.28973  1.0000
  C   C293      1.0  0.70227  0.84468  0.40357  1.0000
  C   C294      1.0  0.75508  0.84502  0.09391  1.0000
  C   C295      1.0  0.74736  0.87548  0.06754  1.0000
  C   C296      1.0  0.76521  0.88880  0.04050  1.0000
  C   C297      1.0  0.79120  0.87187  0.03951  1.0000
  C   C298      1.0  0.79880  0.84132  0.06567  1.0000
  C   C299      1.0  0.78095  0.82798  0.09265  1.0000
  H   H358      1.0  0.72742  0.88896  0.06806  1.0000
  H   H359      1.0  0.76827  0.76699  0.34792  1.0000
  H   H360      1.0  0.81878  0.82786  0.06520  1.0000
  H   H361      1.0  0.78730  0.80457  0.11258  1.0000
  C   C300      1.0  0.69364  0.83423  0.35784  1.0000
  C   C301      1.0  0.68216  0.93776  0.26222  1.0000
  C   C302      1.0  0.68506  0.86770  0.42248  1.0000
  H   H362      1.0  0.77989  0.72415  0.33687  1.0000
  C   C303      1.0  0.66738  0.84703  0.33126  1.0000
  H   H363      1.0  0.72919  0.61070  0.25849  1.0000
  C   C304      1.0  0.73010  0.53934  0.10599  1.0000
  H   H364      1.0  0.68516  0.67655  0.09542  1.0000
  H   H365      1.0  0.97435  0.60007  0.33678  1.0000
  H   H366      1.0  0.77822  0.69584  0.48315  1.0000
  N   N21       1.0  0.73282  0.55975  0.22916  1.0000
  C   C305      1.0  0.72035  0.90868  0.31741  1.0000
  H   H367      1.0  0.72251  0.83507  0.42457  1.0000
  C   C306      1.0  0.79382  0.64999  0.30264  1.0000
  C   C307      1.0  0.77157  0.64773  0.32512  1.0000
  C   C308      1.0  0.77267  0.62234  0.35885  1.0000
  C   C309      1.0  0.79545  0.59796  0.36926  1.0000
  C   C310      1.0  0.81687  0.59878  0.34492  1.0000
  C   C311      1.0  0.81623  0.62501  0.31216  1.0000
  H   H368      1.0  0.75387  0.66604  0.31732  1.0000
  H   H369      1.0  0.75600  0.62185  0.37744  1.0000
  H   H370      1.0  0.83461  0.58023  0.35275  1.0000
  N   N22       1.0  0.71409  0.89522  0.23356  1.0000
  C   C312      1.0  0.72042  0.92053  0.20035  1.0000
  C   C313      1.0  0.74008  0.87254  0.24847  1.0000
  C   C314      1.0  0.68963  0.87248  0.21036  1.0000
  C   C315      1.0  0.70597  0.91410  0.27120  1.0000
  H   H371      1.0  0.78734  0.48793  0.15521  1.0000
  C   C316      1.0  0.68765  0.94865  0.34210  1.0000
  C   C317      1.0  0.78339  0.74548  0.36260  1.0000
  S   S85       1.0  0.65916  0.67937  0.17289  1.0000
  H   H372      1.0  0.75894  0.91228  0.02071  1.0000
  H   H373      1.0  0.72777  0.90685  0.17265  1.0000
  H   H374      1.0  0.70111  0.93613  0.18342  1.0000
  H   H375      1.0  0.73787  0.93915  0.21694  1.0000
  H   H376      1.0  0.75945  0.88797  0.26608  1.0000
  H   H377      1.0  0.74589  0.85919  0.21931  1.0000
  C   C318      1.0  0.65907  0.59376  0.06620  1.0000
  H   H378      1.0  0.66968  0.88764  0.19524  1.0000
  H   H379      1.0  0.69498  0.85738  0.18214  1.0000
  H   H380      1.0  0.68410  0.85328  0.23440  1.0000
  H   H381      1.0  0.68641  0.55948  0.19990  1.0000
  H   H382      1.0  0.77524  0.55615  0.27520  1.0000
  H   H383      1.0  0.74069  0.71652  0.42909  1.0000
  H   H384      1.0  0.68271  0.63103  0.03605  1.0000
  C   C319      1.0  0.83776  0.66265  0.42658  1.0000
  H   H385      1.0  0.68015  0.96097  0.36931  1.0000
  H   H386      1.0  0.73242  0.74114  0.37830  1.0000
  C   C320      1.0  0.67480  0.65164  0.09798  1.0000
  C   C321      1.0  0.73406  0.59865  0.22791  1.0000
  H   H387      1.0  0.70072  0.51976  0.22793  1.0000
  H   H388      1.0  0.71686  0.54637  0.07285  1.0000
  H   H389      1.0  0.75730  0.50424  0.07956  1.0000
  C   C322      1.0  0.66173  0.64578  0.13371  1.0000
  C   C323      1.0  0.71129  0.92594  0.35210  1.0000
  H   H390      1.0  0.73811  0.89047  0.32791  1.0000
  C   C324      1.0  0.74770  0.72125  0.39749  1.0000
  C   C325      1.0  0.67321  0.62587  0.06418  1.0000
  H   H391      1.0  0.76838  0.78566  0.42303  1.0000
  C   C326      1.0  0.75235  0.54814  0.27259  1.0000
  C   C327      1.0  0.79800  0.70391  0.42647  1.0000
  C   C328      1.0  0.64705  0.58737  0.10296  1.0000
  H   H392      1.0  0.94591  0.56950  0.38302  1.0000
  C   C329      1.0  0.64823  0.61333  0.13634  1.0000
  C   C330      1.0  0.70286  0.54888  0.22931  1.0000
  N   N23       1.0  0.77841  0.73292  0.40614  1.0000
  S   S86       1.0  0.65599  0.56291  0.02154  1.0000
  H   H393      1.0  0.69659  0.55820  0.26019  1.0000
  H   H394      1.0  0.72203  0.92076  0.38716  1.0000
  C   C331      1.0  0.76973  0.50654  0.15231  1.0000
  C   C332      1.0  0.79464  0.68732  0.46649  1.0000
  C   C333      1.0  0.75285  0.51564  0.10974  1.0000
  H   H395      1.0  0.80557  0.77254  0.44551  1.0000
  H   H396      1.0  0.66030  0.83926  0.29618  1.0000
  C   C334      1.0  0.65034  0.87036  0.35004  1.0000
  H   H397      1.0  0.71803  0.60999  0.19852  1.0000
  H   H398      1.0  0.73625  0.85130  0.27127  1.0000
  H   H399      1.0  0.74619  0.55994  0.30237  1.0000
  H   H400      1.0  0.75156  0.51916  0.27681  1.0000
  H   H401      1.0  0.69213  0.87556  0.45758  1.0000
  H   H402      1.0  0.80566  0.75618  0.36673  1.0000
  S   S87       1.0  0.83970  0.49462  0.36603  1.0000
  C   C335      1.0  0.74053  0.54487  0.18873  1.0000
  C   C336      1.0  0.76377  0.52080  0.19140  1.0000
  H   H403      1.0  0.77741  0.51203  0.22324  1.0000
  H   H404      1.0  0.75600  0.60789  0.22608  1.0000
  C   C337      1.0  0.78268  0.76321  0.43769  1.0000
  H   H405      1.0  0.70613  0.57196  0.14008  1.0000
  C   C338      1.0  0.67318  0.95466  0.29724  1.0000
  S   S88       1.0  0.81457  0.88671  0.00539  1.0000
  H   H406      1.0  0.77748  0.75664  0.47028  1.0000
  Fe  Fe45      1.0  0.64332  0.50641  0.03055  1.0000
  H   H407      1.0  0.66992  0.94282  0.22803  1.0000
  S   S89       1.0  0.85088  0.49118  0.47614  1.0000
  C   C339      1.0  0.96935  0.57119  0.39466  1.0000
  H   H408      1.0  0.97086  0.54233  0.45544  1.0000
  H   H409      1.0  0.82452  0.70136  0.37655  1.0000
  C   C340      1.0  0.82047  0.69100  0.40735  1.0000
  H   H410      1.0  0.85394  0.65229  0.41039  1.0000
  C   C341      1.0  0.95351  0.98120  0.98583  1.0000
  C   C342      1.0  0.83326  0.64631  0.46502  1.0000
  H   H411      1.0  0.84581  0.62329  0.47847  1.0000
  C   C343      1.0  0.81188  0.65874  0.48512  1.0000
  H   H412      1.0  0.71392  0.78651  0.88189  1.0000
  S   S90       1.0  0.65858  0.92673  0.66083  1.0000
  Fe  Fe46      1.0  0.80644  0.94140  0.85150  1.0000
  H   H413      1.0  0.76096  0.88731  0.93722  1.0000
  S   S91       1.0  0.78795  0.91782  0.78182  1.0000
  H   H414      1.0  0.77410  0.82734  0.96266  1.0000
  S   S92       1.0  0.78246  0.95759  0.90317  1.0000
  Fe  Fe47      1.0  0.81809  0.93030  0.95449  1.0000
  S   S93       1.0  0.84036  0.91123  0.90140  1.0000
  H   H415      1.0  0.76320  0.79119  0.92489  1.0000
  C   C344      1.0  0.69507  0.92757  0.69283  1.0000
  C   C345      1.0  0.71790  0.91752  0.67412  1.0000
  C   C346      1.0  0.74629  0.91497  0.70181  1.0000
  C   C347      1.0  0.75227  0.92359  0.74803  1.0000
  C   C348      1.0  0.72960  0.93491  0.76641  1.0000
  C   C349      1.0  0.70104  0.93616  0.73908  1.0000
  H   H416      1.0  0.71350  0.91035  0.63873  1.0000
  H   H417      1.0  0.76369  0.90600  0.68742  1.0000
  C   C350      1.0  0.73054  0.84799  0.81066  1.0000
  S   S94       1.0  0.66663  0.96564  0.54014  1.0000
  C   C351      1.0  0.69308  0.79208  0.81249  1.0000
  H   H418      1.0  0.68342  0.94363  0.75388  1.0000
  H   H419      1.0  0.73389  0.94151  0.80195  1.0000
  H   H420      1.0  0.74431  0.87005  0.80832  1.0000
  H   H421      1.0  0.72365  0.87575  0.91373  1.0000
  N   N24       1.0  0.75450  0.84197  0.89346  1.0000
  C   C352      1.0  0.78385  0.84502  0.88482  1.0000
  C   C353      1.0  0.74545  0.87690  0.90644  1.0000
  C   C354      1.0  0.75704  0.81821  0.93280  1.0000
  C   C355      1.0  0.73324  0.82993  0.85210  1.0000
  C   C356      1.0  0.71377  0.80158  0.85194  1.0000
  C   C357      1.0  0.69103  0.81054  0.77244  1.0000
  H   H422      1.0  0.67479  0.80342  0.74205  1.0000
  H   H423      1.0  0.79038  0.82014  0.87092  1.0000
  H   H424      1.0  0.73662  0.81726  0.94444  1.0000
  H   H425      1.0  0.78529  0.86636  0.86069  1.0000
  S   S95       1.0  0.91390  0.96022  0.90615  1.0000
  H   H426      1.0  0.80071  0.85139  0.91630  1.0000
  Fe  Fe48      1.0  0.86677  0.96083  0.91320  1.0000
  C   C358      1.0  0.70974  0.83845  0.77155  1.0000
  H   H427      1.0  0.74424  0.89657  0.87920  1.0000
  H   H428      1.0  0.67836  0.77046  0.81303  1.0000
  H   H429      1.0  0.94060  0.48827  0.51372  1.0000
  H   H430      1.0  0.70797  0.85312  0.74049  1.0000
  C   C359      1.0  0.94918  0.96772  0.94196  1.0000
  S   S96       1.0  0.84675  0.97862  0.96934  1.0000
  H   H431      1.0  0.97061  0.95069  0.89097  1.0000
  C   C360      1.0  0.97368  0.96100  0.92491  1.0000
  H   H432      1.0  0.80822  0.64553  0.51465  1.0000
