data_image0
_chemical_formula_structural       CHCSC2S3FeSHCFeS2FeSHFeSFeS3C6HCHCHC2H3C7H4CHCH3CH2C2H4NC2NCH4SCH3CH2C2NSFeH4CH2CH2CHSHCHCHCH3CFeH6CHCFeC3H3CHFeHCS2FeSHCFeHS3FeS2FeS2FeSFeS3FeSHFeS2FeSFeS3FeS2FeS2FeSFeS3C6H4C6H4C6H4C7H3C6H5CH2C6H9CHSH4CH2NC2SHNC3H2C3H3CSHFeH5CH5NCNCH3CH6C2H2CHC3H2C3HCH2NH2C2H2C3HC2NHC2HCH3NC2HC2HCH2C2HC3H2C3HC2H2C2H6C3H3CHC2H4CHCH3C3HCH3CNH3CH3CHCH2NC6HCH3CSHC3HC2H2CH6CH3C2H4CH4CH5CFeH3FeS2FeSFeHS2HC2H2NHC4H2CH2C2H2NC3HC3H3CHC3H5CSC2H2CH4SCHC2H2SH3CFeHSH2CHCFeSHSHSCHCFeCHNC3H2CH2FeS2FeCSC2FeHS2H2C2HCH3C3H5SCSHCHC3HC4H3CHC6H4C2HCHC2HC2HC2SCHSCNH2CH3C2HCHCH5SC2HCH4SH2NHSHC2H3SFeCHC2HCH2CH2FeSH2C2HC2NHC2FeSFe2CHCH2FeHFeS2FeS2FeHFeCS2FeS2FeS2FeSFeSFeS4FeSH2C4HCH4C7H2C2HC6H6C5H3C3HC5H2CH3C6H5C2HSH2C2H2CHCH3SC2SC2SCHC3H5CH2C3H13N2HCHCHC3HSFeHFeS2H6CNC2HCSH3CSHCH2C2HCHC2H2CH2NC9H16CNC2H2CHCNHCHC3H3C2H5CHCHCNC9H11CNH3CHC2HSH3C2H2CHC2HCHC3H2C2HCHCH2CHCHCH2CH4C3S2HC6H2NSHCH2NCSFeSHFeS2FeSFeS3FeS2FeSCFeCFeSHSFeS2FeS2FeSFeS3FeSCFeS2FeHFeHS2FeS2FeS2FeSFeS3H2C6H4CH2C7H4C6H4NC4HCSH4C8H4C6H4C6H4C3H2NC9H14C3HSH3CNHC4HC2HCSHC2H5NHC8H10CNC6H2NH2CH3CH7CH2SH2CHCH6CH2C2HC3HCHNH3CHCHCNHC2HCH2CHCH8C2H6CHC2H2CHC2HC2HC2H4CHSCHSCH4CHC2H2FeS2FeS2FeSFeS3FeS2FeS2FeSFeS3FeSFeS2FeSFeS3FeH2FeS2FeCFeHS2FeSFeS2Fe2HS2CHC6H4C6H4C6H4C6H5C7H4C6H4C6H4CNC3HCH2CSC2HC3H2CHCHCSH5C2NHCH3CHSCHNC5H10NC9H14NC9H11CH5C2H4C3H3C2HCHS2HCHC4H2C2HCHC2H2CHC2HCHCH2CHC2H7CH3CHNSHC2NH3CH5SHC2NC3HCHCHCHCH6C2NCH2C3HC2HC3H2C3H5CHNH3CSH5CHCH2C3HFeHSFeS2FeHFeHS2FeS2FeSFeCFeS2FeSCFeSHFeSFeS2NFeSFeSHFeSFeS2FeS3C6H4CHCSHCH3SC6H7FeHC5H2CNC6SCH3SHCHC6H4C2HCHCHNC9H14C4H7CH3CHCHCNHC4H2C7H5S2HC2HSNHC3HC2HC3H4CH3C2HC2HCH2CH2C2H2CHSN2CHSH5CH3C2H3C2H6CSH2CH4C3H4C2SH2SCNCHSCNHCHCSHCH5CH2CH2CHCH2CH2S2H2C2HC2H2CHC4H2CH3C2H2FeHC3H2NHSH2CHCHC2HCHSC2H3C2H5CH4C2HC2H3C4SH3SCHCH2FeS2Fe2CFeCHS2CH6CH2NCH4C7H4CHCH3CH5CH3CH3CSCHCHCHC2HCHNC7H4CFeCH2C2H2CHFeSCFeHCFeSCSCHCHCHC2SFeH4C6H2CH2CH3CNCHCH2CHCH5CNCH4SHC3H2C3H2CH4CH3CHSHSC2HC3H4CH4C2HCH2C2H2CFeS2FeS2FeSFeS3FeS2FeS2Fe2S3FeS2FeS2FeSFeHS2FeS2FeSFeSFeS3FeS2FeS2FeSFeS3FeS3HC6H4C6H5C2H2C6H4C6H4C6H4C6H3C2H2CH2C6H5CH5NC7H13CHCHC2H5NC8H10C2H2CNH6CHCH2C2NH4C3HCHSHC2HC4H2C2HCHCH2CHC3H4CH2CHC2H2CH2C2NCHC2HC8H4CH3CHCH2CHCH4CH2CHNCHCH5C2H4CHC3HC2HCHCHCH2C2H2NH2CHSH2C3HCHC3H7CHCH2C2HC2H3NH5CHNC4H4SCHNHNH2C2HC2H4FeS2H5C3SCSHC3HFeH3NC2SFeH2C2
_chemical_formula_sum              "C1080 H1296 S288 Fe144 N72"
_cell_length_a       86.2591
_cell_length_b       83.882
_cell_length_c       36.2308
_cell_angle_alpha    90.8798
_cell_angle_beta     89.9209
_cell_angle_gamma    111.851

_space_group_name_H-M_alt    "P 1"
_space_group_IT_number       1

loop_
  _space_group_symop_operation_xyz
  'x, y, z'

loop_
  _atom_site_type_symbol
  _atom_site_label
  _atom_site_symmetry_multiplicity
  _atom_site_fract_x
  _atom_site_fract_y
  _atom_site_fract_z
  _atom_site_occupancy
  C   C1        1.0  0.19714  0.44111  0.41165  1.0000
  H   H1        1.0  0.99608  0.46373  0.05672  1.0000
  C   C2        1.0  0.21722  0.46871  0.82235  1.0000
  S   S1        1.0  0.14433  0.47919  0.80993  1.0000
  C   C3        1.0  0.21816  0.46957  0.42272  1.0000
  C   C4        1.0  0.04851  0.39830  0.15488  1.0000
  S   S2        1.0  0.16935  0.48173  0.71392  1.0000
  S   S3        1.0  0.15976  0.47263  0.32937  1.0000
  S   S4        1.0  0.15199  0.47024  0.61362  1.0000
  Fe  Fe1       1.0  0.15169  0.48926  0.75058  1.0000
  S   S5        1.0  0.15533  0.47101  0.43666  1.0000
  H   H2        1.0  0.07953  0.42089  0.09705  1.0000
  C   C5        1.0  0.15606  0.48754  0.54544  1.0000
  Fe  Fe2       1.0  0.04080  0.43560  0.02917  1.0000
  S   S6        1.0  0.06528  0.43169  0.01897  1.0000
  S   S7        1.0  0.01456  0.41848  0.05113  1.0000
  Fe  Fe3       1.0  0.05847  0.47420  0.02113  1.0000
  S   S8        1.0  0.08387  0.47360  0.01033  1.0000
  H   H3        1.0  0.19100  0.47844  0.40403  1.0000
  Fe  Fe4       1.0  0.07042  0.45121  0.97283  1.0000
  S   S9        1.0  0.07832  0.45094  0.91165  1.0000
  Fe  Fe5       1.0  0.07776  0.45477  0.05714  1.0000
  S   S10       1.0  0.09894  0.45624  0.09800  1.0000
  S   S11       1.0  0.04510  0.45318  0.98087  1.0000
  S   S12       1.0  0.05324  0.45727  0.07014  1.0000
  C   C6        1.0  0.11803  0.47584  0.21680  1.0000
  C   C7        1.0  0.09187  0.42257  0.16944  1.0000
  C   C8        1.0  0.09615  0.46926  0.16878  1.0000
  C   C9        1.0  0.10619  0.46484  0.14332  1.0000
  C   C10       1.0  0.12231  0.46632  0.15479  1.0000
  C   C11       1.0  0.12824  0.47189  0.19104  1.0000
  H   H4        1.0  0.13023  0.46292  0.13557  1.0000
  C   C12       1.0  0.06944  0.40948  0.10858  1.0000
  H   H5        1.0  0.17146  0.46703  0.79294  1.0000
  C   C13       1.0  0.99358  0.40622  0.03548  1.0000
  H   H6        1.0  0.06962  0.48802  0.89863  1.0000
  C   C14       1.0  0.15189  0.45746  0.50533  1.0000
  C   C15       1.0  0.15118  0.45728  0.54398  1.0000
  H   H7        1.0  0.22541  0.48792  0.59833  1.0000
  H   H8        1.0  0.15000  0.44563  0.49033  1.0000
  H   H9        1.0  0.14885  0.44534  0.55812  1.0000
  C   C16       1.0  0.12574  0.47164  0.83757  1.0000
  C   C17       1.0  0.12725  0.47224  0.87642  1.0000
  C   C18       1.0  0.11301  0.46620  0.89952  1.0000
  C   C19       1.0  0.09695  0.45900  0.88415  1.0000
  C   C20       1.0  0.09546  0.45834  0.84530  1.0000
  C   C21       1.0  0.10966  0.46476  0.82223  1.0000
  C   C22       1.0  0.22928  0.46467  0.44458  1.0000
  H   H10       1.0  0.11451  0.46682  0.92921  1.0000
  H   H11       1.0  0.08317  0.45280  0.83286  1.0000
  H   H12       1.0  0.10815  0.46404  0.79253  1.0000
  H   H13       1.0  0.17640  0.47742  0.85955  1.0000
  C   C23       1.0  0.19032  0.46532  0.39637  1.0000
  H   H14       1.0  0.18934  0.46905  0.76498  1.0000
  C   C24       1.0  0.18457  0.46757  0.79379  1.0000
  H   H15       1.0  0.07764  0.43581  0.26267  1.0000
  H   H16       1.0  0.13955  0.47745  0.88884  1.0000
  H   H17       1.0  0.11627  0.43088  0.19483  1.0000
  C   C25       1.0  0.10321  0.42891  0.19865  1.0000
  H   H18       1.0  0.01966  0.47448  0.97969  1.0000
  H   H19       1.0  0.14057  0.47269  0.19926  1.0000
  C   C26       1.0  0.19303  0.45933  0.45989  1.0000
  C   C27       1.0  0.05558  0.42722  0.13348  1.0000
  H   H20       1.0  0.09387  0.47746  0.22473  1.0000
  H   H21       1.0  0.01093  0.45791  0.03065  1.0000
  H   H22       1.0  0.06584  0.43949  0.12628  1.0000
  H   H23       1.0  0.17677  0.45708  0.39627  1.0000
  N   N1        1.0  0.06243  0.41399  0.14293  1.0000
  C   C28       1.0  0.23357  0.46937  0.81803  1.0000
  C   C29       1.0  0.99376  0.47219  0.98677  1.0000
  N   N2        1.0  0.20000  0.45913  0.42251  1.0000
  C   C30       1.0  0.15680  0.48774  0.50612  1.0000
  H   H24       1.0  0.19471  0.46531  0.36748  1.0000
  H   H25       1.0  0.07454  0.39930  0.11339  1.0000
  H   H26       1.0  0.17930  0.45184  0.46046  1.0000
  H   H27       1.0  0.22837  0.47051  0.71189  1.0000
  S   S13       1.0  0.20506  0.48471  0.30302  1.0000
  C   C31       1.0  0.09805  0.43357  0.23215  1.0000
  H   H28       1.0  0.23261  0.47371  0.30877  1.0000
  H   H29       1.0  0.20235  0.43466  0.43199  1.0000
  H   H30       1.0  0.03919  0.39276  0.13229  1.0000
  C   C32       1.0  0.22540  0.48460  0.40127  1.0000
  H   H31       1.0  0.10706  0.43911  0.25419  1.0000
  H   H32       1.0  0.05325  0.38825  0.16351  1.0000
  C   C33       1.0  0.15467  0.47257  0.48588  1.0000
  C   C34       1.0  0.10199  0.47458  0.20519  1.0000
  N   N3        1.0  0.19538  0.48184  0.81792  1.0000
  S   S14       1.0  0.12419  0.48161  0.26406  1.0000
  Fe  Fe6       1.0  0.15970  0.48649  0.38338  1.0000
  H   H33       1.0  0.18356  0.43312  0.40924  1.0000
  H   H34       1.0  0.04681  0.42317  0.10948  1.0000
  H   H35       1.0  0.05732  0.42442  0.21269  1.0000
  H   H36       1.0  0.09695  0.41994  0.14384  1.0000
  C   C35       1.0  0.23773  0.48759  0.30790  1.0000
  H   H37       1.0  0.04150  0.40087  0.17851  1.0000
  H   H38       1.0  0.18532  0.49573  0.59750  1.0000
  C   C36       1.0  0.99086  0.44276  0.97395  1.0000
  H   H39       1.0  0.19880  0.45380  0.48101  1.0000
  H   H40       1.0  0.04854  0.43015  0.15656  1.0000
  C   C37       1.0  0.01071  0.48059  0.97643  1.0000
  H   H41       1.0  0.05983  0.40462  0.08635  1.0000
  S   S15       1.0  0.13705  0.49253  0.70149  1.0000
  H   H42       1.0  0.08374  0.46818  0.16076  1.0000
  C   C38       1.0  0.08147  0.43179  0.23677  1.0000
  H   H43       1.0  0.18375  0.45476  0.80331  1.0000
  C   C39       1.0  0.07482  0.42054  0.17324  1.0000
  H   H44       1.0  0.22472  0.45354  0.46198  1.0000
  C   C40       1.0  0.06998  0.42533  0.20788  1.0000
  H   H45       1.0  0.08441  0.48436  0.86914  1.0000
  H   H46       1.0  0.19564  0.49039  0.63472  1.0000
  H   H47       1.0  0.20295  0.44060  0.38437  1.0000
  C   C41       1.0  0.15319  0.47219  0.56452  1.0000
  Fe  Fe7       1.0  0.15622  0.48764  0.66485  1.0000
  H   H48       1.0  0.19484  0.47265  0.46894  1.0000
  H   H49       1.0  0.00437  0.44582  0.96889  1.0000
  H   H50       1.0  0.19381  0.47941  0.59091  1.0000
  H   H51       1.0  0.20786  0.45667  0.83078  1.0000
  H   H52       1.0  0.18989  0.46590  0.86626  1.0000
  H   H53       1.0  0.00005  0.40007  0.98118  1.0000
  C   C42       1.0  0.18958  0.47827  0.85654  1.0000
  H   H54       1.0  0.20826  0.48540  0.71449  1.0000
  C   C43       1.0  0.23292  0.48439  0.71144  1.0000
  Fe  Fe8       1.0  0.18440  0.49424  0.31910  1.0000
  C   C44       1.0  0.19615  0.49215  0.60424  1.0000
  C   C45       1.0  0.21297  0.48318  0.81510  1.0000
  C   C46       1.0  0.07866  0.49385  0.87604  1.0000
  H   H55       1.0  0.23647  0.45804  0.82260  1.0000
  H   H56       1.0  0.99293  0.44151  0.04838  1.0000
  H   H57       1.0  0.21804  0.48942  0.38377  1.0000
  C   C47       1.0  0.99735  0.45446  0.03577  1.0000
  H   H58       1.0  0.07150  0.49489  0.85127  1.0000
  Fe  Fe9       1.0  0.14769  0.48911  0.30182  1.0000
  H   H59       1.0  0.19751  0.48860  0.87566  1.0000
  C   C48       1.0  0.22151  0.49279  0.71310  1.0000
  S   S16       1.0  0.17341  0.51517  0.66181  1.0000
  S   S17       1.0  0.16906  0.51708  0.75180  1.0000
  Fe  Fe10      1.0  0.15549  0.51985  0.70137  1.0000
  S   S18       1.0  0.14654  0.54175  0.69740  1.0000
  H   H60       1.0  0.01327  0.54652  0.91660  1.0000
  C   C49       1.0  0.18774  0.70733  0.44384  1.0000
  Fe  Fe11      1.0  0.17054  0.52077  0.34482  1.0000
  H   H61       1.0  0.22538  0.52157  0.30339  1.0000
  S   S19       1.0  0.17404  0.54773  0.36298  1.0000
  S   S20       1.0  0.18478  0.50706  0.37407  1.0000
  S   S21       1.0  0.17241  0.51001  0.28830  1.0000
  Fe  Fe12      1.0  0.19820  0.67511  0.66257  1.0000
  S   S22       1.0  0.17140  0.67006  0.64632  1.0000
  S   S23       1.0  0.21417  0.70381  0.66803  1.0000
  Fe  Fe13      1.0  0.19180  0.63698  0.66030  1.0000
  S   S24       1.0  0.16536  0.63009  0.64244  1.0000
  S   S25       1.0  0.20124  0.61546  0.66775  1.0000
  Fe  Fe14      1.0  0.17513  0.65203  0.60357  1.0000
  S   S26       1.0  0.16374  0.64767  0.54548  1.0000
  Fe  Fe15      1.0  0.16427  0.64845  0.68739  1.0000
  S   S27       1.0  0.14099  0.63578  0.72321  1.0000
  S   S28       1.0  0.20196  0.65776  0.61810  1.0000
  S   S29       1.0  0.19070  0.65472  0.70653  1.0000
  Fe  Fe16      1.0  0.21063  0.66984  0.25692  1.0000
  S   S30       1.0  0.19032  0.67701  0.28210  1.0000
  H   H62       1.0  0.03388  0.54361  0.00559  1.0000
  Fe  Fe17      1.0  0.18977  0.63133  0.26319  1.0000
  S   S31       1.0  0.16822  0.63558  0.29061  1.0000
  S   S32       1.0  0.19109  0.60615  0.24436  1.0000
  Fe  Fe18      1.0  0.17247  0.65546  0.24616  1.0000
  S   S33       1.0  0.15121  0.65813  0.21204  1.0000
  Fe  Fe19      1.0  0.18786  0.65657  0.32414  1.0000
  S   S34       1.0  0.19511  0.66497  0.38434  1.0000
  S   S35       1.0  0.19318  0.65023  0.21794  1.0000
  S   S36       1.0  0.20883  0.65023  0.29958  1.0000
  Fe  Fe20      1.0  0.07005  0.59036  0.96187  1.0000
  S   S37       1.0  0.08293  0.58434  0.01090  1.0000
  S   S38       1.0  0.04274  0.57281  0.94703  1.0000
  Fe  Fe21      1.0  0.10417  0.61591  0.93083  1.0000
  S   S39       1.0  0.11874  0.61066  0.97747  1.0000
  S   S40       1.0  0.12158  0.63717  0.89402  1.0000
  Fe  Fe22      1.0  0.10188  0.58330  0.96945  1.0000
  S   S41       1.0  0.11157  0.56205  0.97007  1.0000
  Fe  Fe23      1.0  0.09887  0.61252  0.01501  1.0000
  S   S42       1.0  0.10496  0.62873  0.06853  1.0000
  S   S43       1.0  0.08878  0.58798  0.92009  1.0000
  S   S44       1.0  0.08457  0.61907  0.96885  1.0000
  C   C50       1.0  0.13896  0.64850  0.17193  1.0000
  C   C51       1.0  0.12522  0.65304  0.16456  1.0000
  C   C52       1.0  0.11515  0.64665  0.13321  1.0000
  C   C53       1.0  0.11848  0.63553  0.10800  1.0000
  C   C54       1.0  0.13227  0.63079  0.11494  1.0000
  C   C55       1.0  0.14247  0.63723  0.14693  1.0000
  H   H63       1.0  0.12231  0.66169  0.18334  1.0000
  H   H64       1.0  0.10466  0.65049  0.12839  1.0000
  H   H65       1.0  0.13503  0.62220  0.09582  1.0000
  H   H66       1.0  0.15302  0.63359  0.15219  1.0000
  C   C56       1.0  0.17289  0.65118  0.50078  1.0000
  C   C57       1.0  0.19016  0.65864  0.49557  1.0000
  C   C58       1.0  0.19671  0.66241  0.45965  1.0000
  C   C59       1.0  0.18616  0.65823  0.42842  1.0000
  C   C60       1.0  0.16894  0.65005  0.43353  1.0000
  C   C61       1.0  0.16236  0.64669  0.46954  1.0000
  H   H67       1.0  0.19847  0.66174  0.51913  1.0000
  H   H68       1.0  0.21005  0.66864  0.45605  1.0000
  H   H69       1.0  0.16066  0.64685  0.40986  1.0000
  H   H70       1.0  0.14897  0.64083  0.47320  1.0000
  C   C62       1.0  0.13604  0.63655  0.77091  1.0000
  C   C63       1.0  0.12135  0.62392  0.78450  1.0000
  C   C64       1.0  0.11700  0.62360  0.82216  1.0000
  C   C65       1.0  0.12705  0.63626  0.84669  1.0000
  C   C66       1.0  0.14166  0.64903  0.83306  1.0000
  C   C67       1.0  0.14624  0.64908  0.79554  1.0000
  H   H71       1.0  0.11321  0.61431  0.76567  1.0000
  H   H72       1.0  0.10560  0.61385  0.83195  1.0000
  H   H73       1.0  0.14947  0.65899  0.85161  1.0000
  H   H74       1.0  0.15750  0.65897  0.78557  1.0000
  C   C68       1.0  0.06788  0.51522  0.00760  1.0000
  C   C69       1.0  0.08424  0.51652  0.01468  1.0000
  C   C70       1.0  0.09775  0.53087  0.00285  1.0000
  C   C71       1.0  0.09485  0.54409  0.98482  1.0000
  C   C72       1.0  0.07848  0.54294  0.97834  1.0000
  C   C73       1.0  0.06501  0.52845  0.98954  1.0000
  C   C74       1.0  0.10055  0.50850  0.91984  1.0000
  H   H75       1.0  0.11042  0.53187  0.00834  1.0000
  H   H76       1.0  0.07618  0.55301  0.96377  1.0000
  H   H77       1.0  0.05239  0.52739  0.98358  1.0000
  C   C75       1.0  0.17960  0.56406  0.33010  1.0000
  C   C76       1.0  0.18326  0.56094  0.29374  1.0000
  C   C77       1.0  0.18692  0.57401  0.26762  1.0000
  C   C78       1.0  0.18706  0.59025  0.27787  1.0000
  C   C79       1.0  0.18367  0.59346  0.31436  1.0000
  C   C80       1.0  0.17990  0.58035  0.34041  1.0000
  H   H78       1.0  0.18331  0.54850  0.28582  1.0000
  H   H79       1.0  0.18960  0.57153  0.23941  1.0000
  H   H80       1.0  0.18380  0.60598  0.32244  1.0000
  H   H81       1.0  0.17711  0.58281  0.36856  1.0000
  H   H82       1.0  0.10727  0.65264  0.01007  1.0000
  C   C81       1.0  0.02112  0.56554  0.96038  1.0000
  H   H83       1.0  0.23275  0.71713  0.41597  1.0000
  H   H84       1.0  0.17757  0.60608  0.75347  1.0000
  C   C82       1.0  0.16199  0.56202  0.68943  1.0000
  C   C83       1.0  0.17879  0.56425  0.68513  1.0000
  C   C84       1.0  0.19080  0.58070  0.67854  1.0000
  C   C85       1.0  0.18608  0.59497  0.67670  1.0000
  C   C86       1.0  0.16931  0.59267  0.68170  1.0000
  C   C87       1.0  0.15729  0.57624  0.68750  1.0000
  H   H85       1.0  0.18254  0.55333  0.68677  1.0000
  H   H86       1.0  0.20376  0.58238  0.67491  1.0000
  H   H87       1.0  0.16556  0.60351  0.68189  1.0000
  H   H88       1.0  0.14429  0.57455  0.69060  1.0000
  H   H89       1.0  0.09760  0.54120  0.84663  1.0000
  H   H90       1.0  0.04096  0.56462  0.02615  1.0000
  H   H91       1.0  0.13912  0.58989  0.55275  1.0000
  H   H92       1.0  0.22523  0.71319  0.23757  1.0000
  H   H93       1.0  0.03216  0.52073  0.09333  1.0000
  C   C88       1.0  0.23397  0.70517  0.40517  1.0000
  H   H94       1.0  0.18238  0.59821  0.79573  1.0000
  S   S45       1.0  0.05093  0.49700  0.02042  1.0000
  H   H95       1.0  0.22648  0.64909  0.22636  1.0000
  H   H96       1.0  0.14566  0.66230  0.06208  1.0000
  H   H97       1.0  0.16864  0.58365  0.76188  1.0000
  H   H98       1.0  0.14606  0.53038  0.20046  1.0000
  C   C89       1.0  0.14717  0.52913  0.23071  1.0000
  H   H99       1.0  0.19695  0.65668  0.10451  1.0000
  H   H100      1.0  0.11132  0.65371  0.96119  1.0000
  N   N4        1.0  0.13509  0.53442  0.25189  1.0000
  C   C90       1.0  0.11794  0.52404  0.23876  1.0000
  C   C91       1.0  0.13866  0.55290  0.24611  1.0000
  S   S46       1.0  0.23799  0.68554  0.24560  1.0000
  H   H101      1.0  0.01022  0.51845  0.94526  1.0000
  N   N5        1.0  0.03587  0.54432  0.06525  1.0000
  C   C92       1.0  0.19974  0.64691  0.11928  1.0000
  C   C93       1.0  0.22737  0.51074  0.71368  1.0000
  C   C94       1.0  0.13778  0.55900  0.21011  1.0000
  H   H102      1.0  0.10856  0.52823  0.25270  1.0000
  H   H103      1.0  0.13201  0.55688  0.90857  1.0000
  C   C95       1.0  0.14541  0.58818  0.23317  1.0000
  C   C96       1.0  0.01653  0.49708  0.96173  1.0000
  C   C97       1.0  0.11294  0.50898  0.84258  1.0000
  H   H104      1.0  0.11626  0.55106  0.79463  1.0000
  H   H105      1.0  0.13647  0.64795  0.96712  1.0000
  H   H106      1.0  0.19087  0.51308  0.47852  1.0000
  C   C98       1.0  0.11407  0.66133  0.98751  1.0000
  S   S47       1.0  0.21366  0.52193  0.71769  1.0000
  H   H107      1.0  0.15875  0.49947  0.49154  1.0000
  Fe  Fe24      1.0  0.18546  0.50967  0.71242  1.0000
  H   H108      1.0  0.13341  0.59808  0.77603  1.0000
  H   H109      1.0  0.13197  0.64465  0.01510  1.0000
  H   H110      1.0  0.13910  0.67350  0.93793  1.0000
  H   H111      1.0  0.17518  0.62767  0.11059  1.0000
  H   H112      1.0  0.99251  0.55847  0.11715  1.0000
  C   C99       1.0  0.13856  0.65462  0.99456  1.0000
  H   H113      1.0  0.10850  0.67125  0.98479  1.0000
  H   H114      1.0  0.18995  0.51110  0.54574  1.0000
  H   H115      1.0  0.14453  0.56206  0.30361  1.0000
  H   H116      1.0  0.19089  0.70931  0.61307  1.0000
  H   H117      1.0  0.16024  0.53706  0.23890  1.0000
  N   N6        1.0  0.09127  0.51081  0.88715  1.0000
  C   C100      1.0  0.10295  0.51790  0.85621  1.0000
  N   N7        1.0  0.13226  0.66886  0.99528  1.0000
  C   C101      1.0  0.14062  0.68060  0.96488  1.0000
  H   H118      1.0  0.19399  0.68167  0.56308  1.0000
  H   H119      1.0  0.15222  0.65936  0.00010  1.0000
  H   H120      1.0  0.20004  0.50890  0.82468  1.0000
  C   C102      1.0  0.21633  0.72440  0.57016  1.0000
  H   H121      1.0  0.11454  0.51013  0.24444  1.0000
  H   H122      1.0  0.15424  0.68713  0.97043  1.0000
  H   H123      1.0  0.13534  0.69065  0.96056  1.0000
  H   H124      1.0  0.02167  0.56203  0.11315  1.0000
  H   H125      1.0  0.15158  0.61168  0.56560  1.0000
  H   H126      1.0  0.12927  0.71285  0.07223  1.0000
  C   C103      1.0  0.01299  0.55231  0.09553  1.0000
  C   C104      1.0  0.03766  0.52741  0.06742  1.0000
  H   H127      1.0  0.21439  0.51036  0.44361  1.0000
  H   H128      1.0  0.15638  0.59643  0.49508  1.0000
  C   C105      1.0  0.13524  0.67840  0.03100  1.0000
  H   H129      1.0  0.11648  0.52489  0.20848  1.0000
  C   C106      1.0  0.18742  0.70880  0.58328  1.0000
  C   C107      1.0  0.20526  0.69367  0.56569  1.0000
  C   C108      1.0  0.15083  0.59815  0.56708  1.0000
  H   H130      1.0  0.16918  0.61697  0.51312  1.0000
  H   H131      1.0  0.14946  0.59484  0.59683  1.0000
  C   C109      1.0  0.16055  0.55031  0.52020  1.0000
  C   C110      1.0  0.23630  0.71385  0.66589  1.0000
  C   C111      1.0  0.22618  0.50440  0.53044  1.0000
  H   H132      1.0  0.18304  0.62044  0.57084  1.0000
  C   C112      1.0  0.16352  0.57765  0.55094  1.0000
  H   H133      1.0  0.14051  0.58081  0.17614  1.0000
  H   H134      1.0  0.18362  0.71986  0.57797  1.0000
  N   N8        1.0  0.20142  0.70919  0.55895  1.0000
  H   H135      1.0  0.12487  0.69716  0.01337  1.0000
  H   H136      1.0  0.17619  0.69683  0.57960  1.0000
  C   C113      1.0  0.14440  0.59570  0.76511  1.0000
  C   C114      1.0  0.14229  0.67347  0.06226  1.0000
  H   H137      1.0  0.17476  0.68529  0.52253  1.0000
  H   H138      1.0  0.10645  0.49894  0.91475  1.0000
  C   C115      1.0  0.13064  0.69290  0.03560  1.0000
  C   C116      1.0  0.99839  0.56614  0.00013  1.0000
  C   C117      1.0  0.16760  0.60317  0.51252  1.0000
  H   H139      1.0  0.21937  0.72404  0.59996  1.0000
  C   C118      1.0  0.22585  0.50065  0.60870  1.0000
  C   C119      1.0  0.19290  0.49769  0.80673  1.0000
  N   N9        1.0  0.16565  0.59601  0.55028  1.0000
  H   H140      1.0  0.04358  0.55130  0.12175  1.0000
  C   C120      1.0  0.15067  0.58706  0.82472  1.0000
  C   C121      1.0  0.17215  0.59650  0.77557  1.0000
  H   H141      1.0  0.16461  0.57316  0.49112  1.0000
  C   C122      1.0  0.13306  0.70195  0.06922  1.0000
  H   H142      1.0  0.23003  0.70864  0.31299  1.0000
  H   H143      1.0  0.18440  0.70642  0.41482  1.0000
  H   H144      1.0  0.17887  0.60252  0.49859  1.0000
  N   N10       1.0  0.21230  0.50523  0.59234  1.0000
  C   C123      1.0  0.14474  0.68267  0.09567  1.0000
  C   C124      1.0  0.18071  0.60646  0.57189  1.0000
  H   H145      1.0  0.23694  0.50476  0.47653  1.0000
  C   C125      1.0  0.22624  0.49854  0.80482  1.0000
  C   C126      1.0  0.14009  0.69683  0.09920  1.0000
  H   H146      1.0  0.16169  0.57566  0.61086  1.0000
  C   C127      1.0  0.18246  0.69560  0.50521  1.0000
  H   H147      1.0  0.14988  0.67850  0.11933  1.0000
  H   H148      1.0  0.23570  0.61665  0.17060  1.0000
  C   C128      1.0  0.10454  0.53340  0.83820  1.0000
  C   C129      1.0  0.20646  0.62192  0.15878  1.0000
  H   H149      1.0  0.16012  0.54297  0.49501  1.0000
  C   C130      1.0  0.18744  0.63058  0.12270  1.0000
  C   C131      1.0  0.20603  0.72203  0.49457  1.0000
  C   C132      1.0  0.16310  0.56777  0.51838  1.0000
  H   H150      1.0  0.19206  0.60459  0.56140  1.0000
  H   H151      1.0  0.21027  0.69378  0.59399  1.0000
  C   C133      1.0  0.00568  0.50570  0.95683  1.0000
  C   C134      1.0  0.14309  0.56529  0.27541  1.0000
  C   C135      1.0  0.19662  0.70919  0.51971  1.0000
  H   H152      1.0  0.17958  0.60316  0.60161  1.0000
  C   C136      1.0  0.11530  0.53929  0.80818  1.0000
  C   C137      1.0  0.04732  0.55593  0.09326  1.0000
  H   H153      1.0  0.15614  0.52863  0.55545  1.0000
  H   H154      1.0  0.14999  0.59193  0.29142  1.0000
  C   C138      1.0  0.16146  0.56900  0.58503  1.0000
  C   C139      1.0  0.15887  0.55155  0.58656  1.0000
  H   H155      1.0  0.13299  0.53459  0.77185  1.0000
  H   H156      1.0  0.13321  0.51608  0.29457  1.0000
  H   H157      1.0  0.20826  0.61190  0.17457  1.0000
  H   H158      1.0  0.05100  0.52871  0.06656  1.0000
  H   H159      1.0  0.15288  0.62038  0.81748  1.0000
  H   H160      1.0  0.04779  0.56934  0.09108  1.0000
  C   C140      1.0  0.12366  0.51499  0.81264  1.0000
  C   C141      1.0  0.15835  0.54220  0.55418  1.0000
  C   C142      1.0  0.21924  0.63847  0.15634  1.0000
  H   H161      1.0  0.22372  0.71988  0.34959  1.0000
  H   H162      1.0  0.07412  0.52350  0.87620  1.0000
  H   H163      1.0  0.15709  0.54523  0.61307  1.0000
  C   C143      1.0  0.14112  0.57639  0.20386  1.0000
  H   H164      1.0  0.02433  0.58314  0.00616  1.0000
  C   C144      1.0  0.13622  0.53008  0.29115  1.0000
  C   C145      1.0  0.01552  0.57258  0.99051  1.0000
  H   H165      1.0  0.16496  0.57036  0.81657  1.0000
  H   H166      1.0  0.15744  0.49911  0.56091  1.0000
  H   H167      1.0  0.22434  0.51020  0.79828  1.0000
  H   H168      1.0  0.12197  0.58011  0.89470  1.0000
  C   C146      1.0  0.20028  0.50940  0.53161  1.0000
  H   H169      1.0  0.22480  0.49972  0.63923  1.0000
  C   C147      1.0  0.14629  0.58262  0.26883  1.0000
  H   H170      1.0  0.13097  0.50775  0.80247  1.0000
  H   H171      1.0  0.16856  0.62606  0.78333  1.0000
  H   H172      1.0  0.11050  0.52088  0.92852  1.0000
  C   C148      1.0  0.16323  0.61696  0.80634  1.0000
  C   C149      1.0  0.00923  0.55192  0.94031  1.0000
  C   C150      1.0  0.21396  0.50908  0.47339  1.0000
  H   H173      1.0  0.02956  0.50316  0.95412  1.0000
  C   C151      1.0  0.20155  0.72106  0.45722  1.0000
  H   H174      1.0  0.22147  0.69465  0.40716  1.0000
  H   H175      1.0  0.17287  0.61975  0.82840  1.0000
  H   H176      1.0  0.14174  0.70367  0.12543  1.0000
  C   C152      1.0  0.23360  0.51451  0.30511  1.0000
  N   N11       1.0  0.15758  0.59878  0.79350  1.0000
  H   H177      1.0  0.21478  0.69268  0.54596  1.0000
  H   H178      1.0  0.13462  0.55037  0.18646  1.0000
  H   H179      1.0  0.06045  0.55683  0.08933  1.0000
  C   C153      1.0  0.01817  0.54221  0.07007  1.0000
  H   H180      1.0  0.14897  0.60434  0.74109  1.0000
  H   H181      1.0  0.13288  0.59871  0.84211  1.0000
  H   H182      1.0  0.03161  0.51869  0.04383  1.0000
  C   C154      1.0  0.99620  0.55038  0.09825  1.0000
  H   H183      1.0  0.22768  0.72492  0.55478  1.0000
  C   C155      1.0  0.08210  0.52190  0.89881  1.0000
  H   H184      1.0  0.12728  0.53344  0.30880  1.0000
  H   H185      1.0  0.13985  0.58219  0.75460  1.0000
  N   N12       1.0  0.23544  0.64231  0.17546  1.0000
  C   C156      1.0  0.15581  0.57322  0.83291  1.0000
  C   C157      1.0  0.13707  0.56510  0.88518  1.0000
  C   C158      1.0  0.19080  0.61811  0.14241  1.0000
  C   C159      1.0  0.13794  0.58893  0.84734  1.0000
  C   C160      1.0  0.17817  0.69470  0.46784  1.0000
  C   C161      1.0  0.20076  0.51070  0.49314  1.0000
  H   H186      1.0  0.15321  0.55204  0.86865  1.0000
  C   C162      1.0  0.14910  0.56250  0.86283  1.0000
  H   H187      1.0  0.14522  0.51541  0.23545  1.0000
  H   H188      1.0  0.14905  0.53669  0.30245  1.0000
  H   H189      1.0  0.09086  0.53482  0.90825  1.0000
  C   C163      1.0  0.00554  0.53024  0.04767  1.0000
  S   S48       1.0  0.14532  0.50091  0.35728  1.0000
  H   H190      1.0  0.00860  0.52264  0.02670  1.0000
  C   C164      1.0  0.23868  0.71881  0.24056  1.0000
  C   C165      1.0  0.21378  0.52218  0.60804  1.0000
  C   C166      1.0  0.13142  0.57820  0.87729  1.0000
  H   H191      1.0  0.23188  0.68010  0.35571  1.0000
  C   C167      1.0  0.12480  0.53009  0.79537  1.0000
  C   C168      1.0  0.04157  0.55165  0.02853  1.0000
  H   H192      1.0  0.21694  0.73292  0.50301  1.0000
  H   H193      1.0  0.22418  0.66393  0.13282  1.0000
  C   C169      1.0  0.23266  0.64044  0.21585  1.0000
  H   H194      1.0  0.14830  0.60171  0.22826  1.0000
  H   H195      1.0  0.16749  0.68395  0.45736  1.0000
  H   H196      1.0  0.99428  0.57184  0.02326  1.0000
  H   H197      1.0  0.07360  0.51627  0.92233  1.0000
  H   H198      1.0  0.05469  0.55310  0.02319  1.0000
  H   H199      1.0  0.08652  0.50668  0.03001  1.0000
  C   C170      1.0  0.21544  0.65090  0.13580  1.0000
  H   H200      1.0  0.21496  0.69693  0.34571  1.0000
  H   H201      1.0  0.18111  0.60553  0.14597  1.0000
  H   H202      1.0  0.09214  0.50363  0.94391  1.0000
  C   C171      1.0  0.99212  0.54532  0.95024  1.0000
  C   C172      1.0  0.22673  0.70840  0.34271  1.0000
  H   H203      1.0  0.22457  0.62716  0.22355  1.0000
  H   H204      1.0  0.20323  0.52593  0.59962  1.0000
  H   H205      1.0  0.11234  0.49711  0.85475  1.0000
  H   H206      1.0  0.21377  0.52218  0.63880  1.0000
  C   C173      1.0  0.21294  0.50614  0.55151  1.0000
  H   H207      1.0  0.23566  0.73918  0.66073  1.0000
  H   H208      1.0  0.21424  0.73659  0.56629  1.0000
  H   H209      1.0  0.19666  0.50088  0.77755  1.0000
  H   H210      1.0  0.22557  0.53250  0.59920  1.0000
  C   C174      1.0  0.22662  0.50591  0.49199  1.0000
  H   H211      1.0  0.24003  0.74490  0.23520  1.0000
  H   H212      1.0  0.20883  0.73099  0.43851  1.0000
  H   H213      1.0  0.23842  0.51058  0.60338  1.0000
  H   H214      1.0  0.23647  0.50206  0.54298  1.0000
  H   H215      1.0  0.17958  0.49627  0.80877  1.0000
  C   C175      1.0  0.22686  0.49656  0.30592  1.0000
  Fe  Fe25      1.0  0.48725  0.04931  0.95851  1.0000
  H   H216      1.0  0.47403  0.14221  0.49432  1.0000
  H   H217      1.0  0.45108  0.14988  0.57837  1.0000
  H   H218      1.0  0.48564  0.15144  0.55286  1.0000
  Fe  Fe26      1.0  0.45032  0.03582  0.97500  1.0000
  S   S49       1.0  0.44979  0.06280  0.97244  1.0000
  S   S50       1.0  0.43089  0.01009  0.99561  1.0000
  Fe  Fe27      1.0  0.46612  0.06641  0.92146  1.0000
  S   S51       1.0  0.46177  0.08065  0.87078  1.0000
  Fe  Fe28      1.0  0.47385  0.07214  0.00564  1.0000
  H   H219      1.0  0.46604  0.07789  0.11296  1.0000
  S   S52       1.0  0.46465  0.03889  0.92188  1.0000
  S   S53       1.0  0.47328  0.04528  0.01175  1.0000
  H   H220      1.0  0.44415  0.09761  0.96295  1.0000
  C   C176      1.0  0.47400  0.16809  0.50244  1.0000
  C   C177      1.0  0.47336  0.13118  0.88910  1.0000
  H   H221      1.0  0.47303  0.11596  0.75859  1.0000
  H   H222      1.0  0.47385  0.01332  0.96866  1.0000
  N   N13       1.0  0.47024  0.16621  0.54241  1.0000
  H   H223      1.0  0.47856  0.10569  0.92667  1.0000
  C   C178      1.0  0.47476  0.09051  0.12104  1.0000
  C   C179      1.0  0.46436  0.00002  0.96742  1.0000
  C   C180      1.0  0.48173  0.17105  0.42598  1.0000
  C   C181      1.0  0.46469  0.12632  0.99230  1.0000
  H   H224      1.0  0.45583  0.13879  0.54062  1.0000
  H   H225      1.0  0.45785  0.18431  0.54640  1.0000
  C   C182      1.0  0.46843  0.10035  0.80765  1.0000
  H   H226      1.0  0.46052  0.11527  0.01159  1.0000
  H   H227      1.0  0.44000  0.11461  0.94033  1.0000
  C   C183      1.0  0.47856  0.11078  0.77973  1.0000
  C   C184      1.0  0.47524  0.09327  0.83544  1.0000
  H   H228      1.0  0.44404  0.15215  0.53263  1.0000
  H   H229      1.0  0.47640  0.19498  0.49697  1.0000
  N   N14       1.0  0.46590  0.12060  0.95372  1.0000
  C   C185      1.0  0.48071  0.18501  0.44568  1.0000
  C   C186      1.0  0.48413  0.16351  0.56185  1.0000
  C   C187      1.0  0.47893  0.15566  0.44382  1.0000
  H   H230      1.0  0.45551  0.13272  0.99467  1.0000
  C   C188      1.0  0.46808  0.18142  0.55982  1.0000
  C   C189      1.0  0.44913  0.10817  0.94272  1.0000
  C   C190      1.0  0.47775  0.11157  0.95393  1.0000
  H   H231      1.0  0.46858  0.08710  0.17906  1.0000
  H   H232      1.0  0.44929  0.10174  0.91571  1.0000
  H   H233      1.0  0.45516  0.09770  0.80762  1.0000
  C   C191      1.0  0.47621  0.09580  0.15864  1.0000
  H   H234      1.0  0.48208  0.16267  0.59219  1.0000
  C   C192      1.0  0.48458  0.10152  0.09416  1.0000
  C   C193      1.0  0.45463  0.15113  0.54865  1.0000
  C   C194      1.0  0.47535  0.15421  0.48153  1.0000
  H   H235      1.0  0.46485  0.17936  0.58967  1.0000
  H   H236      1.0  0.47033  0.11817  0.87919  1.0000
  H   H237      1.0  0.47389  0.10094  0.97401  1.0000
  H   H238      1.0  0.47706  0.13515  0.00299  1.0000
  H   H239      1.0  0.47986  0.19298  0.55924  1.0000
  C   C195      1.0  0.47164  0.13477  0.92696  1.0000
  S   S54       1.0  0.48404  0.09542  0.04627  1.0000
  C   C196      1.0  0.47688  0.18365  0.48336  1.0000
  C   C197      1.0  0.48745  0.11217  0.17017  1.0000
  H   H240      1.0  0.48011  0.14495  0.42849  1.0000
  H   H241      1.0  0.48964  0.22457  0.62537  1.0000
  C   C198      1.0  0.47587  0.15232  0.93731  1.0000
  H   H242      1.0  0.47495  0.15633  0.96541  1.0000
  H   H243      1.0  0.48501  0.17217  0.39694  1.0000
  H   H244      1.0  0.45491  0.99976  0.94627  1.0000
  H   H245      1.0  0.45774  0.99744  0.99440  1.0000
  S   S55       1.0  0.48925  0.11779  0.21844  1.0000
  C   C199      1.0  0.47913  0.14425  0.86325  1.0000
  H   H246      1.0  0.48050  0.14107  0.83454  1.0000
  C   C200      1.0  0.48154  0.16533  0.91114  1.0000
  C   C201      1.0  0.48321  0.16131  0.87424  1.0000
  H   H247      1.0  0.48302  0.19699  0.43160  1.0000
  H   H248      1.0  0.48768  0.17141  0.85405  1.0000
  S   S56       1.0  0.48984  0.07677  0.95438  1.0000
  H   H249      1.0  0.48473  0.17864  0.91952  1.0000
  H   H250      1.0  0.44085  0.37004  0.15877  1.0000
  H   H251      1.0  0.25916  0.48686  0.19315  1.0000
  C   C202      1.0  0.45417  0.45701  0.93623  1.0000
  Fe  Fe29      1.0  0.47646  0.35766  0.93565  1.0000
  H   H252      1.0  0.27110  0.47493  0.25939  1.0000
  S   S57       1.0  0.45963  0.35140  0.98604  1.0000
  H   H253      1.0  0.26587  0.46175  0.21819  1.0000
  H   H254      1.0  0.44821  0.47145  0.99866  1.0000
  C   C203      1.0  0.31861  0.48331  0.55277  1.0000
  H   H255      1.0  0.43795  0.47540  0.90072  1.0000
  C   C204      1.0  0.34750  0.46761  0.16151  1.0000
  Fe  Fe30      1.0  0.45363  0.37481  0.97169  1.0000
  S   S58       1.0  0.42751  0.37607  0.97159  1.0000
  H   H256      1.0  0.42836  0.35069  0.13464  1.0000
  S   S59       1.0  0.46837  0.37911  0.91870  1.0000
  H   H257      1.0  0.32640  0.43526  0.65454  1.0000
  S   S60       1.0  0.30607  0.47727  0.69917  1.0000
  C   C205      1.0  0.46754  0.46973  0.91764  1.0000
  H   H258      1.0  0.32184  0.42731  0.82253  1.0000
  C   C206      1.0  0.32127  0.48342  0.48538  1.0000
  Fe  Fe31      1.0  0.48161  0.36998  0.01765  1.0000
  C   C207      1.0  0.41388  0.37157  0.07007  1.0000
  H   H259      1.0  0.32844  0.48305  0.46108  1.0000
  N   N15       1.0  0.34389  0.45486  0.68946  1.0000
  C   C208      1.0  0.35538  0.48514  0.84069  1.0000
  C   C209      1.0  0.31524  0.42856  0.76558  1.0000
  C   C210      1.0  0.34832  0.45086  0.75681  1.0000
  H   H260      1.0  0.28325  0.48319  0.51058  1.0000
  H   H261      1.0  0.34021  0.48274  0.52359  1.0000
  C   C211      1.0  0.32074  0.43566  0.73100  1.0000
  H   H262      1.0  0.36060  0.47933  0.71210  1.0000
  H   H263      1.0  0.47680  0.35588  0.83735  1.0000
  Fe  Fe32      1.0  0.38271  0.44695  0.01403  1.0000
  S   S61       1.0  0.39241  0.47314  0.04186  1.0000
  S   S62       1.0  0.39933  0.43230  0.03249  1.0000
  Fe  Fe33      1.0  0.35728  0.45675  0.96873  1.0000
  C   C212      1.0  0.28920  0.48330  0.10583  1.0000
  S   S63       1.0  0.33709  0.45055  0.92383  1.0000
  C   C213      1.0  0.28343  0.48737  0.13948  1.0000
  C   C214      1.0  0.42383  0.44462  0.93251  1.0000
  Fe  Fe34      1.0  0.36585  0.47102  0.04919  1.0000
  H   H264      1.0  0.43058  0.34850  0.06677  1.0000
  S   S64       1.0  0.38320  0.45752  0.95702  1.0000
  S   S65       1.0  0.35568  0.44402  0.02464  1.0000
  H   H265      1.0  0.36285  0.45545  0.65000  1.0000
  H   H266      1.0  0.36738  0.49434  0.83241  1.0000
  C   C215      1.0  0.48413  0.32626  0.00666  1.0000
  C   C216      1.0  0.42647  0.37742  0.09786  1.0000
  H   H267      1.0  0.36892  0.45524  0.69694  1.0000
  C   C217      1.0  0.33756  0.44700  0.72554  1.0000
  H   H268      1.0  0.31415  0.46336  0.13759  1.0000
  H   H269      1.0  0.36106  0.45988  0.75526  1.0000
  H   H270      1.0  0.31478  0.46845  0.81307  1.0000
  C   C218      1.0  0.48215  0.46700  0.90848  1.0000
  C   C219      1.0  0.30265  0.48376  0.54881  1.0000
  C   C220      1.0  0.34092  0.46582  0.19766  1.0000
  H   H271      1.0  0.45080  0.35762  0.13508  1.0000
  H   H272      1.0  0.35438  0.43595  0.67594  1.0000
  H   H273      1.0  0.30232  0.42017  0.76939  1.0000
  H   H274      1.0  0.41084  0.40450  0.14323  1.0000
  H   H275      1.0  0.36526  0.47788  0.88990  1.0000
  S   S66       1.0  0.32909  0.47606  0.26099  1.0000
  C   C221      1.0  0.35161  0.48320  0.14318  1.0000
  S   S67       1.0  0.32712  0.48227  0.59691  1.0000
  H   H276      1.0  0.46702  0.48190  0.90985  1.0000
  C   C222      1.0  0.44019  0.36217  0.13344  1.0000
  H   H277      1.0  0.33635  0.45547  0.63264  1.0000
  C   C223      1.0  0.48678  0.33694  0.85294  1.0000
  C   C224      1.0  0.47122  0.43913  0.93644  1.0000
  C   C225      1.0  0.24618  0.48449  0.80703  1.0000
  H   H278      1.0  0.43366  0.39394  0.14707  1.0000
  C   C226      1.0  0.32578  0.47064  0.82978  1.0000
  C   C227      1.0  0.32466  0.46112  0.86228  1.0000
  C   C228      1.0  0.33886  0.46358  0.88427  1.0000
  C   C229      1.0  0.35422  0.47581  0.87340  1.0000
  H   H279      1.0  0.47270  0.42723  0.94357  1.0000
  H   H280      1.0  0.38999  0.39464  0.09281  1.0000
  H   H281      1.0  0.31273  0.45170  0.87032  1.0000
  C   C230      1.0  0.39982  0.38955  0.09484  1.0000
  H   H282      1.0  0.45712  0.39568  0.07575  1.0000
  C   C231      1.0  0.42084  0.39298  0.98598  1.0000
  C   C232      1.0  0.42929  0.40499  0.01343  1.0000
  C   C233      1.0  0.42245  0.41679  0.02730  1.0000
  C   C234      1.0  0.40749  0.41735  0.01287  1.0000
  C   C235      1.0  0.39934  0.40573  0.98455  1.0000
  C   C236      1.0  0.40585  0.39348  0.97165  1.0000
  H   H283      1.0  0.44067  0.40466  0.02519  1.0000
  H   H284      1.0  0.42874  0.42546  0.04968  1.0000
  H   H285      1.0  0.38773  0.40578  0.97339  1.0000
  H   H286      1.0  0.39909  0.38417  0.95068  1.0000
  C   C237      1.0  0.32621  0.43249  0.79553  1.0000
  C   C238      1.0  0.27620  0.47201  0.23300  1.0000
  H   H287      1.0  0.42573  0.46177  0.99620  1.0000
  C   C239      1.0  0.45661  0.44173  0.94587  1.0000
  H   H288      1.0  0.41186  0.44614  0.93939  1.0000
  C   C240      1.0  0.42476  0.38916  0.12476  1.0000
  C   C241      1.0  0.34972  0.47381  0.69315  1.0000
  H   H289      1.0  0.44722  0.43163  0.96082  1.0000
  C   C242      1.0  0.48262  0.34719  0.82766  1.0000
  C   C243      1.0  0.48393  0.45170  0.91766  1.0000
  H   H290      1.0  0.44210  0.36744  0.04083  1.0000
  C   C244      1.0  0.34270  0.44361  0.79115  1.0000
  C   C245      1.0  0.29981  0.47398  0.17192  1.0000
  S   S68       1.0  0.48301  0.33772  0.90144  1.0000
  C   C246      1.0  0.44159  0.36082  0.06748  1.0000
  H   H291      1.0  0.33757  0.45359  0.21123  1.0000
  S   S69       1.0  0.26411  0.48276  0.71036  1.0000
  C   C247      1.0  0.33117  0.44940  0.65941  1.0000
  N   N16       1.0  0.44093  0.37193  0.09928  1.0000
  H   H292      1.0  0.42285  0.43228  0.94490  1.0000
  H   H293      1.0  0.41405  0.36275  0.04816  1.0000
  C   C248      1.0  0.48323  0.32697  0.14312  1.0000
  H   H294      1.0  0.39173  0.37351  0.04641  1.0000
  H   H295      1.0  0.48583  0.25032  0.41912  1.0000
  H   H296      1.0  0.34918  0.45684  0.14768  1.0000
  C   C249      1.0  0.43719  0.47523  0.93138  1.0000
  C   C250      1.0  0.40081  0.37762  0.06874  1.0000
  H   H297      1.0  0.25495  0.46954  0.45965  1.0000
  C   C251      1.0  0.45676  0.38724  0.09940  1.0000
  H   H298      1.0  0.33969  0.47763  0.70483  1.0000
  C   C252      1.0  0.35813  0.45016  0.67762  1.0000
  H   H299      1.0  0.35099  0.44712  0.81494  1.0000
  H   H300      1.0  0.42435  0.44310  0.90202  1.0000
  H   H301      1.0  0.30448  0.47028  0.19672  1.0000
  H   H302      1.0  0.42505  0.47633  0.93872  1.0000
  H   H303      1.0  0.47237  0.33222  0.09306  1.0000
  S   S70       1.0  0.36559  0.48309  0.99404  1.0000
  C   C253      1.0  0.33839  0.47955  0.21618  1.0000
  C   C254      1.0  0.41168  0.39519  0.12300  1.0000
  H   H304      1.0  0.47432  0.31368  0.01347  1.0000
  C   C255      1.0  0.34122  0.48261  0.81856  1.0000
  H   H305      1.0  0.26334  0.48939  0.31118  1.0000
  H   H306      1.0  0.32047  0.45337  0.66544  1.0000
  H   H307      1.0  0.45855  0.39512  0.12507  1.0000
  H   H308      1.0  0.28518  0.48694  0.08002  1.0000
  S   S71       1.0  0.35945  0.48620  0.09702  1.0000
  H   H309      1.0  0.43774  0.44868  0.00047  1.0000
  H   H310      1.0  0.46794  0.38360  0.09728  1.0000
  N   N17       1.0  0.43851  0.45939  0.94640  1.0000
  H   H311      1.0  0.45287  0.35734  0.06869  1.0000
  S   S72       1.0  0.47448  0.39284  0.00640  1.0000
  H   H312      1.0  0.44706  0.48706  0.94285  1.0000
  C   C256      1.0  0.48575  0.34603  0.78955  1.0000
  C   C257      1.0  0.30547  0.46998  0.13817  1.0000
  H   H313      1.0  0.47428  0.31392  0.14487  1.0000
  H   H314      1.0  0.35337  0.48029  0.66611  1.0000
  H   H315      1.0  0.48566  0.29461  0.04001  1.0000
  S   S73       1.0  0.29538  0.48129  0.43741  1.0000
  Fe  Fe35      1.0  0.39117  0.48310  0.98555  1.0000
  C   C258      1.0  0.32789  0.48318  0.52089  1.0000
  H   H316      1.0  0.31151  0.43227  0.70922  1.0000
  C   C259      1.0  0.43752  0.46039  0.98714  1.0000
  C   C260      1.0  0.30507  0.48328  0.48140  1.0000
  H   H317      1.0  0.29530  0.48371  0.57307  1.0000
  C   C261      1.0  0.25326  0.48823  0.42186  1.0000
  H   H318      1.0  0.28563  0.46657  0.24116  1.0000
  H   H319      1.0  0.42362  0.48922  0.01217  1.0000
  C   C262      1.0  0.28863  0.48282  0.17368  1.0000
  H   H320      1.0  0.48067  0.32998  0.97941  1.0000
  H   H321      1.0  0.48332  0.25040  0.34914  1.0000
  Fe  Fe36      1.0  0.32274  0.49279  0.30482  1.0000
  S   S74       1.0  0.29688  0.48670  0.32856  1.0000
  H   H322      1.0  0.25875  0.48484  0.80248  1.0000
  H   H323      1.0  0.30485  0.47171  0.07913  1.0000
  C   C263      1.0  0.29583  0.48348  0.51332  1.0000
  C   C264      1.0  0.24656  0.47379  0.44377  1.0000
  H   H324      1.0  0.48228  0.35389  0.77034  1.0000
  C   C265      1.0  0.48217  0.33733  0.11348  1.0000
  C   C266      1.0  0.30024  0.47469  0.10520  1.0000
  N   N18       1.0  0.28342  0.48752  0.20992  1.0000
  H   H325      1.0  0.48347  0.33582  0.02766  1.0000
  C   C267      1.0  0.24268  0.49376  0.40111  1.0000
  C   C268      1.0  0.25023  0.49384  0.70994  1.0000
  Fe  Fe37      1.0  0.31837  0.49202  0.64874  1.0000
  S   S75       1.0  0.34384  0.49417  0.77650  1.0000
  Fe  Fe38      1.0  0.30913  0.49335  0.38487  1.0000
  Fe  Fe39      1.0  0.29217  0.49545  0.70144  1.0000
  C   C269      1.0  0.27075  0.49557  0.20723  1.0000
  H   H326      1.0  0.48921  0.31199  0.46911  1.0000
  C   C270      1.0  0.34272  0.49523  0.19807  1.0000
  H   H327      1.0  0.30777  0.49433  0.23518  1.0000
  H   H328      1.0  0.27500  0.49415  0.13792  1.0000
  Fe  Fe40      1.0  0.48937  0.39586  0.95460  1.0000
  H   H329      1.0  0.26670  0.49506  0.42076  1.0000
  Fe  Fe41      1.0  0.45130  0.64867  0.69554  1.0000
  S   S76       1.0  0.47145  0.64147  0.66831  1.0000
  S   S77       1.0  0.44475  0.67266  0.69487  1.0000
  Fe  Fe42      1.0  0.42949  0.61083  0.70944  1.0000
  S   S78       1.0  0.44761  0.60113  0.68239  1.0000
  S   S79       1.0  0.40718  0.59289  0.73980  1.0000
  Fe  Fe43      1.0  0.46694  0.62230  0.71529  1.0000
  H   H330      1.0  0.40291  0.57574  0.49020  1.0000
  Fe  Fe44      1.0  0.45036  0.62074  0.63819  1.0000
  C   C271      1.0  0.24257  0.49909  0.80100  1.0000
  S   S80       1.0  0.44844  0.63122  0.74401  1.0000
  S   S81       1.0  0.43060  0.62864  0.66393  1.0000
  Fe  Fe45      1.0  0.32339  0.52642  0.68517  1.0000
  S   S82       1.0  0.33626  0.55384  0.66709  1.0000
  S   S83       1.0  0.30317  0.50856  0.64852  1.0000
  Fe  Fe46      1.0  0.46334  0.63098  0.35900  1.0000
  S   S84       1.0  0.44677  0.64555  0.34658  1.0000
  S   S85       1.0  0.47537  0.63449  0.41654  1.0000
  Fe  Fe47      1.0  0.46391  0.61953  0.27628  1.0000
  S   S86       1.0  0.44745  0.63363  0.25973  1.0000
  Fe  Fe48      1.0  0.46304  0.65515  0.29715  1.0000
  S   S87       1.0  0.47461  0.68297  0.27926  1.0000
  Fe  Fe49      1.0  0.43264  0.62266  0.31047  1.0000
  S   S88       1.0  0.40464  0.61228  0.30269  1.0000
  S   S89       1.0  0.44805  0.60726  0.32577  1.0000
  S   S90       1.0  0.32781  0.52080  0.29740  1.0000
  S   S91       1.0  0.31365  0.52136  0.38154  1.0000
  Fe  Fe50      1.0  0.33801  0.52400  0.35532  1.0000
  S   S92       1.0  0.36329  0.54128  0.37710  1.0000
  H   H331      1.0  0.39092  0.67095  0.27299  1.0000
  H   H332      1.0  0.43235  0.58670  0.24883  1.0000
  C   C272      1.0  0.46219  0.52049  0.00774  1.0000
  C   C273      1.0  0.45915  0.53072  0.98078  1.0000
  C   C274      1.0  0.44320  0.52598  0.96526  1.0000
  C   C275      1.0  0.43031  0.51112  0.97689  1.0000
  H   H333      1.0  0.44038  0.56247  0.92145  1.0000
  C   C276      1.0  0.44939  0.50548  0.01896  1.0000
  H   H334      1.0  0.46908  0.54228  0.97187  1.0000
  H   H335      1.0  0.44087  0.53391  0.94447  1.0000
  H   H336      1.0  0.36568  0.53339  0.29972  1.0000
  H   H337      1.0  0.46406  0.66851  0.20537  1.0000
  C   C277      1.0  0.46895  0.67855  0.51759  1.0000
  C   C278      1.0  0.46458  0.69771  0.28638  1.0000
  C   C279      1.0  0.44789  0.69227  0.29740  1.0000
  C   C280      1.0  0.44026  0.70434  0.30243  1.0000
  C   C281      1.0  0.44918  0.72189  0.29635  1.0000
  C   C282      1.0  0.46589  0.72735  0.28554  1.0000
  C   C283      1.0  0.47354  0.71528  0.28051  1.0000
  H   H338      1.0  0.44086  0.67878  0.30199  1.0000
  H   H339      1.0  0.42737  0.70005  0.31117  1.0000
  C   C284      1.0  0.26964  0.72434  0.38851  1.0000
  C   C285      1.0  0.43822  0.56590  0.86314  1.0000
  H   H340      1.0  0.27573  0.50803  0.19263  1.0000
  C   C286      1.0  0.39315  0.59266  0.32383  1.0000
  C   C287      1.0  0.40069  0.58538  0.34916  1.0000
  C   C288      1.0  0.39134  0.56963  0.36540  1.0000
  C   C289      1.0  0.37446  0.56101  0.35615  1.0000
  C   C290      1.0  0.36691  0.56816  0.33054  1.0000
  C   C291      1.0  0.37624  0.58403  0.31459  1.0000
  H   H341      1.0  0.41367  0.59195  0.35657  1.0000
  H   H342      1.0  0.39724  0.56414  0.38517  1.0000
  H   H343      1.0  0.35387  0.56162  0.32346  1.0000
  H   H344      1.0  0.37035  0.58964  0.29503  1.0000
  H   H345      1.0  0.45033  0.55525  0.78233  1.0000
  H   H346      1.0  0.48245  0.73978  0.45441  1.0000
  C   C292      1.0  0.46438  0.66567  0.59559  1.0000
  C   C293      1.0  0.45252  0.62019  0.53291  1.0000
  C   C294      1.0  0.46934  0.63070  0.52849  1.0000
  C   C295      1.0  0.47608  0.63485  0.49274  1.0000
  C   C296      1.0  0.46614  0.62866  0.46092  1.0000
  H   H347      1.0  0.39905  0.57735  0.55762  1.0000
  H   H348      1.0  0.36451  0.52727  0.25135  1.0000
  H   H349      1.0  0.47724  0.63541  0.55251  1.0000
  C   C297      1.0  0.24464  0.52017  0.71164  1.0000
  C   C298      1.0  0.45679  0.69505  0.69664  1.0000
  C   C299      1.0  0.47419  0.70169  0.70044  1.0000
  H   H350      1.0  0.37863  0.50905  0.32955  1.0000
  C   C300      1.0  0.47460  0.73110  0.69974  1.0000
  C   C301      1.0  0.45723  0.72442  0.69546  1.0000
  C   C302      1.0  0.44840  0.70651  0.69396  1.0000
  C   C303      1.0  0.24767  0.65998  0.16902  1.0000
  C   C304      1.0  0.39382  0.71856  0.26377  1.0000
  H   H351      1.0  0.45057  0.73306  0.69369  1.0000
  H   H352      1.0  0.43496  0.70155  0.69096  1.0000
  C   C305      1.0  0.40740  0.54861  0.13458  1.0000
  H   H353      1.0  0.42958  0.60582  0.50408  1.0000
  H   H354      1.0  0.40276  0.58348  0.25179  1.0000
  H   H355      1.0  0.41634  0.72120  0.23185  1.0000
  C   C306      1.0  0.35650  0.56384  0.68555  1.0000
  C   C307      1.0  0.36075  0.55839  0.71896  1.0000
  C   C308      1.0  0.37652  0.56718  0.73480  1.0000
  C   C309      1.0  0.38834  0.58109  0.71678  1.0000
  C   C310      1.0  0.38436  0.58618  0.68261  1.0000
  C   C311      1.0  0.36833  0.57773  0.66734  1.0000
  H   H356      1.0  0.35167  0.54771  0.73321  1.0000
  H   H357      1.0  0.37946  0.56328  0.76138  1.0000
  H   H358      1.0  0.39340  0.59693  0.66859  1.0000
  H   H359      1.0  0.36507  0.58201  0.64151  1.0000
  H   H360      1.0  0.45797  0.73573  0.41357  1.0000
  C   C312      1.0  0.41500  0.54419  0.26884  1.0000
  C   C313      1.0  0.43130  0.55431  0.09442  1.0000
  H   H361      1.0  0.45598  0.57558  0.75941  1.0000
  S   S93       1.0  0.43885  0.73644  0.30210  1.0000
  H   H362      1.0  0.41012  0.56754  0.17759  1.0000
  H   H363      1.0  0.27219  0.70581  0.67074  1.0000
  C   C314      1.0  0.47803  0.59023  0.16659  1.0000
  C   C315      1.0  0.45892  0.66504  0.45826  1.0000
  H   H364      1.0  0.25966  0.66255  0.18396  1.0000
  H   H365      1.0  0.24294  0.66986  0.17953  1.0000
  C   C316      1.0  0.27360  0.73359  0.24753  1.0000
  H   H366      1.0  0.43894  0.58584  0.16011  1.0000
  C   C317      1.0  0.36776  0.52430  0.27944  1.0000
  H   H367      1.0  0.44060  0.59465  0.77345  1.0000
  H   H368      1.0  0.24217  0.70163  0.42431  1.0000
  H   H369      1.0  0.45177  0.49764  0.03999  1.0000
  S   S94       1.0  0.48188  0.52650  0.02776  1.0000
  C   C318      1.0  0.47873  0.61509  0.82250  1.0000
  C   C319      1.0  0.48841  0.59114  0.13576  1.0000
  S   S95       1.0  0.48068  0.64191  0.31087  1.0000
  C   C320      1.0  0.42312  0.56173  0.76340  1.0000
  C   C321      1.0  0.41495  0.52341  0.05296  1.0000
  S   S96       1.0  0.48869  0.57578  0.01514  1.0000
  C   C322      1.0  0.42280  0.57424  0.25432  1.0000
  H   H370      1.0  0.47135  0.61374  0.10392  1.0000
  C   C323      1.0  0.25108  0.52334  0.30497  1.0000
  C   C324      1.0  0.29823  0.49994  0.22914  1.0000
  C   C325      1.0  0.45104  0.56872  0.78559  1.0000
  H   H371      1.0  0.29455  0.74009  0.40696  1.0000
  H   H372      1.0  0.27233  0.70754  0.25205  1.0000
  H   H373      1.0  0.45235  0.57761  0.10657  1.0000
  H   H374      1.0  0.43375  0.66056  0.61915  1.0000
  H   H375      1.0  0.37946  0.55748  0.45058  1.0000
  C   C326      1.0  0.45381  0.66832  0.53501  1.0000
  H   H376      1.0  0.45582  0.71129  0.38084  1.0000
  H   H377      1.0  0.45007  0.57664  0.86312  1.0000
  C   C327      1.0  0.40610  0.57236  0.25588  1.0000
  C   C328      1.0  0.38612  0.51115  0.25621  1.0000
  C   C329      1.0  0.46783  0.69351  0.37777  1.0000
  H   H378      1.0  0.41338  0.53779  0.92507  1.0000
  H   H379      1.0  0.40066  0.51980  0.32274  1.0000
  H   H380      1.0  0.41775  0.53350  0.03161  1.0000
  H   H381      1.0  0.24893  0.73607  0.31990  1.0000
  H   H382      1.0  0.45623  0.68284  0.37197  1.0000
  H   H383      1.0  0.35227  0.50911  0.14796  1.0000
  H   H384      1.0  0.42477  0.66151  0.57519  1.0000
  H   H385      1.0  0.34067  0.50586  0.21154  1.0000
  H   H386      1.0  0.25579  0.63320  0.17508  1.0000
  H   H387      1.0  0.43296  0.64492  0.58455  1.0000
  H   H388      1.0  0.37150  0.70984  0.29812  1.0000
  H   H389      1.0  0.46669  0.57908  0.16978  1.0000
  H   H390      1.0  0.36983  0.68022  0.30307  1.0000
  N   N19       1.0  0.39467  0.73649  0.26120  1.0000
  N   N20       1.0  0.38518  0.52496  0.28121  1.0000
  H   H391      1.0  0.35853  0.51132  0.28639  1.0000
  C   C330      1.0  0.38840  0.52116  0.31966  1.0000
  H   H392      1.0  0.39156  0.53804  0.05183  1.0000
  C   C331      1.0  0.39783  0.54182  0.27080  1.0000
  H   H393      1.0  0.48328  0.68432  0.46723  1.0000
  C   C332      1.0  0.39373  0.55646  0.26403  1.0000
  C   C333      1.0  0.42725  0.56017  0.26057  1.0000
  C   C334      1.0  0.43501  0.65876  0.58893  1.0000
  H   H394      1.0  0.41916  0.53382  0.27462  1.0000
  S   S97       1.0  0.46793  0.60202  0.23034  1.0000
  Fe  Fe51      1.0  0.32574  0.49746  0.73338  1.0000
  H   H395      1.0  0.45735  0.64787  0.18419  1.0000
  Fe  Fe52      1.0  0.30268  0.51495  0.32452  1.0000
  S   S98       1.0  0.28380  0.52582  0.30397  1.0000
  S   S99       1.0  0.41024  0.50599  0.95905  1.0000
  H   H396      1.0  0.38278  0.51498  0.05324  1.0000
  H   H397      1.0  0.42683  0.52227  0.06194  1.0000
  H   H398      1.0  0.46110  0.66317  0.42933  1.0000
  H   H399      1.0  0.38072  0.52705  0.09213  1.0000
  H   H400      1.0  0.36799  0.73078  0.26424  1.0000
  H   H401      1.0  0.46660  0.62905  0.15776  1.0000
  C   C335      1.0  0.24352  0.69188  0.35500  1.0000
  N   N21       1.0  0.43451  0.56925  0.79518  1.0000
  C   C336      1.0  0.24775  0.70819  0.24509  1.0000
  C   C337      1.0  0.24317  0.63009  0.16270  1.0000
  H   H402      1.0  0.25066  0.66220  0.13921  1.0000
  C   C338      1.0  0.26424  0.71312  0.66804  1.0000
  S   S100      1.0  0.33918  0.51066  0.68238  1.0000
  H   H403      1.0  0.39813  0.50924  0.25880  1.0000
  H   H404      1.0  0.46279  0.66652  0.15582  1.0000
  H   H405      1.0  0.39612  0.52714  0.86918  1.0000
  C   C339      1.0  0.43276  0.55789  0.89683  1.0000
  S   S101      1.0  0.44316  0.61431  0.57716  1.0000
  H   H406      1.0  0.42407  0.58839  0.80683  1.0000
  C   C340      1.0  0.25603  0.51177  0.70953  1.0000
  H   H407      1.0  0.39352  0.51302  0.13318  1.0000
  H   H408      1.0  0.40757  0.51110  0.03860  1.0000
  C   C341      1.0  0.45383  0.68807  0.58485  1.0000
  C   C342      1.0  0.26194  0.51436  0.30693  1.0000
  H   H409      1.0  0.25281  0.68950  0.37300  1.0000
  C   C343      1.0  0.42857  0.56025  0.83034  1.0000
  H   H410      1.0  0.37579  0.72950  0.21865  1.0000
  C   C344      1.0  0.25832  0.73632  0.33982  1.0000
  C   C345      1.0  0.40451  0.69574  0.25004  1.0000
  H   H411      1.0  0.38844  0.53166  0.33898  1.0000
  H   H412      1.0  0.47282  0.74080  0.28035  1.0000
  C   C346      1.0  0.39722  0.74453  0.29859  1.0000
  H   H413      1.0  0.25240  0.51075  0.79186  1.0000
  H   H414      1.0  0.46119  0.73948  0.36454  1.0000
  N   N22       1.0  0.39650  0.64515  0.73752  1.0000
  C   C347      1.0  0.40934  0.64091  0.75794  1.0000
  C   C348      1.0  0.39799  0.64194  0.69755  1.0000
  C   C349      1.0  0.40040  0.66385  0.74290  1.0000
  C   C350      1.0  0.37959  0.63416  0.75012  1.0000
  C   C351      1.0  0.36781  0.64090  0.76405  1.0000
  C   C352      1.0  0.37428  0.61601  0.74744  1.0000
  C   C353      1.0  0.35173  0.63000  0.77430  1.0000
  C   C354      1.0  0.35819  0.60524  0.75751  1.0000
  C   C355      1.0  0.34692  0.61222  0.77092  1.0000
  H   H415      1.0  0.40864  0.62763  0.75203  1.0000
  H   H416      1.0  0.42224  0.64953  0.75037  1.0000
  H   H417      1.0  0.40798  0.64213  0.78830  1.0000
  H   H418      1.0  0.39692  0.62851  0.69160  1.0000
  H   H419      1.0  0.41029  0.65046  0.68650  1.0000
  H   H420      1.0  0.38806  0.64421  0.68140  1.0000
  H   H421      1.0  0.39978  0.66722  0.77256  1.0000
  H   H422      1.0  0.41330  0.67168  0.73353  1.0000
  H   H423      1.0  0.39182  0.66823  0.72663  1.0000
  H   H424      1.0  0.37064  0.65451  0.76712  1.0000
  H   H425      1.0  0.38253  0.61000  0.73715  1.0000
  H   H426      1.0  0.34288  0.63535  0.78471  1.0000
  H   H427      1.0  0.35445  0.59139  0.75460  1.0000
  H   H428      1.0  0.33442  0.60381  0.77856  1.0000
  H   H429      1.0  0.43806  0.55141  0.07181  1.0000
  H   H430      1.0  0.26932  0.51917  0.70849  1.0000
  C   C356      1.0  0.41481  0.54334  0.10411  1.0000
  N   N23       1.0  0.40563  0.52688  0.08457  1.0000
  C   C357      1.0  0.46629  0.66129  0.18115  1.0000
  C   C358      1.0  0.43624  0.58744  0.79942  1.0000
  H   H431      1.0  0.24456  0.64373  0.23151  1.0000
  H   H432      1.0  0.48489  0.58086  0.11533  1.0000
  C   C359      1.0  0.48292  0.72439  0.38936  1.0000
  H   H433      1.0  0.25620  0.53720  0.30317  1.0000
  C   C360      1.0  0.44258  0.61399  0.50109  1.0000
  N   N24       1.0  0.45167  0.67009  0.57527  1.0000
  H   H434      1.0  0.42166  0.54818  0.75769  1.0000
  C   C361      1.0  0.38954  0.52684  0.06992  1.0000
  H   H435      1.0  0.41395  0.69173  0.23761  1.0000
  C   C362      1.0  0.40788  0.53803  0.86731  1.0000
  C   C363      1.0  0.28437  0.73897  0.38826  1.0000
  C   C364      1.0  0.43218  0.57420  0.14434  1.0000
  H   H436      1.0  0.44150  0.61328  0.44125  1.0000
  H   H437      1.0  0.41384  0.51249  0.12347  1.0000
  H   H438      1.0  0.46063  0.57503  0.80701  1.0000
  C   C365      1.0  0.40212  0.51252  0.11070  1.0000
  C   C366      1.0  0.46781  0.71006  0.38292  1.0000
  H   H439      1.0  0.40725  0.74231  0.20870  1.0000
  H   H440      1.0  0.42785  0.56899  0.73758  1.0000
  H   H441      1.0  0.47255  0.62372  0.81529  1.0000
  H   H442      1.0  0.24926  0.53407  0.71208  1.0000
  H   H443      1.0  0.30437  0.51158  0.21230  1.0000
  C   C367      1.0  0.27154  0.73107  0.66442  1.0000
  H   H444      1.0  0.38673  0.73792  0.31751  1.0000
  C   C368      1.0  0.41317  0.54599  0.83342  1.0000
  H   H445      1.0  0.47939  0.64063  0.21449  1.0000
  C   C369      1.0  0.24360  0.73182  0.66239  1.0000
  N   N25       1.0  0.34327  0.53947  0.55201  1.0000
  C   C370      1.0  0.34550  0.52835  0.58139  1.0000
  C   C371      1.0  0.33650  0.55172  0.56890  1.0000
  C   C372      1.0  0.33051  0.52826  0.52572  1.0000
  C   C373      1.0  0.35955  0.54915  0.53450  1.0000
  C   C374      1.0  0.36225  0.54858  0.49579  1.0000
  C   C375      1.0  0.37327  0.55986  0.55631  1.0000
  C   C376      1.0  0.37773  0.55811  0.48021  1.0000
  C   C377      1.0  0.38872  0.56929  0.54042  1.0000
  C   C378      1.0  0.39093  0.56841  0.50245  1.0000
  H   H446      1.0  0.35140  0.51951  0.57032  1.0000
  H   H447      1.0  0.35320  0.53582  0.60492  1.0000
  H   H448      1.0  0.33334  0.52018  0.59368  1.0000
  H   H449      1.0  0.34495  0.56004  0.59047  1.0000
  H   H450      1.0  0.32435  0.54493  0.58292  1.0000
  H   H451      1.0  0.33456  0.56032  0.54782  1.0000
  H   H452      1.0  0.33480  0.51865  0.51215  1.0000
  H   H453      1.0  0.31857  0.52083  0.53985  1.0000
  H   H454      1.0  0.32738  0.53580  0.50395  1.0000
  H   H455      1.0  0.35266  0.54089  0.47672  1.0000
  H   H456      1.0  0.37213  0.56105  0.58587  1.0000
  C   C379      1.0  0.41760  0.54401  0.89892  1.0000
  N   N26       1.0  0.48343  0.74210  0.39533  1.0000
  H   H457      1.0  0.38114  0.55616  0.26591  1.0000
  H   H458      1.0  0.44538  0.59441  0.82117  1.0000
  H   H459      1.0  0.41055  0.56225  0.76812  1.0000
  C   C380      1.0  0.41599  0.56382  0.15431  1.0000
  H   H460      1.0  0.48595  0.66082  0.23849  1.0000
  C   C381      1.0  0.26521  0.71566  0.24857  1.0000
  C   C382      1.0  0.44931  0.61819  0.46536  1.0000
  H   H461      1.0  0.40492  0.54076  0.81018  1.0000
  S   S102      1.0  0.31120  0.51491  0.73866  1.0000
  H   H462      1.0  0.46314  0.66695  0.62600  1.0000
  H   H463      1.0  0.39582  0.49984  0.09671  1.0000
  H   H464      1.0  0.37612  0.49847  0.26227  1.0000
  C   C383      1.0  0.43974  0.56951  0.11429  1.0000
  C   C384      1.0  0.43344  0.50078  0.00345  1.0000
  H   H465      1.0  0.24796  0.50503  0.38407  1.0000
  H   H466      1.0  0.39493  0.54089  0.14354  1.0000
  C   C385      1.0  0.37879  0.73658  0.24557  1.0000
  H   H467      1.0  0.28705  0.73918  0.25025  1.0000
  C   C386      1.0  0.44129  0.65641  0.51212  1.0000
  C   C387      1.0  0.48763  0.65442  0.21256  1.0000
  H   H468      1.0  0.44503  0.69221  0.56881  1.0000
  C   C388      1.0  0.37979  0.68933  0.28717  1.0000
  H   H469      1.0  0.47459  0.61665  0.88109  1.0000
  C   C389      1.0  0.48223  0.60353  0.19339  1.0000
  C   C390      1.0  0.34929  0.49702  0.16189  1.0000
  C   C391      1.0  0.48303  0.71964  0.70208  1.0000
  H   H470      1.0  0.45154  0.68962  0.61478  1.0000
  H   H471      1.0  0.24834  0.69312  0.32618  1.0000
  C   C392      1.0  0.48663  0.65361  0.14604  1.0000
  C   C393      1.0  0.24709  0.73676  0.23911  1.0000
  H   H472      1.0  0.48082  0.69304  0.70255  1.0000
  C   C394      1.0  0.40570  0.71275  0.24683  1.0000
  H   H473      1.0  0.47736  0.67409  0.58858  1.0000
  C   C395      1.0  0.39161  0.68406  0.27018  1.0000
  H   H474      1.0  0.46671  0.69729  0.57951  1.0000
  H   H475      1.0  0.26899  0.71433  0.40755  1.0000
  C   C396      1.0  0.38084  0.70631  0.28411  1.0000
  H   H476      1.0  0.43438  0.64544  0.45751  1.0000
  C   C397      1.0  0.25601  0.72270  0.36475  1.0000
  H   H477      1.0  0.44036  0.56186  0.25973  1.0000
  C   C398      1.0  0.44385  0.65499  0.47429  1.0000
  H   H478      1.0  0.40887  0.74435  0.31152  1.0000
  H   H479      1.0  0.46310  0.65218  0.58932  1.0000
  C   C399      1.0  0.26111  0.74038  0.66124  1.0000
  H   H480      1.0  0.24448  0.63029  0.13212  1.0000
  H   H481      1.0  0.29478  0.50429  0.25600  1.0000
  H   H482      1.0  0.38455  0.51402  0.22686  1.0000
  H   H483      1.0  0.42960  0.64764  0.52282  1.0000
  C   C400      1.0  0.48592  0.60836  0.79469  1.0000
  C   C401      1.0  0.47634  0.63616  0.13885  1.0000
  C   C402      1.0  0.47994  0.61106  0.85990  1.0000
  S   S103      1.0  0.48557  0.61377  0.74718  1.0000
  S   S104      1.0  0.48994  0.59629  0.91834  1.0000
  H   H484      1.0  0.24132  0.69071  0.67125  1.0000
  C   C403      1.0  0.24672  0.70451  0.66832  1.0000
  C   C404      1.0  0.26458  0.74421  0.24251  1.0000
  C   C405      1.0  0.47143  0.67684  0.47980  1.0000
  C   C406      1.0  0.47899  0.62721  0.10818  1.0000
  C   C407      1.0  0.48827  0.60019  0.87026  1.0000
  C   C408      1.0  0.46679  0.74350  0.39242  1.0000
  H   H485      1.0  0.26696  0.49871  0.23501  1.0000
  H   H486      1.0  0.48645  0.71958  0.27190  1.0000
  N   N27       1.0  0.48393  0.66259  0.17952  1.0000
  S   S105      1.0  0.29366  0.74134  0.66625  1.0000
  H   H487      1.0  0.48271  0.67790  0.37330  1.0000
  C   C409      1.0  0.48275  0.69071  0.37842  1.0000
  H   H488      1.0  0.47913  0.68766  0.53327  1.0000
  H   H489      1.0  0.48913  0.64288  0.48968  1.0000
  N   N28       1.0  0.24030  0.70738  0.36667  1.0000
  C   C410      1.0  0.25516  0.49645  0.30915  1.0000
  S   S106      1.0  0.33423  0.49622  0.36177  1.0000
  Fe  Fe53      1.0  0.30907  0.76836  0.64690  1.0000
  S   S107      1.0  0.29938  0.78961  0.64099  1.0000
  H   H490      1.0  0.30637  0.84708  0.18280  1.0000
  Fe  Fe54      1.0  0.34422  0.79159  0.62393  1.0000
  S   S108      1.0  0.33675  0.81421  0.61653  1.0000
  S   S109      1.0  0.37134  0.79815  0.61069  1.0000
  Fe  Fe55      1.0  0.32323  0.80625  0.67037  1.0000
  S   S110      1.0  0.32468  0.82666  0.71464  1.0000
  Fe  Fe56      1.0  0.31418  0.79531  0.58778  1.0000
  S   S111      1.0  0.30361  0.80025  0.53321  1.0000
  S   S112      1.0  0.33212  0.78465  0.67926  1.0000
  S   S113      1.0  0.32247  0.77307  0.59223  1.0000
  Fe  Fe57      1.0  0.46736  0.79765  0.64194  1.0000
  S   S114      1.0  0.45294  0.76983  0.65390  1.0000
  S   S115      1.0  0.46639  0.80864  0.58466  1.0000
  Fe  Fe58      1.0  0.47417  0.80737  0.72656  1.0000
  S   S116      1.0  0.45993  0.78005  0.74318  1.0000
  C   C411      1.0  0.40028  0.78284  0.43501  1.0000
  Fe  Fe59      1.0  0.47301  0.77258  0.69586  1.0000
  C   C412      1.0  0.29459  0.80894  0.18724  1.0000
  Fe  Fe60      1.0  0.44126  0.77974  0.69972  1.0000
  S   S117      1.0  0.41353  0.76790  0.70990  1.0000
  H   H491      1.0  0.39667  0.78411  0.40688  1.0000
  S   S118      1.0  0.45447  0.80741  0.68603  1.0000
  Fe  Fe61      1.0  0.33845  0.78195  0.24573  1.0000
  S   S119      1.0  0.34837  0.80759  0.27411  1.0000
  S   S120      1.0  0.35858  0.77269  0.22703  1.0000
  Fe  Fe62      1.0  0.30258  0.77971  0.25210  1.0000
  S   S121      1.0  0.31043  0.80554  0.28125  1.0000
  S   S122      1.0  0.27471  0.76679  0.24047  1.0000
  Fe  Fe63      1.0  0.33062  0.81413  0.23768  1.0000
  S   S123      1.0  0.34025  0.84004  0.20846  1.0000
  Fe  Fe64      1.0  0.32740  0.79618  0.31447  1.0000
  S   S124      1.0  0.33544  0.79719  0.37489  1.0000
  S   S125      1.0  0.32179  0.78896  0.20694  1.0000
  S   S126      1.0  0.31841  0.76994  0.28762  1.0000
  Fe  Fe65      1.0  0.45166  0.76542  0.30853  1.0000
  S   S127      1.0  0.47874  0.78203  0.31421  1.0000
  C   C413      1.0  0.48127  0.85232  0.17213  1.0000
  Fe  Fe66      1.0  0.44107  0.79549  0.32744  1.0000
  S   S128      1.0  0.46751  0.81436  0.33521  1.0000
  S   S129      1.0  0.41796  0.80072  0.34230  1.0000
  Fe  Fe67      1.0  0.47245  0.80208  0.28249  1.0000
  H   H492      1.0  0.39139  0.83692  0.84373  1.0000
  Fe  Fe68      1.0  0.47137  0.79285  0.36600  1.0000
  H   H493      1.0  0.29761  0.80312  0.16176  1.0000
  S   S130      1.0  0.44561  0.78434  0.27365  1.0000
  S   S131      1.0  0.44469  0.77512  0.36141  1.0000
  Fe  Fe69      1.0  0.37961  0.90442  0.95486  1.0000
  S   S132      1.0  0.38086  0.89473  0.01227  1.0000
  S   S133      1.0  0.38873  0.93282  0.93612  1.0000
  Fe  Fe70      1.0  0.36708  0.86758  0.91873  1.0000
  S   S134      1.0  0.36798  0.85587  0.97379  1.0000
  S   S135      1.0  0.36157  0.84695  0.87205  1.0000
  Fe  Fe71      1.0  0.35642  0.87322  0.99894  1.0000
  S   S136      1.0  0.33573  0.85889  0.03971  1.0000
  Fe  Fe72      1.0  0.39206  0.87763  0.98407  1.0000
  S   S137      1.0  0.41143  0.87060  0.01355  1.0000
  S   S138      1.0  0.35374  0.88396  0.94304  1.0000
  S   S139      1.0  0.39257  0.88831  0.92747  1.0000
  H   H494      1.0  0.41992  0.99519  0.92096  1.0000
  H   H495      1.0  0.28918  0.83298  0.22707  1.0000
  C   C414      1.0  0.43157  0.88510  0.00469  1.0000
  C   C415      1.0  0.44508  0.88376  0.02383  1.0000
  C   C416      1.0  0.46140  0.89412  0.01424  1.0000
  C   C417      1.0  0.46418  0.90571  0.98537  1.0000
  C   C418      1.0  0.45069  0.90760  0.96736  1.0000
  C   C419      1.0  0.43435  0.89724  0.97701  1.0000
  H   H496      1.0  0.44298  0.87448  0.04547  1.0000
  H   H497      1.0  0.47182  0.89299  0.02893  1.0000
  H   H498      1.0  0.45287  0.91650  0.94485  1.0000
  H   H499      1.0  0.42396  0.89826  0.96219  1.0000
  C   C420      1.0  0.42723  0.76920  0.54774  1.0000
  H   H500      1.0  0.42642  0.79175  0.42231  1.0000
  H   H501      1.0  0.27283  0.81332  0.23731  1.0000
  C   C421      1.0  0.47986  0.84004  0.19966  1.0000
  C   C422      1.0  0.34027  0.84442  0.16041  1.0000
  C   C423      1.0  0.33239  0.83164  0.13390  1.0000
  C   C424      1.0  0.33173  0.83604  0.09657  1.0000
  C   C425      1.0  0.33951  0.85314  0.08499  1.0000
  C   C426      1.0  0.34799  0.86576  0.11130  1.0000
  C   C427      1.0  0.34813  0.86146  0.14875  1.0000
  H   H502      1.0  0.32646  0.81844  0.14218  1.0000
  H   H503      1.0  0.32487  0.82623  0.07663  1.0000
  H   H504      1.0  0.35368  0.87903  0.10307  1.0000
  H   H505      1.0  0.35418  0.87151  0.16892  1.0000
  C   C428      1.0  0.40172  0.79314  0.30961  1.0000
  C   C429      1.0  0.38516  0.78827  0.32145  1.0000
  C   C430      1.0  0.37196  0.78220  0.29601  1.0000
  C   C431      1.0  0.37522  0.78074  0.25858  1.0000
  C   C432      1.0  0.39177  0.78548  0.24661  1.0000
  C   C433      1.0  0.40503  0.79176  0.27210  1.0000
  H   H506      1.0  0.38244  0.78886  0.35039  1.0000
  H   H507      1.0  0.35920  0.77841  0.30549  1.0000
  H   H508      1.0  0.39434  0.78451  0.21759  1.0000
  H   H509      1.0  0.41778  0.79580  0.26265  1.0000
  N   N29       1.0  0.28095  0.81522  0.18050  1.0000
  C   C434      1.0  0.47122  0.80326  0.53941  1.0000
  C   C435      1.0  0.46707  0.81115  0.50892  1.0000
  C   C436      1.0  0.47032  0.80713  0.47244  1.0000
  C   C437      1.0  0.47827  0.79556  0.46597  1.0000
  H   H510      1.0  0.27607  0.75938  0.78958  1.0000
  C   C438      1.0  0.38823  0.77716  0.46247  1.0000
  S   S140      1.0  0.48444  0.83129  0.76501  1.0000
  H   H511      1.0  0.47247  0.99312  0.90090  1.0000
  H   H512      1.0  0.43505  0.78932  0.48535  1.0000
  H   H513      1.0  0.36639  0.81870  0.53406  1.0000
  H   H514      1.0  0.39099  0.80226  0.73306  1.0000
  C   C439      1.0  0.48058  0.99130  0.92290  1.0000
  C   C440      1.0  0.28481  0.83706  0.08705  1.0000
  C   C441      1.0  0.31212  0.79849  0.48921  1.0000
  C   C442      1.0  0.30391  0.80040  0.45696  1.0000
  C   C443      1.0  0.31054  0.79954  0.42161  1.0000
  C   C444      1.0  0.32555  0.79689  0.41819  1.0000
  C   C445      1.0  0.33367  0.79481  0.45040  1.0000
  C   C446      1.0  0.32701  0.79556  0.48566  1.0000
  H   H515      1.0  0.29242  0.80271  0.45938  1.0000
  H   H516      1.0  0.30420  0.80129  0.39717  1.0000
  H   H517      1.0  0.34527  0.79271  0.44813  1.0000
  H   H518      1.0  0.33345  0.79404  0.51015  1.0000
  C   C447      1.0  0.33518  0.83212  0.75820  1.0000
  C   C448      1.0  0.33724  0.84801  0.77516  1.0000
  C   C449      1.0  0.34521  0.85280  0.80991  1.0000
  C   C450      1.0  0.35128  0.84174  0.82824  1.0000
  C   C451      1.0  0.34925  0.82585  0.81121  1.0000
  C   C452      1.0  0.34115  0.82100  0.77664  1.0000
  H   H519      1.0  0.33258  0.85670  0.76138  1.0000
  H   H520      1.0  0.34664  0.86506  0.82251  1.0000
  H   H521      1.0  0.35372  0.81709  0.82527  1.0000
  H   H522      1.0  0.33926  0.80854  0.76466  1.0000
  C   C453      1.0  0.40162  0.77659  0.68349  1.0000
  C   C454      1.0  0.40946  0.79075  0.66123  1.0000
  C   C455      1.0  0.39997  0.79761  0.64008  1.0000
  C   C456      1.0  0.38256  0.79007  0.64029  1.0000
  C   C457      1.0  0.37456  0.77605  0.66290  1.0000
  C   C458      1.0  0.38412  0.76935  0.68465  1.0000
  H   H523      1.0  0.29119  0.79903  0.20893  1.0000
  H   H524      1.0  0.31452  0.79284  0.87241  1.0000
  H   H525      1.0  0.36107  0.77015  0.66308  1.0000
  H   H526      1.0  0.41321  0.81734  0.49786  1.0000
  C   C459      1.0  0.40630  0.96790  0.92860  1.0000
  C   C460      1.0  0.40074  0.95413  0.95350  1.0000
  C   C461      1.0  0.40505  0.95776  0.99084  1.0000
  H   H527      1.0  0.40309  0.96539  0.89967  1.0000
  H   H528      1.0  0.40096  0.94747  0.01051  1.0000
  N   N30       1.0  0.38988  0.84348  0.12841  1.0000
  C   C462      1.0  0.38793  0.85277  0.16217  1.0000
  C   C463      1.0  0.38874  0.85369  0.09602  1.0000
  C   C464      1.0  0.37566  0.82671  0.12583  1.0000
  C   C465      1.0  0.40584  0.84070  0.13072  1.0000
  C   C466      1.0  0.40851  0.83062  0.15942  1.0000
  C   C467      1.0  0.41928  0.84820  0.10580  1.0000
  C   C468      1.0  0.42364  0.82820  0.16290  1.0000
  C   C469      1.0  0.43439  0.84574  0.10966  1.0000
  C   C470      1.0  0.43655  0.83575  0.13807  1.0000
  H   H529      1.0  0.39866  0.86521  0.16575  1.0000
  H   H530      1.0  0.37637  0.85565  0.16111  1.0000
  H   H531      1.0  0.38696  0.84520  0.18758  1.0000
  H   H532      1.0  0.39851  0.86688  0.09680  1.0000
  H   H533      1.0  0.37652  0.85535  0.09473  1.0000
  H   H534      1.0  0.38992  0.84732  0.06952  1.0000
  H   H535      1.0  0.37416  0.81898  0.15117  1.0000
  H   H536      1.0  0.36356  0.82842  0.12197  1.0000
  H   H537      1.0  0.37721  0.81890  0.10201  1.0000
  H   H538      1.0  0.39895  0.82466  0.17965  1.0000
  H   H539      1.0  0.41849  0.85611  0.08317  1.0000
  H   H540      1.0  0.42543  0.82054  0.18516  1.0000
  H   H541      1.0  0.44458  0.85172  0.09065  1.0000
  H   H542      1.0  0.44830  0.83393  0.14089  1.0000
  C   C471      1.0  0.29961  0.84405  0.15689  1.0000
  C   C472      1.0  0.27885  0.82497  0.11501  1.0000
  C   C473      1.0  0.45605  0.95820  0.98779  1.0000
  H   H543      1.0  0.46402  0.96099  0.01183  1.0000
  S   S141      1.0  0.48409  0.79132  0.42069  1.0000
  H   H544      1.0  0.26877  0.81315  0.10754  1.0000
  H   H545      1.0  0.30015  0.77449  0.82021  1.0000
  H   H546      1.0  0.27942  0.83430  0.05956  1.0000
  C   C474      1.0  0.29802  0.85255  0.09395  1.0000
  N   N31       1.0  0.28611  0.78314  0.75940  1.0000
  H   H547      1.0  0.37797  0.75839  0.70191  1.0000
  C   C475      1.0  0.41991  0.98858  0.97807  1.0000
  C   C476      1.0  0.29409  0.79420  0.79172  1.0000
  C   C477      1.0  0.30085  0.78762  0.82086  1.0000
  C   C478      1.0  0.29599  0.81177  0.79473  1.0000
  H   H548      1.0  0.30968  0.78898  0.73279  1.0000
  C   C479      1.0  0.30413  0.82196  0.82506  1.0000
  C   C480      1.0  0.31075  0.81514  0.85294  1.0000
  H   H549      1.0  0.42287  0.86353  0.93309  1.0000
  C   C481      1.0  0.28609  0.75223  0.36402  1.0000
  S   S142      1.0  0.48925  0.81489  0.23308  1.0000
  H   H550      1.0  0.43067  0.76731  0.57656  1.0000
  C   C482      1.0  0.41599  0.98488  0.94059  1.0000
  C   C483      1.0  0.43157  0.93774  0.95751  1.0000
  H   H551      1.0  0.39644  0.85503  0.89991  1.0000
  H   H552      1.0  0.29184  0.81817  0.77349  1.0000
  H   H553      1.0  0.41338  0.82703  0.82016  1.0000
  H   H554      1.0  0.30591  0.83547  0.82629  1.0000
  H   H555      1.0  0.31760  0.82331  0.87567  1.0000
  N   N32       1.0  0.38205  0.83327  0.41077  1.0000
  H   H556      1.0  0.37519  0.77417  0.45563  1.0000
  C   C484      1.0  0.38182  0.84507  0.74053  1.0000
  C   C485      1.0  0.36701  0.83779  0.40736  1.0000
  C   C486      1.0  0.38468  0.82814  0.44849  1.0000
  C   C487      1.0  0.39919  0.82467  0.45686  1.0000
  C   C488      1.0  0.37288  0.82584  0.47743  1.0000
  C   C489      1.0  0.40196  0.81976  0.49217  1.0000
  C   C490      1.0  0.37565  0.82060  0.51246  1.0000
  C   C491      1.0  0.39019  0.81768  0.51989  1.0000
  H   H557      1.0  0.46570  0.85050  0.87520  1.0000
  H   H558      1.0  0.39147  0.85821  0.73876  1.0000
  H   H559      1.0  0.36998  0.80685  0.39364  1.0000
  H   H560      1.0  0.35539  0.82670  0.41357  1.0000
  H   H561      1.0  0.36774  0.84867  0.42614  1.0000
  H   H562      1.0  0.36529  0.84153  0.37873  1.0000
  H   H563      1.0  0.31588  0.86799  0.13377  1.0000
  H   H564      1.0  0.36129  0.82779  0.47374  1.0000
  H   H565      1.0  0.46723  0.81348  0.44940  1.0000
  H   H566      1.0  0.47306  0.85020  0.92089  1.0000
  C   C492      1.0  0.30528  0.85610  0.12888  1.0000
  N   N33       1.0  0.44995  0.85465  0.91781  1.0000
  C   C493      1.0  0.46145  0.84645  0.90379  1.0000
  C   C494      1.0  0.45892  0.87350  0.91615  1.0000
  C   C495      1.0  0.44632  0.84969  0.95701  1.0000
  C   C496      1.0  0.43410  0.84973  0.89671  1.0000
  C   C497      1.0  0.43090  0.83948  0.86384  1.0000
  C   C498      1.0  0.42131  0.85542  0.90877  1.0000
  H   H567      1.0  0.47358  0.85996  0.17390  1.0000
  H   H568      1.0  0.48494  0.98094  0.91380  1.0000
  N   N34       1.0  0.41534  0.77826  0.54690  1.0000
  H   H569      1.0  0.30299  0.86165  0.07190  1.0000
  H   H570      1.0  0.39836  0.75817  0.29776  1.0000
  C   C499      1.0  0.40327  0.84051  0.85805  1.0000
  H   H571      1.0  0.46216  0.87776  0.88726  1.0000
  H   H572      1.0  0.47074  0.87793  0.93253  1.0000
  H   H573      1.0  0.45131  0.88058  0.92731  1.0000
  C   C500      1.0  0.44700  0.96481  0.92866  1.0000
  H   H574      1.0  0.45793  0.85224  0.97332  1.0000
  H   H575      1.0  0.43851  0.83578  0.95924  1.0000
  H   H576      1.0  0.43993  0.83475  0.85220  1.0000
  H   H577      1.0  0.42090  0.74871  0.24866  1.0000
  H   H578      1.0  0.28968  0.80310  0.71960  1.0000
  H   H579      1.0  0.26840  0.82914  0.21070  1.0000
  H   H580      1.0  0.42086  0.92574  0.95762  1.0000
  C   C501      1.0  0.28615  0.82812  0.15091  1.0000
  H   H581      1.0  0.25489  0.80387  0.16537  1.0000
  H   H582      1.0  0.26767  0.79249  0.14765  1.0000
  S   S143      1.0  0.48434  0.91619  0.96882  1.0000
  H   H583      1.0  0.45555  0.83219  0.90433  1.0000
  H   H584      1.0  0.39269  0.77594  0.57606  1.0000
  C   C502      1.0  0.26564  0.80002  0.17147  1.0000
  H   H585      1.0  0.36975  0.84632  0.73341  1.0000
  C   C503      1.0  0.29857  0.77759  0.74061  1.0000
  H   H586      1.0  0.39399  0.75578  0.56119  1.0000
  H   H587      1.0  0.38102  0.84113  0.76993  1.0000
  H   H588      1.0  0.40822  0.84570  0.39649  1.0000
  H   H589      1.0  0.26189  0.79082  0.19479  1.0000
  H   H590      1.0  0.48540  0.81080  0.83024  1.0000
  H   H591      1.0  0.30624  0.81941  0.19667  1.0000
  C   C504      1.0  0.40172  0.81414  0.73526  1.0000
  H   H592      1.0  0.35879  0.81836  0.70871  1.0000
  H   H593      1.0  0.39723  0.85160  0.67494  1.0000
  C   C505      1.0  0.41434  0.97483  0.00299  1.0000
  C   C506      1.0  0.27769  0.82304  0.21526  1.0000
  H   H594      1.0  0.37683  0.82151  0.35627  1.0000
  C   C507      1.0  0.41706  0.78710  0.44377  1.0000
  C   C508      1.0  0.41608  0.84492  0.73036  1.0000
  C   C509      1.0  0.37035  0.81625  0.71676  1.0000
  H   H595      1.0  0.41652  0.85765  0.72424  1.0000
  C   C510      1.0  0.40613  0.85074  0.88981  1.0000
  H   H596      1.0  0.44744  0.97336  0.90638  1.0000
  N   N35       1.0  0.47202  0.98726  0.95916  1.0000
  H   H597      1.0  0.40618  0.80871  0.62328  1.0000
  H   H598      1.0  0.26653  0.75418  0.65852  1.0000
  H   H599      1.0  0.37143  0.80652  0.69679  1.0000
  C   C511      1.0  0.38013  0.81887  0.38466  1.0000
  H   H600      1.0  0.40844  0.82555  0.43598  1.0000
  C   C512      1.0  0.42185  0.78551  0.47996  1.0000
  H   H601      1.0  0.42284  0.79643  0.66009  1.0000
  C   C513      1.0  0.40089  0.83039  0.72757  1.0000
  N   N36       1.0  0.38528  0.83245  0.71593  1.0000
  H   H602      1.0  0.41715  0.97741  0.03206  1.0000
  C   C514      1.0  0.39665  0.84850  0.39936  1.0000
  C   C515      1.0  0.38712  0.83876  0.67753  1.0000
  H   H603      1.0  0.39006  0.82975  0.65836  1.0000
  C   C516      1.0  0.41681  0.81267  0.74524  1.0000
  H   H604      1.0  0.36823  0.81068  0.74485  1.0000
  H   H605      1.0  0.42861  0.79573  0.59066  1.0000
  C   C517      1.0  0.43145  0.82719  0.74772  1.0000
  H   H606      1.0  0.44257  0.85453  0.74199  1.0000
  C   C518      1.0  0.43108  0.84329  0.74039  1.0000
  H   H607      1.0  0.44317  0.82594  0.75488  1.0000
  H   H608      1.0  0.37541  0.83991  0.66723  1.0000
  H   H609      1.0  0.43961  0.85699  0.97134  1.0000
  H   H610      1.0  0.41720  0.80010  0.75033  1.0000
  H   H611      1.0  0.43493  0.80343  0.54543  1.0000
  H   H612      1.0  0.42184  0.75639  0.53381  1.0000
  H   H613      1.0  0.26548  0.75933  0.74755  1.0000
  H   H614      1.0  0.39177  0.81615  0.38222  1.0000
  C   C519      1.0  0.42388  0.79586  0.56209  1.0000
  C   C520      1.0  0.27950  0.79187  0.73162  1.0000
  H   H615      1.0  0.39220  0.81368  0.54717  1.0000
  H   H616      1.0  0.39458  0.85318  0.37189  1.0000
  H   H617      1.0  0.41536  0.80306  0.56290  1.0000
  H   H618      1.0  0.46146  0.82059  0.51351  1.0000
  H   H619      1.0  0.47120  0.83839  0.22221  1.0000
  H   H620      1.0  0.26260  0.77130  0.78699  1.0000
  C   C521      1.0  0.30908  0.79798  0.85090  1.0000
  H   H621      1.0  0.43933  0.77658  0.53440  1.0000
  C   C522      1.0  0.41565  0.83496  0.84497  1.0000
  C   C523      1.0  0.40990  0.77940  0.50856  1.0000
  H   H622      1.0  0.39921  0.85927  0.41972  1.0000
  H   H623      1.0  0.38290  0.77131  0.51872  1.0000
  C   C524      1.0  0.27197  0.76766  0.77151  1.0000
  H   H624      1.0  0.42495  0.94524  0.90547  1.0000
  C   C525      1.0  0.39288  0.77550  0.49879  1.0000
  C   C526      1.0  0.40847  0.74746  0.23748  1.0000
  H   H625      1.0  0.29753  0.76358  0.36394  1.0000
  C   C527      1.0  0.43393  0.94878  0.92800  1.0000
  C   C528      1.0  0.45866  0.96993  0.95831  1.0000
  H   H626      1.0  0.29337  0.76986  0.71509  1.0000
  C   C529      1.0  0.48507  0.98931  0.98759  1.0000
  C   C530      1.0  0.27315  0.75085  0.33970  1.0000
  H   H627      1.0  0.27347  0.78317  0.70787  1.0000
  H   H628      1.0  0.48003  0.98869  0.01605  1.0000
  H   H629      1.0  0.26993  0.79632  0.74376  1.0000
  H   H630      1.0  0.40581  0.76757  0.60006  1.0000
  C   C531      1.0  0.40131  0.76895  0.57190  1.0000
  H   H631      1.0  0.30301  0.76940  0.75817  1.0000
  S   S144      1.0  0.48607  0.75362  0.70265  1.0000
  C   C532      1.0  0.44260  0.94241  0.98731  1.0000
  H   H632      1.0  0.44062  0.93372  0.01025  1.0000
  S   S145      1.0  0.48853  0.80010  0.68112  1.0000
  C   C533      1.0  0.47880  0.79137  0.53293  1.0000
  H   H633      1.0  0.40870  0.76080  0.23591  1.0000
  H   H634      1.0  0.46762  0.75696  0.39664  1.0000
  H   H635      1.0  0.48218  0.78529  0.55603  1.0000
  H   H636      1.0  0.27467  0.76109  0.32041  1.0000
  C   C534      1.0  0.48253  0.78776  0.49649  1.0000
  H   H637      1.0  0.37939  0.74985  0.24058  1.0000
  C   C535      1.0  0.48988  0.83019  0.19834  1.0000
  C   C536      1.0  0.48989  0.82419  0.83838  1.0000
  H   H638      1.0  0.48894  0.77903  0.49205  1.0000
  H   H639      1.0  0.49000  0.74927  0.33902  1.0000
  Fe  Fe73      1.0  0.67096  0.18055  0.72373  1.0000
  S   S146      1.0  0.68182  0.16011  0.72420  1.0000
  S   S147      1.0  0.68620  0.20936  0.72636  1.0000
  Fe  Fe74      1.0  0.63517  0.15370  0.71892  1.0000
  S   S148      1.0  0.64387  0.13157  0.71805  1.0000
  S   S149      1.0  0.60735  0.14567  0.72413  1.0000
  Fe  Fe75      1.0  0.66112  0.14591  0.76424  1.0000
  S   S150      1.0  0.66478  0.13833  0.82359  1.0000
  Fe  Fe76      1.0  0.66324  0.14798  0.67806  1.0000
  S   S151      1.0  0.67183  0.13984  0.62360  1.0000
  S   S152      1.0  0.65154  0.16742  0.76622  1.0000
  S   S153      1.0  0.65322  0.16908  0.67632  1.0000
  Fe  Fe77      1.0  0.68146  0.17522  0.34688  1.0000
  S   S154      1.0  0.67163  0.14773  0.36646  1.0000
  S   S155      1.0  0.70972  0.18862  0.34103  1.0000
  Fe  Fe78      1.0  0.64681  0.17640  0.34452  1.0000
  S   S156      1.0  0.63491  0.14939  0.36337  1.0000
  S   S157      1.0  0.63029  0.19183  0.34307  1.0000
  Fe  Fe79      1.0  0.65563  0.15631  0.40545  1.0000
  S   S158      1.0  0.64561  0.15077  0.46464  1.0000
  Fe  Fe80      1.0  0.65163  0.14310  0.32256  1.0000
  S   S159      1.0  0.63823  0.11757  0.29059  1.0000
  S   S160      1.0  0.66673  0.18382  0.38832  1.0000
  S   S161      1.0  0.66239  0.17011  0.30082  1.0000
  Fe  Fe81      1.0  0.59628  0.04200  0.04074  1.0000
  S   S162      1.0  0.59397  0.06069  0.08443  1.0000
  Fe  Fe82      1.0  0.61861  0.07191  0.99039  1.0000
  S   S163      1.0  0.61765  0.09224  0.03021  1.0000
  S   S164      1.0  0.62723  0.07482  0.92969  1.0000
  Fe  Fe83      1.0  0.62137  0.07606  0.07620  1.0000
  S   S165      1.0  0.63905  0.09366  0.12064  1.0000
  Fe  Fe84      1.0  0.59073  0.07595  0.03712  1.0000
  S   S166      1.0  0.57203  0.08860  0.03710  1.0000
  S   S167      1.0  0.62435  0.05626  0.03532  1.0000
  S   S168      1.0  0.59104  0.05681  0.99418  1.0000
  Fe  Fe85      1.0  0.50573  0.17390  0.65357  1.0000
  H   H640      1.0  0.70034  0.15998  0.82034  1.0000
  H   H641      1.0  0.60627  0.02411  0.87694  1.0000
  Fe  Fe86      1.0  0.53995  0.17142  0.65383  1.0000
  S   S169      1.0  0.52922  0.14274  0.64886  1.0000
  S   S170      1.0  0.56758  0.18667  0.64973  1.0000
  Fe  Fe87      1.0  0.51204  0.14665  0.60635  1.0000
  C   C537      1.0  0.73191  0.23559  0.82818  1.0000
  Fe  Fe88      1.0  0.51087  0.14387  0.69277  1.0000
  H   H642      1.0  0.69606  0.18940  0.77795  1.0000
  S   S171      1.0  0.52406  0.17521  0.60880  1.0000
  S   S172      1.0  0.52289  0.17285  0.69948  1.0000
  Fe  Fe89      1.0  0.51539  0.18132  0.26207  1.0000
  S   S173      1.0  0.50827  0.20382  0.24589  1.0000
  Fe  Fe90      1.0  0.54201  0.16555  0.26121  1.0000
  S   S174      1.0  0.52585  0.14181  0.29053  1.0000
  S   S175      1.0  0.56721  0.16881  0.23756  1.0000
  Fe  Fe91      1.0  0.50582  0.14228  0.25038  1.0000
  Fe  Fe92      1.0  0.51848  0.15988  0.32751  1.0000
  H   H643      1.0  0.72854  0.20038  0.60449  1.0000
  S   S176      1.0  0.52250  0.16526  0.21993  1.0000
  S   S177      1.0  0.53643  0.18363  0.30026  1.0000
  C   C538      1.0  0.51713  0.15651  0.43387  1.0000
  H   H644      1.0  0.59734  0.22605  0.21475  1.0000
  C   C539      1.0  0.51184  0.14233  0.50576  1.0000
  C   C540      1.0  0.49715  0.12324  0.14320  1.0000
  C   C541      1.0  0.52727  0.08294  0.13747  1.0000
  C   C542      1.0  0.71557  0.23762  0.72899  1.0000
  C   C543      1.0  0.73773  0.21835  0.34136  1.0000
  C   C544      1.0  0.51772  0.16013  0.50134  1.0000
  H   H645      1.0  0.51383  0.20557  0.70768  1.0000
  H   H646      1.0  0.52713  0.22028  0.43207  1.0000
  H   H647      1.0  0.60956  0.07569  0.42599  1.0000
  H   H648      1.0  0.49644  0.05565  0.08198  1.0000
  C   C545      1.0  0.55446  0.07486  0.01318  1.0000
  C   C546      1.0  0.54369  0.08149  0.99617  1.0000
  C   C547      1.0  0.52939  0.07043  0.97776  1.0000
  C   C548      1.0  0.52581  0.05274  0.97652  1.0000
  C   C549      1.0  0.53665  0.04613  0.99342  1.0000
  C   C550      1.0  0.55097  0.05719  0.01179  1.0000
  H   H649      1.0  0.54644  0.09518  0.99700  1.0000
  H   H650      1.0  0.52129  0.07564  0.96406  1.0000
  H   H651      1.0  0.53383  0.03244  0.99299  1.0000
  H   H652      1.0  0.55901  0.05193  0.02577  1.0000
  C   C551      1.0  0.61242  0.18384  0.31481  1.0000
  C   C552      1.0  0.61346  0.17835  0.27860  1.0000
  C   C553      1.0  0.59950  0.17381  0.25510  1.0000
  C   C554      1.0  0.58426  0.17402  0.26815  1.0000
  C   C555      1.0  0.58305  0.17896  0.30475  1.0000
  C   C556      1.0  0.59722  0.18420  0.32779  1.0000
  H   H653      1.0  0.62521  0.17825  0.26832  1.0000
  H   H654      1.0  0.60055  0.17018  0.22671  1.0000
  H   H655      1.0  0.57134  0.17909  0.31510  1.0000
  H   H656      1.0  0.59642  0.18854  0.35575  1.0000
  C   C557      1.0  0.63863  0.11127  0.24311  1.0000
  C   C558      1.0  0.62668  0.09551  0.23030  1.0000
  C   C559      1.0  0.62646  0.08996  0.19308  1.0000
  C   C560      1.0  0.63841  0.09996  0.16806  1.0000
  C   C561      1.0  0.65043  0.11563  0.18098  1.0000
  C   C562      1.0  0.65044  0.12135  0.21798  1.0000
  H   H657      1.0  0.61750  0.08752  0.24933  1.0000
  H   H658      1.0  0.61723  0.07780  0.18397  1.0000
  H   H659      1.0  0.65984  0.12347  0.16216  1.0000
  H   H660      1.0  0.65979  0.13343  0.22719  1.0000
  H   H661      1.0  0.51576  0.09582  0.08080  1.0000
  C   C563      1.0  0.52631  0.23774  0.58622  1.0000
  C   C564      1.0  0.66544  0.14448  0.57963  1.0000
  C   C565      1.0  0.65175  0.14945  0.57582  1.0000
  C   C566      1.0  0.64627  0.15188  0.54045  1.0000
  C   C567      1.0  0.65453  0.14968  0.50837  1.0000
  C   C568      1.0  0.66860  0.14530  0.51219  1.0000
  C   C569      1.0  0.67393  0.14260  0.54764  1.0000
  H   H662      1.0  0.64498  0.15081  0.60004  1.0000
  H   H663      1.0  0.63531  0.15513  0.53789  1.0000
  H   H664      1.0  0.67498  0.14334  0.48783  1.0000
  H   H665      1.0  0.68449  0.13868  0.55020  1.0000
  C   C570      1.0  0.65307  0.12078  0.85237  1.0000
  C   C571      1.0  0.65390  0.12320  0.89103  1.0000
  C   C572      1.0  0.64569  0.10950  0.91505  1.0000
  C   C573      1.0  0.63682  0.09298  0.90079  1.0000
  C   C574      1.0  0.63589  0.09058  0.86213  1.0000
  C   C575      1.0  0.64382  0.10436  0.83809  1.0000
  H   H666      1.0  0.66112  0.13575  0.90258  1.0000
  H   H667      1.0  0.64667  0.11160  0.94464  1.0000
  H   H668      1.0  0.62919  0.07788  0.85066  1.0000
  H   H669      1.0  0.64325  0.10213  0.80855  1.0000
  C   C576      1.0  0.57900  0.17592  0.67145  1.0000
  C   C577      1.0  0.57076  0.16166  0.69318  1.0000
  C   C578      1.0  0.57967  0.15255  0.70913  1.0000
  C   C579      1.0  0.59691  0.15771  0.70371  1.0000
  C   C580      1.0  0.60528  0.17210  0.68229  1.0000
  C   C581      1.0  0.59630  0.18122  0.66615  1.0000
  H   H670      1.0  0.55751  0.15769  0.69812  1.0000
  H   H671      1.0  0.57315  0.14149  0.72581  1.0000
  H   H672      1.0  0.61861  0.17617  0.67815  1.0000
  H   H673      1.0  0.60274  0.19228  0.64943  1.0000
  C   C582      1.0  0.70833  0.21961  0.72584  1.0000
  N   N37       1.0  0.58911  0.01513  0.92256  1.0000
  C   C583      1.0  0.64817  0.09577  0.51487  1.0000
  C   C584      1.0  0.72008  0.20984  0.25211  1.0000
  C   C585      1.0  0.51871  0.22546  0.26040  1.0000
  H   H674      1.0  0.53351  0.22001  0.61546  1.0000
  C   C586      1.0  0.57904  0.05376  0.89416  1.0000
  H   H675      1.0  0.53758  0.22104  0.29259  1.0000
  H   H676      1.0  0.51657  0.19936  0.38060  1.0000
  C   C587      1.0  0.50259  0.10730  0.80694  1.0000
  S   S178      1.0  0.50785  0.13278  0.55017  1.0000
  C   C588      1.0  0.57936  0.13328  0.20664  1.0000
  C   C589      1.0  0.73628  0.21901  0.72167  1.0000
  H   H677      1.0  0.54519  0.10724  0.23073  1.0000
  C   C590      1.0  0.52805  0.06200  0.08904  1.0000
  C   C591      1.0  0.55397  0.03268  0.91893  1.0000
  C   C592      1.0  0.71278  0.21492  0.61740  1.0000
  H   H678      1.0  0.70839  0.19963  0.25917  1.0000
  H   H679      1.0  0.54759  0.23346  0.20042  1.0000
  C   C593      1.0  0.49576  0.11430  0.77900  1.0000
  H   H680      1.0  0.62249  0.11425  0.55066  1.0000
  C   C594      1.0  0.55620  0.22408  0.66348  1.0000
  H   H681      1.0  0.57316  0.99933  0.96436  1.0000
  C   C595      1.0  0.72062  0.22645  0.24703  1.0000
  S   S179      1.0  0.49242  0.14504  0.64924  1.0000
  H   H682      1.0  0.53536  0.09448  0.06815  1.0000
  H   H683      1.0  0.68760  0.19676  0.81662  1.0000
  H   H684      1.0  0.68082  0.20893  0.64468  1.0000
  H   H685      1.0  0.70599  0.18843  0.56638  1.0000
  H   H686      1.0  0.58387  0.20436  0.20593  1.0000
  C   C596      1.0  0.71136  0.22227  0.34283  1.0000
  C   C597      1.0  0.56225  0.04873  0.90360  1.0000
  N   N38       1.0  0.70726  0.18733  0.82953  1.0000
  H   H687      1.0  0.65783  0.09125  0.52350  1.0000
  C   C598      1.0  0.51996  0.09353  0.15550  1.0000
  H   H688      1.0  0.71305  0.18550  0.88660  1.0000
  H   H689      1.0  0.69784  0.21698  0.34348  1.0000
  H   H690      1.0  0.69199  0.17231  0.87327  1.0000
  C   C599      1.0  0.73469  0.20649  0.24981  1.0000
  H   H691      1.0  0.52011  0.16853  0.52530  1.0000
  S   S180      1.0  0.50763  0.03875  0.95487  1.0000
  C   C600      1.0  0.60274  0.02356  0.94953  1.0000
  H   H692      1.0  0.68214  0.17436  0.80919  1.0000
  N   N39       1.0  0.60109  0.12022  0.12605  1.0000
  C   C601      1.0  0.61914  0.12950  0.11827  1.0000
  C   C602      1.0  0.59736  0.10152  0.12379  1.0000
  C   C603      1.0  0.59153  0.12451  0.09625  1.0000
  C   C604      1.0  0.59692  0.12464  0.16354  1.0000
  C   C605      1.0  0.60647  0.12347  0.19451  1.0000
  H   H693      1.0  0.62735  0.12512  0.13562  1.0000
  H   H694      1.0  0.62235  0.12724  0.08937  1.0000
  H   H695      1.0  0.62285  0.14358  0.12290  1.0000
  H   H696      1.0  0.60488  0.09747  0.14382  1.0000
  H   H697      1.0  0.60026  0.09764  0.09598  1.0000
  H   H698      1.0  0.58394  0.09398  0.12926  1.0000
  H   H699      1.0  0.59338  0.13836  0.09724  1.0000
  H   H700      1.0  0.59547  0.12173  0.06833  1.0000
  H   H701      1.0  0.57794  0.11659  0.09771  1.0000
  H   H702      1.0  0.61696  0.11954  0.19138  1.0000
  N   N40       1.0  0.59662  0.12109  0.82512  1.0000
  C   C606      1.0  0.58705  0.10965  0.79462  1.0000
  C   C607      1.0  0.59269  0.13688  0.82580  1.0000
  C   C608      1.0  0.61467  0.12629  0.81630  1.0000
  C   C609      1.0  0.59189  0.11217  0.86080  1.0000
  C   C610      1.0  0.60364  0.10928  0.88463  1.0000
  C   C611      1.0  0.57500  0.10611  0.87278  1.0000
  C   C612      1.0  0.59871  0.10081  0.91812  1.0000
  C   C613      1.0  0.57022  0.09764  0.90635  1.0000
  C   C614      1.0  0.58207  0.09501  0.92895  1.0000
  H   H703      1.0  0.57340  0.10663  0.79664  1.0000
  H   H704      1.0  0.59085  0.11567  0.76716  1.0000
  H   H705      1.0  0.58909  0.09730  0.79418  1.0000
  H   H706      1.0  0.57909  0.13403  0.82865  1.0000
  H   H707      1.0  0.59657  0.14422  0.79976  1.0000
  H   H708      1.0  0.59924  0.14559  0.84906  1.0000
  H   H709      1.0  0.61839  0.11496  0.81396  1.0000
  H   H710      1.0  0.61781  0.13293  0.78934  1.0000
  H   H711      1.0  0.62276  0.13544  0.83729  1.0000
  H   H712      1.0  0.61674  0.11342  0.87810  1.0000
  H   H713      1.0  0.56537  0.10791  0.85627  1.0000
  H   H714      1.0  0.60787  0.09862  0.93577  1.0000
  H   H715      1.0  0.55726  0.09311  0.91501  1.0000
  H   H716      1.0  0.57837  0.08839  0.95489  1.0000
  N   N41       1.0  0.56469  0.15107  0.55347  1.0000
  C   C615      1.0  0.57363  0.15003  0.58788  1.0000
  C   C616      1.0  0.55831  0.16508  0.55900  1.0000
  C   C617      1.0  0.55026  0.13458  0.54887  1.0000
  C   C618      1.0  0.57525  0.15436  0.51999  1.0000
  C   C619      1.0  0.59231  0.15606  0.52069  1.0000
  C   C620      1.0  0.56849  0.15598  0.48511  1.0000
  C   C621      1.0  0.60190  0.15928  0.48843  1.0000
  C   C622      1.0  0.57822  0.15928  0.45312  1.0000
  C   C623      1.0  0.59490  0.16097  0.45479  1.0000
  H   H717      1.0  0.58430  0.16229  0.59387  1.0000
  H   H718      1.0  0.56534  0.14769  0.61251  1.0000
  H   H719      1.0  0.57825  0.13930  0.58656  1.0000
  H   H720      1.0  0.55085  0.16332  0.58473  1.0000
  H   H721      1.0  0.54995  0.16569  0.53623  1.0000
  H   H722      1.0  0.56875  0.17781  0.56147  1.0000
  H   H723      1.0  0.55446  0.12371  0.54372  1.0000
  H   H724      1.0  0.54211  0.13153  0.57376  1.0000
  H   H725      1.0  0.54198  0.13477  0.52552  1.0000
  H   H726      1.0  0.59859  0.15505  0.54580  1.0000
  H   H727      1.0  0.55560  0.15475  0.48228  1.0000
  C   C624      1.0  0.49246  0.09693  0.83496  1.0000
  H   H728      1.0  0.57281  0.16060  0.42685  1.0000
  H   H729      1.0  0.60246  0.16366  0.42995  1.0000
  H   H730      1.0  0.58358  0.22101  0.17541  1.0000
  H   H731      1.0  0.70714  0.21970  0.84243  1.0000
  H   H732      1.0  0.60291  0.00285  0.89091  1.0000
  C   C625      1.0  0.49780  0.22683  0.64910  1.0000
  C   C626      1.0  0.51867  0.23273  0.71062  1.0000
  H   H733      1.0  0.50900  0.13035  0.41418  1.0000
  H   H734      1.0  0.71481  0.17314  0.78769  1.0000
  H   H735      1.0  0.70760  0.24493  0.73187  1.0000
  H   H736      1.0  0.52685  0.05184  0.10948  1.0000
  C   C627      1.0  0.52195  0.08673  0.07333  1.0000
  C   C628      1.0  0.55929  0.24294  0.21007  1.0000
  C   C629      1.0  0.54036  0.10062  0.20481  1.0000
  H   H737      1.0  0.58559  0.06632  0.88261  1.0000
  H   H738      1.0  0.56479  0.22148  0.68335  1.0000
  H   H739      1.0  0.50916  0.09523  0.14403  1.0000
  C   C630      1.0  0.49568  0.11797  0.10560  1.0000
  C   C631      1.0  0.50865  0.24255  0.38052  1.0000
  H   H740      1.0  0.70928  0.22907  0.25004  1.0000
  C   C632      1.0  0.57243  0.23847  0.22455  1.0000
  H   H741      1.0  0.54836  0.07434  0.14254  1.0000
  S   S181      1.0  0.49694  0.15833  0.29017  1.0000
  S   S182      1.0  0.51945  0.16626  0.38978  1.0000
  H   H742      1.0  0.52452  0.18092  0.46261  1.0000
  C   C633      1.0  0.57961  0.02638  0.91607  1.0000
  H   H743      1.0  0.65258  0.10497  0.40552  1.0000
  C   C634      1.0  0.70233  0.18497  0.86888  1.0000
  C   C635      1.0  0.64044  0.10257  0.54111  1.0000
  C   C636      1.0  0.53676  0.23352  0.61045  1.0000
  C   C637      1.0  0.58760  0.04278  0.90017  1.0000
  H   H744      1.0  0.51584  0.10989  0.80684  1.0000
  H   H745      1.0  0.50437  0.11789  0.47705  1.0000
  C   C638      1.0  0.72016  0.21125  0.34238  1.0000
  C   C639      1.0  0.62818  0.10861  0.53019  1.0000
  H   H746      1.0  0.68197  0.21539  0.59685  1.0000
  C   C640      1.0  0.51156  0.13871  0.43829  1.0000
  H   H747      1.0  0.68412  0.18342  0.56498  1.0000
  C   C641      1.0  0.58304  0.12948  0.17073  1.0000
  C   C642      1.0  0.60270  0.12731  0.23027  1.0000
  H   H748      1.0  0.57485  0.13051  0.14920  1.0000
  H   H749      1.0  0.61041  0.12657  0.25338  1.0000
  C   C643      1.0  0.71881  0.21033  0.72222  1.0000
  H   H750      1.0  0.52029  0.10995  0.20209  1.0000
  C   C644      1.0  0.64380  0.09517  0.47756  1.0000
  C   C645      1.0  0.56245  0.02165  0.92542  1.0000
  H   H751      1.0  0.68320  0.17527  0.63155  1.0000
  C   C646      1.0  0.51749  0.23852  0.40970  1.0000
  H   H752      1.0  0.67002  0.19377  0.60957  1.0000
  C   C647      1.0  0.57871  0.99805  0.93731  1.0000
  H   H753      1.0  0.64420  0.10351  0.56989  1.0000
  H   H754      1.0  0.63018  0.07714  0.41344  1.0000
  C   C648      1.0  0.58916  0.13223  0.23633  1.0000
  H   H755      1.0  0.50151  0.23408  0.23152  1.0000
  C   C649      1.0  0.52635  0.10213  0.18871  1.0000
  C   C650      1.0  0.52029  0.16714  0.46566  1.0000
  H   H756      1.0  0.60068  0.04743  0.89301  1.0000
  H   H757      1.0  0.56892  0.13728  0.21151  1.0000
  H   H758      1.0  0.64940  0.12430  0.41747  1.0000
  H   H759      1.0  0.58640  0.13550  0.26401  1.0000
  H   H760      1.0  0.69779  0.19499  0.87922  1.0000
  H   H761      1.0  0.60311  0.10229  0.43006  1.0000
  H   H762      1.0  0.61023  0.01554  0.95520  1.0000
  C   C651      1.0  0.55505  0.20767  0.21432  1.0000
  H   H763      1.0  0.69576  0.19061  0.66491  1.0000
  H   H764      1.0  0.58637  0.22402  0.27699  1.0000
  H   H765      1.0  0.49619  0.17430  0.55697  1.0000
  C   C652      1.0  0.68181  0.20493  0.61553  1.0000
  H   H766      1.0  0.61491  0.16059  0.48941  1.0000
  N   N42       1.0  0.69678  0.20040  0.61019  1.0000
  S   S183      1.0  0.50936  0.12724  0.74421  1.0000
  H   H767      1.0  0.61304  0.10938  0.38669  1.0000
  C   C653      1.0  0.69524  0.18624  0.63565  1.0000
  C   C654      1.0  0.61538  0.10936  0.41696  1.0000
  N   N43       1.0  0.62779  0.10147  0.42540  1.0000
  H   H768      1.0  0.56459  0.21954  0.28471  1.0000
  H   H769      1.0  0.50585  0.13586  0.15135  1.0000
  H   H770      1.0  0.64079  0.11270  0.37535  1.0000
  C   C655      1.0  0.72003  0.24017  0.34142  1.0000
  H   H771      1.0  0.71352  0.19648  0.71992  1.0000
  H   H772      1.0  0.49162  0.00362  0.92397  1.0000
  H   H773      1.0  0.61785  0.08307  0.38096  1.0000
  H   H774      1.0  0.70516  0.18094  0.63162  1.0000
  H   H775      1.0  0.59762  0.02583  0.97640  1.0000
  S   S184      1.0  0.57759  0.01359  0.04009  1.0000
  H   H776      1.0  0.55531  0.00959  0.93818  1.0000
  C   C656      1.0  0.51261  0.23793  0.24862  1.0000
  C   C657      1.0  0.62381  0.10822  0.49291  1.0000
  N   N44       1.0  0.57131  0.22047  0.22733  1.0000
  C   C658      1.0  0.64329  0.11122  0.40509  1.0000
  C   C659      1.0  0.69630  0.19395  0.57164  1.0000
  C   C660      1.0  0.50118  0.21312  0.66420  1.0000
  H   H777      1.0  0.58755  0.24417  0.65356  1.0000
  C   C661      1.0  0.50197  0.06356  0.10708  1.0000
  H   H778      1.0  0.65029  0.08996  0.45823  1.0000
  C   C662      1.0  0.62105  0.08356  0.41090  1.0000
  H   H779      1.0  0.61160  0.03623  0.94002  1.0000
  C   C663      1.0  0.58461  0.21793  0.20485  1.0000
  H   H780      1.0  0.61473  0.11379  0.48636  1.0000
  C   C664      1.0  0.63163  0.10158  0.46531  1.0000
  H   H781      1.0  0.54444  0.20837  0.23094  1.0000
  H   H782      1.0  0.55464  0.19432  0.21665  1.0000
  H   H783      1.0  0.73618  0.24314  0.43786  1.0000
  H   H784      1.0  0.69817  0.20441  0.55154  1.0000
  H   H785      1.0  0.61991  0.12306  0.42629  1.0000
  H   H786      1.0  0.50125  0.20564  0.32884  1.0000
  C   C665      1.0  0.71127  0.17230  0.81739  1.0000
  C   C666      1.0  0.69267  0.18699  0.80747  1.0000
  N   N45       1.0  0.52004  0.07390  0.10242  1.0000
  C   C667      1.0  0.51150  0.21611  0.69524  1.0000
  H   H787      1.0  0.57741  0.23988  0.60918  1.0000
  H   H788      1.0  0.55564  0.05731  0.89934  1.0000
  C   C668      1.0  0.73578  0.23978  0.23952  1.0000
  C   C669      1.0  0.72128  0.20403  0.82505  1.0000
  C   C670      1.0  0.57358  0.21663  0.26636  1.0000
  H   H789      1.0  0.49981  0.05477  0.13088  1.0000
  C   C671      1.0  0.54814  0.09063  0.18753  1.0000
  C   C672      1.0  0.50890  0.13169  0.47403  1.0000
  H   H790      1.0  0.58686  0.00694  0.86562  1.0000
  C   C673      1.0  0.54177  0.08189  0.15431  1.0000
  C   C674      1.0  0.71901  0.21966  0.83301  1.0000
  C   C675      1.0  0.72820  0.21263  0.61309  1.0000
  H   H791      1.0  0.57163  0.20286  0.26985  1.0000
  H   H792      1.0  0.70263  0.23432  0.63493  1.0000
  C   C676      1.0  0.52018  0.22306  0.40978  1.0000
  C   C677      1.0  0.51424  0.21122  0.38082  1.0000
  C   C678      1.0  0.53302  0.23055  0.28264  1.0000
  H   H793      1.0  0.52647  0.23487  0.73498  1.0000
  H   H794      1.0  0.54151  0.06897  0.08296  1.0000
  H   H795      1.0  0.55913  0.08963  0.20012  1.0000
  H   H796      1.0  0.72150  0.17101  0.83425  1.0000
  H   H797      1.0  0.51618  0.08049  0.04673  1.0000
  C   C679      1.0  0.71363  0.23143  0.62968  1.0000
  H   H798      1.0  0.55270  0.20935  0.18473  1.0000
  N   N46       1.0  0.56200  0.24253  0.65362  1.0000
  H   H799      1.0  0.73417  0.19359  0.25495  1.0000
  H   H800      1.0  0.54368  0.21969  0.67663  1.0000
  H   H801      1.0  0.52229  0.05538  0.06274  1.0000
  C   C680      1.0  0.50284  0.23020  0.35129  1.0000
  S   S185      1.0  0.49266  0.19245  0.64344  1.0000
  H   H802      1.0  0.49449  0.07167  0.11168  1.0000
  H   H803      1.0  0.49800  0.09172  0.85604  1.0000
  H   H804      1.0  0.54089  0.02887  0.92627  1.0000
  H   H805      1.0  0.55563  0.21569  0.63901  1.0000
  H   H806      1.0  0.50335  0.12668  0.08527  1.0000
  C   C681      1.0  0.50555  0.21476  0.35176  1.0000
  H   H807      1.0  0.49647  0.23224  0.32723  1.0000
  C   C682      1.0  0.73741  0.20537  0.81291  1.0000
  H   H808      1.0  0.49546  0.00211  0.98605  1.0000
  H   H809      1.0  0.51562  0.22763  0.57396  1.0000
  C   C683      1.0  0.50543  0.24362  0.66382  1.0000
  C   C684      1.0  0.59659  0.01215  0.88747  1.0000
  C   C685      1.0  0.72898  0.24470  0.63701  1.0000
  H   H810      1.0  0.49058  0.12044  0.96170  1.0000
  Fe  Fe93      1.0  0.68383  0.43427  0.64167  1.0000
  H   H811      1.0  0.54025  0.34156  0.41580  1.0000
  S   S186      1.0  0.70362  0.42238  0.64028  1.0000
  Fe  Fe94      1.0  0.64627  0.42583  0.62977  1.0000
  S   S187      1.0  0.64873  0.45318  0.64030  1.0000
  S   S188      1.0  0.62115  0.40716  0.60976  1.0000
  Fe  Fe95      1.0  0.67157  0.45958  0.60426  1.0000
  H   H812      1.0  0.73192  0.46687  0.38275  1.0000
  Fe  Fe96      1.0  0.66538  0.45273  0.68807  1.0000
  H   H813      1.0  0.56789  0.40030  0.83370  1.0000
  S   S189      1.0  0.66807  0.43234  0.59137  1.0000
  S   S190      1.0  0.66148  0.42479  0.67917  1.0000
  Fe  Fe97      1.0  0.55036  0.32999  0.68894  1.0000
  S   S191      1.0  0.53253  0.33829  0.65720  1.0000
  S   S192      1.0  0.57498  0.34817  0.71230  1.0000
  Fe  Fe98      1.0  0.52620  0.29232  0.68995  1.0000
  S   S193      1.0  0.52668  0.26747  0.71323  1.0000
  Fe  Fe99      1.0  0.52745  0.31429  0.62200  1.0000
  C   C686      1.0  0.73262  0.43907  0.74006  1.0000
  Fe  Fe100     1.0  0.51318  0.32156  0.69694  1.0000
  S   S194      1.0  0.54688  0.30730  0.65215  1.0000
  S   S195      1.0  0.53150  0.31457  0.72989  1.0000
  Fe  Fe101     1.0  0.66103  0.45182  0.33948  1.0000
  S   S196      1.0  0.67155  0.43167  0.32704  1.0000
  C   C687      1.0  0.54410  0.37874  0.82282  1.0000
  Fe  Fe102     1.0  0.66449  0.46287  0.25669  1.0000
  S   S197      1.0  0.67573  0.44339  0.24053  1.0000
  H   H814      1.0  0.53955  0.37907  0.36557  1.0000
  Fe  Fe103     1.0  0.65556  0.42541  0.27640  1.0000
  S   S198      1.0  0.63921  0.39802  0.26050  1.0000
  Fe  Fe104     1.0  0.69084  0.45175  0.29337  1.0000
  S   S199      1.0  0.71698  0.45457  0.31268  1.0000
  S   S200      1.0  0.64391  0.44435  0.29027  1.0000
  N   N47       1.0  0.53963  0.36704  0.41792  1.0000
  Fe  Fe105     1.0  0.51459  0.32120  0.25557  1.0000
  S   S201      1.0  0.54188  0.32540  0.24871  1.0000
  Fe  Fe106     1.0  0.51632  0.31597  0.34104  1.0000
  S   S202      1.0  0.54333  0.32002  0.33854  1.0000
  H   H815      1.0  0.54259  0.36408  0.73380  1.0000
  Fe  Fe107     1.0  0.54580  0.34165  0.30056  1.0000
  S   S203      1.0  0.56400  0.36843  0.31511  1.0000
  Fe  Fe108     1.0  0.53657  0.30316  0.28762  1.0000
  S   S204      1.0  0.54771  0.28254  0.28758  1.0000
  S   S205      1.0  0.51884  0.33868  0.30558  1.0000
  Fe  Fe109     1.0  0.59659  0.46562  0.98355  1.0000
  S   S206      1.0  0.57787  0.44042  0.00189  1.0000
  S   S207      1.0  0.62185  0.46763  0.96391  1.0000
  S   S208      1.0  0.50618  0.42143  0.93342  1.0000
  C   C688      1.0  0.52621  0.42624  0.95129  1.0000
  C   C689      1.0  0.54001  0.43831  0.93394  1.0000
  C   C690      1.0  0.55606  0.44242  0.94881  1.0000
  C   C691      1.0  0.55823  0.43460  0.98117  1.0000
  C   C692      1.0  0.54445  0.42232  0.99807  1.0000
  C   C693      1.0  0.52843  0.41819  0.98323  1.0000
  H   H816      1.0  0.53830  0.44440  0.90898  1.0000
  H   H817      1.0  0.56672  0.45153  0.93511  1.0000
  H   H818      1.0  0.54610  0.41626  0.02312  1.0000
  H   H819      1.0  0.51778  0.40912  0.99715  1.0000
  C   C694      1.0  0.53568  0.26056  0.27901  1.0000
  H   H820      1.0  0.52601  0.34317  0.99386  1.0000
  C   C695      1.0  0.58696  0.25219  0.23721  1.0000
  S   S209      1.0  0.53281  0.31325  0.55966  1.0000
  H   H821      1.0  0.51713  0.35516  0.18798  1.0000
  C   C696      1.0  0.65238  0.47854  0.16909  1.0000
  H   H822      1.0  0.50325  0.31586  0.79161  1.0000
  H   H823      1.0  0.51639  0.26491  0.24803  1.0000
  H   H824      1.0  0.70279  0.43900  0.70844  1.0000
  S   S210      1.0  0.50919  0.29785  0.29180  1.0000
  C   C697      1.0  0.61813  0.38982  0.27481  1.0000
  C   C698      1.0  0.61118  0.40029  0.29330  1.0000
  C   C699      1.0  0.59452  0.39356  0.30495  1.0000
  C   C700      1.0  0.58458  0.37628  0.29819  1.0000
  C   C701      1.0  0.59138  0.36574  0.27940  1.0000
  C   C702      1.0  0.60814  0.37252  0.26771  1.0000
  H   H825      1.0  0.61860  0.41355  0.29893  1.0000
  H   H826      1.0  0.58930  0.40181  0.31926  1.0000
  H   H827      1.0  0.58380  0.35236  0.27411  1.0000
  H   H828      1.0  0.61340  0.36432  0.25336  1.0000
  H   H829      1.0  0.57544  0.28629  0.22329  1.0000
  H   H830      1.0  0.59191  0.40176  0.71812  1.0000
  H   H831      1.0  0.55016  0.26313  0.19945  1.0000
  Fe  Fe110     1.0  0.63140  0.48908  0.00628  1.0000
  H   H832      1.0  0.72600  0.45741  0.23395  1.0000
  C   C703      1.0  0.54253  0.26787  0.59576  1.0000
  C   C704      1.0  0.52374  0.31189  0.51491  1.0000
  C   C705      1.0  0.51114  0.31106  0.44194  1.0000
  C   C706      1.0  0.52698  0.31051  0.44762  1.0000
  C   C707      1.0  0.53322  0.31097  0.48380  1.0000
  H   H833      1.0  0.62796  0.48001  0.16938  1.0000
  H   H834      1.0  0.54557  0.31076  0.48778  1.0000
  C   C708      1.0  0.58806  0.26924  0.23643  1.0000
  N   N48       1.0  0.60583  0.42904  0.71760  1.0000
  C   C709      1.0  0.66584  0.48297  0.10884  1.0000
  C   C710      1.0  0.61376  0.38585  0.50606  1.0000
  C   C711      1.0  0.54482  0.35376  0.40050  1.0000
  C   C712      1.0  0.55702  0.48090  0.03239  1.0000
  C   C713      1.0  0.65737  0.45366  0.50694  1.0000
  C   C714      1.0  0.65082  0.44768  0.47158  1.0000
  S   S211      1.0  0.49682  0.31920  0.20643  1.0000
  C   C715      1.0  0.66595  0.47943  0.14684  1.0000
  H   H835      1.0  0.59147  0.36718  0.52870  1.0000
  H   H836      1.0  0.65189  0.44621  0.53100  1.0000
  H   H837      1.0  0.64021  0.43572  0.46895  1.0000
  S   S212      1.0  0.49294  0.36822  0.07435  1.0000
  H   H838      1.0  0.59520  0.41091  0.67306  1.0000
  C   C716      1.0  0.55316  0.26381  0.61976  1.0000
  H   H839      1.0  0.51515  0.37357  0.13640  1.0000
  C   C717      1.0  0.60909  0.38994  0.63737  1.0000
  C   C718      1.0  0.61483  0.38700  0.67168  1.0000
  C   C719      1.0  0.60430  0.37403  0.69437  1.0000
  C   C720      1.0  0.58812  0.36376  0.68257  1.0000
  C   C721      1.0  0.58250  0.36647  0.64793  1.0000
  C   C722      1.0  0.59296  0.37958  0.62545  1.0000
  H   H840      1.0  0.62736  0.39470  0.68076  1.0000
  H   H841      1.0  0.60875  0.37183  0.72100  1.0000
  H   H842      1.0  0.57007  0.35855  0.63857  1.0000
  H   H843      1.0  0.58851  0.38179  0.59889  1.0000
  C   C723      1.0  0.72541  0.43424  0.64369  1.0000
  C   C724      1.0  0.50133  0.31292  0.97691  1.0000
  H   H844      1.0  0.64809  0.47146  0.87363  1.0000
  C   C725      1.0  0.70880  0.46128  0.49646  1.0000
  H   H845      1.0  0.56790  0.49330  0.03243  1.0000
  C   C726      1.0  0.50779  0.31214  0.50926  1.0000
  H   H846      1.0  0.72359  0.45904  0.64896  1.0000
  N   N49       1.0  0.62236  0.42500  0.17106  1.0000
  C   C727      1.0  0.61347  0.40615  0.17411  1.0000
  C   C728      1.0  0.64023  0.42892  0.17977  1.0000
  C   C729      1.0  0.61582  0.43372  0.19958  1.0000
  C   C730      1.0  0.61957  0.43060  0.13388  1.0000
  C   C731      1.0  0.60309  0.42746  0.12121  1.0000
  C   C732      1.0  0.63285  0.43918  0.10930  1.0000
  C   C733      1.0  0.60011  0.43254  0.08618  1.0000
  C   C734      1.0  0.62969  0.44412  0.07426  1.0000
  C   C735      1.0  0.61339  0.44086  0.06279  1.0000
  H   H847      1.0  0.61751  0.39916  0.15207  1.0000
  H   H848      1.0  0.61599  0.40138  0.20113  1.0000
  H   H849      1.0  0.59969  0.40218  0.17210  1.0000
  H   H850      1.0  0.64594  0.42242  0.16003  1.0000
  H   H851      1.0  0.64182  0.42440  0.20772  1.0000
  H   H852      1.0  0.64761  0.44299  0.17987  1.0000
  H   H853      1.0  0.60216  0.43044  0.19697  1.0000
  H   H854      1.0  0.61807  0.43010  0.22797  1.0000
  H   H855      1.0  0.62203  0.44795  0.19778  1.0000
  H   H856      1.0  0.59238  0.42109  0.13836  1.0000
  H   H857      1.0  0.64582  0.44251  0.11657  1.0000
  H   H858      1.0  0.58745  0.43009  0.07693  1.0000
  H   H859      1.0  0.63999  0.45089  0.05611  1.0000
  H   H860      1.0  0.61104  0.44489  0.03576  1.0000
  C   C736      1.0  0.54123  0.35777  0.48305  1.0000
  C   C737      1.0  0.56551  0.38949  0.50273  1.0000
  C   C738      1.0  0.54772  0.36071  0.51892  1.0000
  C   C739      1.0  0.55978  0.37657  0.52881  1.0000
  H   H861      1.0  0.53199  0.34521  0.47678  1.0000
  H   H862      1.0  0.57508  0.40176  0.51051  1.0000
  H   H863      1.0  0.54337  0.35056  0.53915  1.0000
  H   H864      1.0  0.56473  0.37879  0.55670  1.0000
  H   H865      1.0  0.53605  0.45364  0.00301  1.0000
  H   H866      1.0  0.51553  0.34774  0.43216  1.0000
  H   H867      1.0  0.57095  0.26664  0.68481  1.0000
  C   C740      1.0  0.61745  0.40820  0.39149  1.0000
  H   H868      1.0  0.61790  0.43853  0.84450  1.0000
  H   H869      1.0  0.52973  0.27191  0.35387  1.0000
  H   H870      1.0  0.63445  0.40329  0.47796  1.0000
  C   C741      1.0  0.58685  0.43468  0.76457  1.0000
  H   H871      1.0  0.70812  0.44509  0.81041  1.0000
  C   C742      1.0  0.52098  0.25539  0.25810  1.0000
  H   H872      1.0  0.55866  0.35813  0.39861  1.0000
  C   C743      1.0  0.72873  0.45939  0.40871  1.0000
  N   N50       1.0  0.54940  0.37065  0.79106  1.0000
  H   H873      1.0  0.49746  0.31758  0.85854  1.0000
  C   C744      1.0  0.64251  0.40404  0.40924  1.0000
  C   C745      1.0  0.50735  0.35010  0.16746  1.0000
  C   C746      1.0  0.54530  0.38226  0.39365  1.0000
  C   C747      1.0  0.59054  0.36747  0.46929  1.0000
  H   H874      1.0  0.59243  0.37049  0.41115  1.0000
  H   H875      1.0  0.51008  0.34584  0.96588  1.0000
  C   C748      1.0  0.63847  0.48053  0.15248  1.0000
  C   C749      1.0  0.71082  0.43585  0.46776  1.0000
  C   C750      1.0  0.52754  0.37141  0.83623  1.0000
  C   C751      1.0  0.55500  0.39384  0.84145  1.0000
  C   C752      1.0  0.52209  0.37872  0.86601  1.0000
  C   C753      1.0  0.54941  0.40106  0.87131  1.0000
  C   C754      1.0  0.53299  0.39353  0.88346  1.0000
  H   H876      1.0  0.51865  0.35992  0.82367  1.0000
  H   H877      1.0  0.50930  0.37285  0.87560  1.0000
  H   H878      1.0  0.55784  0.41255  0.88532  1.0000
  H   H879      1.0  0.52866  0.39916  0.90650  1.0000
  H   H880      1.0  0.57195  0.44096  0.80609  1.0000
  S   S213      1.0  0.68875  0.46204  0.65293  1.0000
  S   S214      1.0  0.68080  0.47248  0.30793  1.0000
  H   H881      1.0  0.72253  0.48293  0.75016  1.0000
  C   C755      1.0  0.51294  0.34268  0.99425  1.0000
  C   C756      1.0  0.60905  0.43703  0.82220  1.0000
  H   H882      1.0  0.61904  0.41828  0.41315  1.0000
  S   S215      1.0  0.66575  0.45962  0.75002  1.0000
  N   N51       1.0  0.71351  0.45523  0.75573  1.0000
  H   H883      1.0  0.51353  0.31121  0.97686  1.0000
  C   C757      1.0  0.55910  0.38667  0.46668  1.0000
  C   C758      1.0  0.52908  0.25487  0.57920  1.0000
  C   C759      1.0  0.52108  0.36048  0.41889  1.0000
  H   H884      1.0  0.62413  0.48540  0.78278  1.0000
  C   C760      1.0  0.56059  0.26005  0.20919  1.0000
  C   C761      1.0  0.60188  0.43214  0.75625  1.0000
  H   H885      1.0  0.52452  0.34497  0.05952  1.0000
  C   C762      1.0  0.55080  0.48558  0.96996  1.0000
  C   C763      1.0  0.65775  0.45714  0.43992  1.0000
  C   C764      1.0  0.51117  0.31014  0.11354  1.0000
  H   H886      1.0  0.52168  0.46142  0.98260  1.0000
  H   H887      1.0  0.60392  0.40226  0.38464  1.0000
  H   H888      1.0  0.61936  0.39031  0.53303  1.0000
  H   H889      1.0  0.70544  0.48167  0.43871  1.0000
  C   C765      1.0  0.73191  0.45209  0.64866  1.0000
  H   H890      1.0  0.52542  0.36175  0.76298  1.0000
  H   H891      1.0  0.67606  0.48066  0.42008  1.0000
  H   H892      1.0  0.52067  0.25814  0.56137  1.0000
  C   C766      1.0  0.59799  0.37289  0.50370  1.0000
  C   C767      1.0  0.49760  0.32468  0.80141  1.0000
  H   H893      1.0  0.55292  0.25195  0.30781  1.0000
  C   C768      1.0  0.73010  0.45375  0.75478  1.0000
  C   C769      1.0  0.65345  0.46707  0.78049  1.0000
  H   H894      1.0  0.56418  0.39718  0.44787  1.0000
  C   C770      1.0  0.54657  0.37068  0.45586  1.0000
  H   H895      1.0  0.62228  0.41564  0.72966  1.0000
  H   H896      1.0  0.50573  0.26225  0.44034  1.0000
  C   C771      1.0  0.61540  0.38752  0.43831  1.0000
  H   H897      1.0  0.57801  0.43424  0.74310  1.0000
  H   H898      1.0  0.64901  0.40867  0.38268  1.0000
  C   C772      1.0  0.49367  0.35423  0.11069  1.0000
  C   C773      1.0  0.50619  0.36052  0.13803  1.0000
  H   H899      1.0  0.72263  0.42817  0.72816  1.0000
  H   H900      1.0  0.53976  0.35061  0.37199  1.0000
  C   C774      1.0  0.71143  0.45290  0.46393  1.0000
  H   H901      1.0  0.68736  0.45178  0.41810  1.0000
  S   S216      1.0  0.65294  0.47702  0.21812  1.0000
  N   N52       1.0  0.50624  0.25916  0.38079  1.0000
  N   N53       1.0  0.71393  0.46094  0.42714  1.0000
  C   C775      1.0  0.65550  0.46621  0.81892  1.0000
  H   H902      1.0  0.64055  0.47511  0.73839  1.0000
  S   S217      1.0  0.50628  0.29801  0.65877  1.0000
  H   H903      1.0  0.67663  0.48419  0.09219  1.0000
  H   H904      1.0  0.51658  0.36954  0.43412  1.0000
  H   H905      1.0  0.55452  0.35262  0.82598  1.0000
  H   H906      1.0  0.56338  0.27441  0.63188  1.0000
  H   H907      1.0  0.49930  0.31704  0.94874  1.0000
  C   C776      1.0  0.56705  0.38002  0.78018  1.0000
  H   H908      1.0  0.54456  0.28120  0.59037  1.0000
  H   H909      1.0  0.55902  0.38700  0.38882  1.0000
  H   H910      1.0  0.51554  0.35843  0.39060  1.0000
  C   C777      1.0  0.52272  0.27344  0.37862  1.0000
  C   C778      1.0  0.53876  0.36989  0.75838  1.0000
  H   H911      1.0  0.56925  0.39344  0.77224  1.0000
  H   H912      1.0  0.63270  0.43851  0.72268  1.0000
  H   H913      1.0  0.67684  0.47816  0.15917  1.0000
  C   C779      1.0  0.51732  0.33182  0.06650  1.0000
  C   C780      1.0  0.59440  0.43986  0.82921  1.0000
  H   H914      1.0  0.57584  0.38013  0.80273  1.0000
  H   H915      1.0  0.54189  0.39287  0.40521  1.0000
  H   H916      1.0  0.53426  0.34433  0.80441  1.0000
  H   H917      1.0  0.62957  0.38750  0.34964  1.0000
  H   H918      1.0  0.57053  0.37379  0.75590  1.0000
  H   H919      1.0  0.72749  0.48686  0.44659  1.0000
  C   C781      1.0  0.54754  0.35285  0.80033  1.0000
  S   S218      1.0  0.49855  0.37502  0.96832  1.0000
  H   H920      1.0  0.55230  0.34670  0.77780  1.0000
  H   H921      1.0  0.71893  0.47096  0.70749  1.0000
  C   C782      1.0  0.49882  0.29874  0.09098  1.0000
  H   H922      1.0  0.50209  0.26095  0.32249  1.0000
  H   H923      1.0  0.53924  0.38287  0.75098  1.0000
  H   H924      1.0  0.49516  0.44949  0.91018  1.0000
  H   H925      1.0  0.59908  0.27948  0.24714  1.0000
  C   C783      1.0  0.73512  0.45536  0.28820  1.0000
  C   C784      1.0  0.67098  0.47299  0.44411  1.0000
  C   C785      1.0  0.57484  0.27314  0.22270  1.0000
  H   H926      1.0  0.72936  0.25703  0.64745  1.0000
  H   H927      1.0  0.55243  0.47794  0.06115  1.0000
  H   H928      1.0  0.58010  0.41414  0.70246  1.0000
  H   H929      1.0  0.62448  0.42422  0.68441  1.0000
  C   C786      1.0  0.67058  0.46950  0.51122  1.0000
  C   C787      1.0  0.59264  0.41331  0.70237  1.0000
  S   S219      1.0  0.50286  0.31117  0.39682  1.0000
  H   H930      1.0  0.55658  0.47643  0.96024  1.0000
  H   H931      1.0  0.69826  0.42815  0.75220  1.0000
  S   S220      1.0  0.64878  0.44903  0.39616  1.0000
  C   C788      1.0  0.64627  0.47214  0.84424  1.0000
  N   N54       1.0  0.50104  0.32557  0.00579  1.0000
  C   C789      1.0  0.73645  0.42543  0.64253  1.0000
  H   H932      1.0  0.61601  0.45605  0.70609  1.0000
  S   S221      1.0  0.67891  0.47758  0.55548  1.0000
  C   C790      1.0  0.71425  0.47092  0.73614  1.0000
  N   N55       1.0  0.62415  0.39531  0.40399  1.0000
  H   H933      1.0  0.62451  0.37110  0.38391  1.0000
  C   C791      1.0  0.49588  0.26090  0.34952  1.0000
  H   H934      1.0  0.64802  0.39527  0.42158  1.0000
  C   C792      1.0  0.60669  0.44385  0.69464  1.0000
  S   S222      1.0  0.49719  0.33414  0.72763  1.0000
  H   H935      1.0  0.61047  0.44236  0.66572  1.0000
  C   C793      1.0  0.50494  0.32042  0.04251  1.0000
  H   H936      1.0  0.64580  0.41584  0.42674  1.0000
  H   H937      1.0  0.66435  0.46100  0.82927  1.0000
  H   H938      1.0  0.69596  0.45736  0.79616  1.0000
  H   H939      1.0  0.72663  0.44598  0.39993  1.0000
  H   H940      1.0  0.68716  0.49168  0.48282  1.0000
  C   C794      1.0  0.70856  0.45651  0.79455  1.0000
  H   H941      1.0  0.70400  0.43039  0.56019  1.0000
  H   H942      1.0  0.51229  0.35316  0.01277  1.0000
  C   C795      1.0  0.67721  0.47922  0.47967  1.0000
  H   H943      1.0  0.60861  0.37719  0.36288  1.0000
  H   H944      1.0  0.57811  0.35757  0.46773  1.0000
  C   C796      1.0  0.70008  0.44039  0.73807  1.0000
  H   H945      1.0  0.62474  0.43190  0.78292  1.0000
  C   C797      1.0  0.63488  0.47913  0.83149  1.0000
  H   H946      1.0  0.52312  0.46079  0.03214  1.0000
  H   H947      1.0  0.53454  0.30993  0.42420  1.0000
  C   C798      1.0  0.59896  0.37481  0.43702  1.0000
  H   H948      1.0  0.69730  0.43849  0.39759  1.0000
  H   H949      1.0  0.56210  0.47099  0.02361  1.0000
  S   S223      1.0  0.59330  0.48392  0.94274  1.0000
  S   S224      1.0  0.62297  0.48706  0.86200  1.0000
  H   H950      1.0  0.62407  0.41497  0.36649  1.0000
  H   H951      1.0  0.52954  0.33562  0.11966  1.0000
  C   C799      1.0  0.64200  0.47396  0.76772  1.0000
  C   C800      1.0  0.63819  0.48364  0.11433  1.0000
  H   H952      1.0  0.59747  0.24978  0.24846  1.0000
  C   C801      1.0  0.53050  0.46360  0.00618  1.0000
  C   C802      1.0  0.62154  0.38216  0.37412  1.0000
  H   H953      1.0  0.70838  0.47398  0.49636  1.0000
  H   H954      1.0  0.50031  0.31283  0.53280  1.0000
  C   C803      1.0  0.69892  0.45202  0.40406  1.0000
  H   H955      1.0  0.59196  0.44354  0.85681  1.0000
  C   C804      1.0  0.62237  0.39316  0.47398  1.0000
  C   C805      1.0  0.50153  0.31168  0.47302  1.0000
  C   C806      1.0  0.49587  0.33320  0.17028  1.0000
  C   C807      1.0  0.62203  0.42676  0.71366  1.0000
  H   H956      1.0  0.51322  0.30642  0.14113  1.0000
  H   H957      1.0  0.59452  0.44548  0.69285  1.0000
  C   C808      1.0  0.70609  0.43661  0.53357  1.0000
  H   H958      1.0  0.73154  0.41162  0.63862  1.0000
  H   H959      1.0  0.50318  0.25422  0.65141  1.0000
  H   H960      1.0  0.70173  0.47189  0.73438  1.0000
  C   C809      1.0  0.71666  0.47951  0.42860  1.0000
  C   C810      1.0  0.70833  0.42793  0.50216  1.0000
  H   H961      1.0  0.58413  0.26107  0.62933  1.0000
  H   H962      1.0  0.68781  0.44190  0.73899  1.0000
  Fe  Fe111     1.0  0.61961  0.48737  0.92511  1.0000
  H   H963      1.0  0.71916  0.48533  0.40068  1.0000
  C   C811      1.0  0.65204  0.48525  0.09236  1.0000
  C   C812      1.0  0.61284  0.43325  0.78636  1.0000
  C   C813      1.0  0.58323  0.43851  0.80053  1.0000
  H   H964      1.0  0.49374  0.27321  0.35135  1.0000
  H   H965      1.0  0.53071  0.27420  0.40311  1.0000
  N   N56       1.0  0.54352  0.48122  0.00726  1.0000
  H   H966      1.0  0.69961  0.45845  0.37710  1.0000
  S   S225      1.0  0.60614  0.48555  0.02805  1.0000
  H   H967      1.0  0.49525  0.27331  0.41551  1.0000
  H   H968      1.0  0.71735  0.46811  0.80907  1.0000
  C   C814      1.0  0.49791  0.26126  0.41544  1.0000
  H   H969      1.0  0.62741  0.48518  0.10221  1.0000
  C   C815      1.0  0.70622  0.45318  0.53065  1.0000
  H   H970      1.0  0.52140  0.28612  0.37666  1.0000
  C   C816      1.0  0.52038  0.32662  0.10134  1.0000
  C   C817      1.0  0.63281  0.47993  0.79304  1.0000
  H   H971      1.0  0.70398  0.45973  0.55500  1.0000
  C   C818      1.0  0.73642  0.45694  0.24982  1.0000
  H   H972      1.0  0.73845  0.26016  0.73126  1.0000
  S   S226      1.0  0.65307  0.49085  0.04481  1.0000
  C   C819      1.0  0.49568  0.30377  0.05602  1.0000
  C   C820      1.0  0.54156  0.24805  0.29160  1.0000
  H   H973      1.0  0.52267  0.24747  0.43233  1.0000
  H   H974      1.0  0.71205  0.42844  0.44405  1.0000
  H   H975      1.0  0.70794  0.41491  0.50456  1.0000
  C   C821      1.0  0.49426  0.32567  0.83946  1.0000
  C   C822      1.0  0.49327  0.33479  0.77607  1.0000
  H   H976      1.0  0.49212  0.47678  0.89398  1.0000
  H   H977      1.0  0.73553  0.25248  0.23639  1.0000
  H   H978      1.0  0.73990  0.46414  0.42703  1.0000
  H   H979      1.0  0.49129  0.30011  0.98048  1.0000
  H   H980      1.0  0.49140  0.28609  0.10109  1.0000
  C   C823      1.0  0.56413  0.25265  0.68858  1.0000
  H   H981      1.0  0.54130  0.48529  0.94902  1.0000
  H   H982      1.0  0.73638  0.28007  0.53220  1.0000
  H   H983      1.0  0.55182  0.25112  0.70073  1.0000
  H   H984      1.0  0.71307  0.24856  0.34113  1.0000
  C   C824      1.0  0.73306  0.24631  0.72856  1.0000
  C   C825      1.0  0.73756  0.24726  0.33979  1.0000
  H   H985      1.0  0.57126  0.24867  0.70972  1.0000
  C   C826      1.0  0.53601  0.49379  0.01858  1.0000
  C   C827      1.0  0.51603  0.24664  0.69449  1.0000
  H   H986      1.0  0.73941  0.26675  0.47355  1.0000
  H   H987      1.0  0.51605  0.48542  0.97724  1.0000
  H   H988      1.0  0.72975  0.24737  0.83321  1.0000
  C   C828      1.0  0.55047  0.24650  0.62832  1.0000
  C   C829      1.0  0.57851  0.24715  0.63566  1.0000
  C   C830      1.0  0.52165  0.49416  0.99995  1.0000
  C   C831      1.0  0.49212  0.63518  0.08420  1.0000
  S   S227      1.0  0.63136  0.50948  0.96587  1.0000
  H   H989      1.0  0.52678  0.58123  0.86608  1.0000
  H   H990      1.0  0.49647  0.72469  0.70539  1.0000
  H   H991      1.0  0.50812  0.68319  0.18360  1.0000
  S   S228      1.0  0.59447  0.52339  0.01243  1.0000
  C   C832      1.0  0.53283  0.58957  0.89021  1.0000
  H   H992      1.0  0.50984  0.73125  0.39524  1.0000
  C   C833      1.0  0.67298  0.52499  0.14327  1.0000
  H   H993      1.0  0.49461  0.62793  0.06143  1.0000
  H   H994      1.0  0.61509  0.52238  0.10780  1.0000
  Fe  Fe112     1.0  0.53163  0.57383  0.98562  1.0000
  S   S229      1.0  0.52110  0.56625  0.04226  1.0000
  S   S230      1.0  0.55450  0.57020  0.95975  1.0000
  Fe  Fe113     1.0  0.50188  0.58369  0.96044  1.0000
  Fe  Fe114     1.0  0.49704  0.55344  0.01162  1.0000
  C   C834      1.0  0.54235  0.62447  0.78840  1.0000
  Fe  Fe115     1.0  0.51355  0.58931  0.04248  1.0000
  C   C835      1.0  0.50780  0.61837  0.15896  1.0000
  H   H995      1.0  0.53592  0.58138  0.91047  1.0000
  S   S231      1.0  0.52663  0.59857  0.98805  1.0000
  S   S232      1.0  0.50760  0.55964  0.95483  1.0000
  C   C836      1.0  0.49409  0.59733  0.80496  1.0000
  H   H996      1.0  0.52707  0.62204  0.88938  1.0000
  H   H997      1.0  0.49185  0.68756  0.20643  1.0000
  H   H998      1.0  0.67081  0.53289  0.08877  1.0000
  H   H999      1.0  0.56385  0.58983  0.88680  1.0000
  H   H1000     1.0  0.50119  0.58444  0.84947  1.0000
  H   H1001     1.0  0.51292  0.65823  0.07208  1.0000
  C   C837      1.0  0.53148  0.63245  0.79927  1.0000
  H   H1002     1.0  0.51940  0.62929  0.15633  1.0000
  H   H1003     1.0  0.67187  0.51633  0.19916  1.0000
  N   N57       1.0  0.54791  0.60424  0.87900  1.0000
  C   C838      1.0  0.53205  0.62289  0.86173  1.0000
  H   H1004     1.0  0.50339  0.50609  0.99560  1.0000
  H   H1005     1.0  0.62361  0.54460  0.12393  1.0000
  H   H1006     1.0  0.55505  0.58780  0.84178  1.0000
  H   H1007     1.0  0.49976  0.59206  0.78383  1.0000
  C   C839      1.0  0.49788  0.72103  0.39044  1.0000
  C   C840      1.0  0.58226  0.53513  0.99640  1.0000
  C   C841      1.0  0.57444  0.54219  0.02257  1.0000
  C   C842      1.0  0.56515  0.55212  0.01166  1.0000
  C   C843      1.0  0.56400  0.55565  0.97435  1.0000
  C   C844      1.0  0.57184  0.54859  0.94813  1.0000
  C   C845      1.0  0.58068  0.53818  0.95897  1.0000
  H   H1008     1.0  0.57567  0.54011  0.05162  1.0000
  H   H1009     1.0  0.55944  0.55761  0.03227  1.0000
  H   H1010     1.0  0.57125  0.55136  0.91923  1.0000
  H   H1011     1.0  0.58676  0.53305  0.93843  1.0000
  C   C846      1.0  0.66573  0.52088  0.17792  1.0000
  H   H1012     1.0  0.50077  0.65512  0.21228  1.0000
  C   C847      1.0  0.56025  0.59711  0.86500  1.0000
  H   H1013     1.0  0.50129  0.62732  0.21091  1.0000
  H   H1014     1.0  0.52658  0.63880  0.77908  1.0000
  H   H1015     1.0  0.51560  0.52699  0.04606  1.0000
  C   C848      1.0  0.55540  0.61496  0.91216  1.0000
  H   H1016     1.0  0.50853  0.67450  0.12426  1.0000
  H   H1017     1.0  0.50934  0.70218  0.38504  1.0000
  H   H1018     1.0  0.61723  0.53946  0.07704  1.0000
  H   H1019     1.0  0.51763  0.63759  0.84410  1.0000
  H   H1020     1.0  0.56649  0.62645  0.90470  1.0000
  C   C849      1.0  0.50250  0.65225  0.09046  1.0000
  H   H1021     1.0  0.55633  0.60955  0.80359  1.0000
  H   H1022     1.0  0.57196  0.60748  0.85594  1.0000
  H   H1023     1.0  0.54606  0.62490  0.75970  1.0000
  C   C850      1.0  0.54303  0.61447  0.85160  1.0000
  H   H1024     1.0  0.63293  0.51160  0.06573  1.0000
  H   H1025     1.0  0.62986  0.52732  0.16431  1.0000
  H   H1026     1.0  0.63104  0.52783  0.03614  1.0000
  C   C851      1.0  0.53540  0.51793  0.05708  1.0000
  S   S233      1.0  0.51650  0.60770  0.09209  1.0000
  C   C852      1.0  0.49775  0.70443  0.38488  1.0000
  H   H1027     1.0  0.64453  0.51823  0.21165  1.0000
  C   C853      1.0  0.52648  0.63180  0.83593  1.0000
  H   H1028     1.0  0.52331  0.59380  0.90335  1.0000
  C   C854      1.0  0.54813  0.61562  0.81404  1.0000
  H   H1029     1.0  0.55946  0.60760  0.93297  1.0000
  C   C855      1.0  0.49985  0.66143  0.12081  1.0000
  C   C856      1.0  0.52122  0.51779  0.03854  1.0000
  H   H1030     1.0  0.54648  0.61955  0.92675  1.0000
  C   C857      1.0  0.65025  0.52190  0.18483  1.0000
  H   H1031     1.0  0.65230  0.56341  0.10519  1.0000
  N   N58       1.0  0.64045  0.53659  0.09108  1.0000
  C   C858      1.0  0.65051  0.55454  0.08099  1.0000
  C   C859      1.0  0.63881  0.52534  0.05819  1.0000
  C   C860      1.0  0.62338  0.53571  0.10067  1.0000
  C   C861      1.0  0.64892  0.53125  0.12131  1.0000
  C   C862      1.0  0.64190  0.52704  0.15711  1.0000
  C   C863      1.0  0.66478  0.53016  0.11537  1.0000
  C   C864      1.0  0.50332  0.60534  0.13148  1.0000
  H   H1032     1.0  0.56071  0.49873  0.96989  1.0000
  H   H1033     1.0  0.65101  0.52701  0.04530  1.0000
  H   H1034     1.0  0.66311  0.55596  0.07079  1.0000
  H   H1035     1.0  0.64439  0.55908  0.05857  1.0000
  C   C865      1.0  0.49741  0.61743  0.18975  1.0000
  Fe  Fe116     1.0  0.60506  0.50453  0.98565  1.0000
  C   C866      1.0  0.51437  0.50596  0.01001  1.0000
  H   H1036     1.0  0.54086  0.52745  0.07871  1.0000
  H   H1037     1.0  0.55398  0.50731  0.06223  1.0000
  C   C867      1.0  0.49505  0.59307  0.84233  1.0000
  C   C868      1.0  0.49465  0.68115  0.18143  1.0000
  H   H1038     1.0  0.49265  0.68808  0.15704  1.0000
  H   H1039     1.0  0.68480  0.52366  0.13768  1.0000
  C   C869      1.0  0.54279  0.50618  0.04731  1.0000
  H   H1040     1.0  0.54241  0.84834  0.87762  1.0000
  Fe  Fe117     1.0  0.50612  0.88099  0.05270  1.0000
  S   S234      1.0  0.51304  0.90949  0.04452  1.0000
  C   C870      1.0  0.49443  0.75374  0.36757  1.0000
  Fe  Fe118     1.0  0.51433  0.87545  0.97074  1.0000
  H   H1041     1.0  0.53919  0.80754  0.73756  1.0000
  C   C871      1.0  0.52635  0.81135  0.80294  1.0000
  Fe  Fe119     1.0  0.53542  0.90948  0.01325  1.0000
  S   S235      1.0  0.56057  0.93194  0.02444  1.0000
  C   C872      1.0  0.51650  0.91608  0.13910  1.0000
  S   S236      1.0  0.52949  0.88106  0.02422  1.0000
  C   C873      1.0  0.54225  0.90182  0.11039  1.0000
  H   H1042     1.0  0.49700  0.80351  0.76720  1.0000
  C   C874      1.0  0.56345  0.92763  0.13366  1.0000
  H   H1043     1.0  0.56666  0.93901  0.15250  1.0000
  C   C875      1.0  0.50161  0.85891  0.86076  1.0000
  H   H1044     1.0  0.53571  0.78416  0.78512  1.0000
  C   C876      1.0  0.50202  0.84664  0.88614  1.0000
  C   C877      1.0  0.53865  0.94141  0.11641  1.0000
  S   S237      1.0  0.52262  0.90361  0.95757  1.0000
  Fe  Fe120     1.0  0.50016  0.90242  0.99006  1.0000
  H   H1045     1.0  0.53101  0.85343  0.81846  1.0000
  H   H1046     1.0  0.52147  0.81315  0.72751  1.0000
  H   H1047     1.0  0.59879  0.99273  0.03739  1.0000
  H   H1048     1.0  0.55134  0.94876  0.10840  1.0000
  C   C878      1.0  0.55653  0.97936  0.03307  1.0000
  C   C879      1.0  0.55244  0.96143  0.02881  1.0000
  C   C880      1.0  0.56502  0.95463  0.02815  1.0000
  C   C881      1.0  0.58175  0.96618  0.03139  1.0000
  C   C882      1.0  0.58586  0.98415  0.03510  1.0000
  C   C883      1.0  0.53840  0.83824  0.85663  1.0000
  H   H1049     1.0  0.53951  0.95284  0.02629  1.0000
  H   H1050     1.0  0.59165  0.96119  0.03095  1.0000
  C   C884      1.0  0.53199  0.84110  0.82324  1.0000
  H   H1051     1.0  0.51165  0.90302  0.14886  1.0000
  H   H1052     1.0  0.55334  0.90344  0.18183  1.0000
  C   C885      1.0  0.51014  0.94018  0.11787  1.0000
  H   H1053     1.0  0.49508  0.78851  0.80318  1.0000
  H   H1054     1.0  0.51671  0.77134  0.76169  1.0000
  H   H1055     1.0  0.54662  0.98434  0.03361  1.0000
  C   C886      1.0  0.54364  0.90878  0.17539  1.0000
  N   N59       1.0  0.51882  0.79724  0.77562  1.0000
  C   C887      1.0  0.52696  0.94898  0.10992  1.0000
  H   H1056     1.0  0.56632  0.93216  0.10475  1.0000
  C   C888      1.0  0.53909  0.82223  0.86349  1.0000
  H   H1057     1.0  0.52040  0.79207  0.71733  1.0000
  H   H1058     1.0  0.54388  0.82005  0.88980  1.0000
  C   C889      1.0  0.57326  0.99092  0.03629  1.0000
  H   H1059     1.0  0.52012  0.83053  0.77250  1.0000
  C   C890      1.0  0.52530  0.80279  0.73802  1.0000
  H   H1060     1.0  0.49619  0.81961  0.89396  1.0000
  H   H1061     1.0  0.53149  0.89789  0.17885  1.0000
  H   H1062     1.0  0.50325  0.74919  0.43616  1.0000
  H   H1063     1.0  0.54394  0.90686  0.08183  1.0000
  H   H1064     1.0  0.55077  0.89473  0.11392  1.0000
  C   C891      1.0  0.49584  0.85388  0.82424  1.0000
  N   N60       1.0  0.54567  0.91603  0.13771  1.0000
  C   C892      1.0  0.50117  0.83276  0.16874  1.0000
  H   H1065     1.0  0.49423  0.78176  0.75569  1.0000
  H   H1066     1.0  0.49060  0.97932  0.98406  1.0000
  H   H1067     1.0  0.57214  0.92099  0.13989  1.0000
  H   H1068     1.0  0.54443  0.91877  0.19669  1.0000
  S   S238      1.0  0.51084  0.85236  0.93145  1.0000
  H   H1069     1.0  0.53096  0.96162  0.09781  1.0000
  C   C893      1.0  0.53376  0.92471  0.13160  1.0000
  C   C894      1.0  0.53320  0.80892  0.83714  1.0000
  C   C895      1.0  0.50240  0.84485  0.14090  1.0000
  H   H1070     1.0  0.50903  0.82529  0.16728  1.0000
  H   H1071     1.0  0.52924  0.89225  0.11238  1.0000
  C   C896      1.0  0.50050  0.79256  0.77538  1.0000
  C   C897      1.0  0.52590  0.82787  0.79690  1.0000
  C   C898      1.0  0.52208  0.78143  0.78359  1.0000
  H   H1072     1.0  0.53385  0.79679  0.84458  1.0000
  H   H1073     1.0  0.51110  0.84652  0.11843  1.0000
  C   C899      1.0  0.49248  0.85479  0.14241  1.0000
  H   H1074     1.0  0.50759  0.75475  0.36971  1.0000
  H   H1075     1.0  0.50628  0.87234  0.86887  1.0000
  H   H1076     1.0  0.56843  0.99073  0.91794  1.0000
  H   H1077     1.0  0.49612  0.86360  0.80466  1.0000
  C   C900      1.0  0.50492  0.92375  0.13239  1.0000
  H   H1078     1.0  0.58616  0.98994  0.94250  1.0000
  H   H1079     1.0  0.51605  0.77543  0.80973  1.0000
  H   H1080     1.0  0.50108  0.94594  0.11199  1.0000
  C   C901      1.0  0.49596  0.82924  0.87469  1.0000
  H   H1081     1.0  0.49476  0.76711  0.37097  1.0000
  S   S239      1.0  0.49372  0.87072  0.10876  1.0000
  H   H1082     1.0  0.49176  0.91664  0.13744  1.0000
  S   S240      1.0  0.49095  0.87411  0.00013  1.0000
  C   C902      1.0  0.49017  0.83653  0.81252  1.0000
  C   C903      1.0  0.49017  0.74834  0.43270  1.0000
  H   H1083     1.0  0.49039  0.76150  0.43843  1.0000
  C   C904      1.0  0.77539  0.24481  0.45531  1.0000
  C   C905      1.0  0.75096  0.23688  0.23713  1.0000
  C   C906      1.0  0.74642  0.23628  0.34017  1.0000
  H   H1084     1.0  0.76231  0.22226  0.79782  1.0000
  H   H1085     1.0  0.77659  0.23929  0.42778  1.0000
  H   H1086     1.0  0.74771  0.23162  0.41799  1.0000
  H   H1087     1.0  0.74461  0.20988  0.34082  1.0000
  C   C907      1.0  0.75026  0.22140  0.80847  1.0000
  H   H1088     1.0  0.74163  0.22835  0.46558  1.0000
  H   H1089     1.0  0.75990  0.24151  0.33904  1.0000
  H   H1090     1.0  0.78330  0.24141  0.25770  1.0000
  H   H1091     1.0  0.76078  0.21622  0.24149  1.0000
  C   C908      1.0  0.74996  0.21973  0.24236  1.0000
  C   C909      1.0  0.74346  0.22595  0.62092  1.0000
  H   H1092     1.0  0.74039  0.19430  0.80587  1.0000
  C   C910      1.0  0.74624  0.23824  0.44387  1.0000
  H   H1093     1.0  0.74429  0.21174  0.71897  1.0000
  H   H1094     1.0  0.75506  0.22378  0.61866  1.0000
  C   C911      1.0  0.74352  0.23703  0.72489  1.0000
  C   C912      1.0  0.74384  0.24194  0.63291  1.0000
  H   H1095     1.0  0.78105  0.23663  0.20849  1.0000
  H   H1096     1.0  0.77272  0.23433  0.47563  1.0000
  C   C913      1.0  0.74749  0.23645  0.81589  1.0000
  Fe  Fe121     1.0  0.80147  0.45158  0.65851  1.0000
  S   S241      1.0  0.82854  0.46955  0.66000  1.0000
  S   S242      1.0  0.78175  0.46362  0.66192  1.0000
  Fe  Fe122     1.0  0.81084  0.42030  0.64809  1.0000
  S   S243      1.0  0.83832  0.43590  0.64864  1.0000
  S   S244      1.0  0.80271  0.39233  0.63197  1.0000
  Fe  Fe123     1.0  0.83298  0.45025  0.69750  1.0000
  S   S245      1.0  0.84493  0.45196  0.75570  1.0000
  Fe  Fe124     1.0  0.83148  0.45363  0.61118  1.0000
  S   S246      1.0  0.84555  0.46417  0.55736  1.0000
  S   S247      1.0  0.80547  0.43322  0.69848  1.0000
  S   S248      1.0  0.80437  0.43707  0.60815  1.0000
  Fe  Fe125     1.0  0.79803  0.30181  0.66152  1.0000
  S   S249      1.0  0.77192  0.29262  0.68423  1.0000
  S   S250      1.0  0.79945  0.30907  0.60031  1.0000
  Fe  Fe126     1.0  0.81364  0.30533  0.74176  1.0000
  S   S251      1.0  0.78830  0.29555  0.76810  1.0000
  S   S252      1.0  0.83811  0.31899  0.77454  1.0000
  Fe  Fe127     1.0  0.78037  0.27610  0.72104  1.0000
  Fe  Fe128     1.0  0.78233  0.31283  0.72853  1.0000
  S   S253      1.0  0.77342  0.33352  0.74823  1.0000
  S   S254      1.0  0.80641  0.28452  0.69678  1.0000
  S   S255      1.0  0.80773  0.32326  0.70364  1.0000
  Fe  Fe129     1.0  0.80599  0.45622  0.25687  1.0000
  S   S256      1.0  0.82521  0.47767  0.28891  1.0000
  S   S257      1.0  0.78380  0.45956  0.22876  1.0000
  Fe  Fe130     1.0  0.82680  0.43346  0.26166  1.0000
  S   S258      1.0  0.84709  0.45328  0.29453  1.0000
  S   S259      1.0  0.83200  0.41009  0.24289  1.0000
  Fe  Fe131     1.0  0.82624  0.45692  0.32729  1.0000
  S   S260      1.0  0.81936  0.45389  0.38923  1.0000
  Fe  Fe132     1.0  0.84407  0.47179  0.25289  1.0000
  H   H1097     1.0  0.75508  0.28144  0.58500  1.0000
  S   S261      1.0  0.80601  0.43579  0.29604  1.0000
  S   S262      1.0  0.82478  0.45163  0.21916  1.0000
  Fe  Fe133     1.0  0.79872  0.32410  0.34480  1.0000
  S   S263      1.0  0.82205  0.31810  0.34523  1.0000
  S   S264      1.0  0.79658  0.34981  0.35257  1.0000
  Fe  Fe134     1.0  0.77541  0.28625  0.33776  1.0000
  S   S265      1.0  0.79703  0.27759  0.33689  1.0000
  Fe  Fe135     1.0  0.80726  0.29676  0.38388  1.0000
  S   S266      1.0  0.81510  0.28782  0.43774  1.0000
  Fe  Fe136     1.0  0.80952  0.29973  0.29812  1.0000
  S   S267      1.0  0.81786  0.29516  0.23961  1.0000
  S   S268      1.0  0.78500  0.30428  0.38596  1.0000
  S   S269      1.0  0.78692  0.30706  0.29649  1.0000
  Fe  Fe137     1.0  0.87473  0.34274  0.99036  1.0000
  S   S270      1.0  0.89316  0.33555  0.02471  1.0000
  S   S271      1.0  0.85495  0.32551  0.94896  1.0000
  Fe  Fe138     1.0  0.88339  0.37619  0.03366  1.0000
  S   S272      1.0  0.90231  0.37181  0.06967  1.0000
  S   S273      1.0  0.87760  0.39957  0.04594  1.0000
  Fe  Fe139     1.0  0.91124  0.36317  0.01772  1.0000
  S   S274      1.0  0.93916  0.37135  0.00084  1.0000
  Fe  Fe140     1.0  0.88296  0.34502  0.07481  1.0000
  S   S275      1.0  0.87958  0.33788  0.13626  1.0000
  S   S276      1.0  0.89322  0.36949  0.98057  1.0000
  S   S277      1.0  0.86364  0.35028  0.04133  1.0000
  Fe  Fe141     1.0  0.92735  0.48319  0.97070  1.0000
  S   S278      1.0  0.93508  0.46046  0.97140  1.0000
  S   S279      1.0  0.90088  0.48057  0.96081  1.0000
  S   S280      1.0  0.74764  0.26986  0.33642  1.0000
  H   H1098     1.0  0.97088  0.38190  0.96333  1.0000
  C   C914      1.0  0.89456  0.41703  0.02966  1.0000
  C   C915      1.0  0.89399  0.43346  0.02989  1.0000
  C   C916      1.0  0.90689  0.44705  0.01355  1.0000
  C   C917      1.0  0.92013  0.44413  0.99619  1.0000
  C   C918      1.0  0.92109  0.42789  0.99760  1.0000
  C   C919      1.0  0.90840  0.41440  0.01471  1.0000
  H   H1099     1.0  0.88341  0.43563  0.04177  1.0000
  H   H1100     1.0  0.90643  0.45971  0.01402  1.0000
  H   H1101     1.0  0.93137  0.42557  0.98460  1.0000
  H   H1102     1.0  0.90920  0.40190  0.01542  1.0000
  C   C920      1.0  0.83465  0.30810  0.21098  1.0000
  C   C921      1.0  0.83441  0.30396  0.17304  1.0000
  C   C922      1.0  0.84767  0.31334  0.14950  1.0000
  C   C923      1.0  0.86164  0.32677  0.16376  1.0000
  C   C924      1.0  0.86182  0.33100  0.20160  1.0000
  C   C925      1.0  0.84835  0.32192  0.22493  1.0000
  H   H1103     1.0  0.82394  0.29329  0.16181  1.0000
  H   H1104     1.0  0.84734  0.30977  0.12061  1.0000
  H   H1105     1.0  0.87255  0.34127  0.21314  1.0000
  H   H1106     1.0  0.84882  0.32528  0.25398  1.0000
  H   H1107     1.0  0.79280  0.33466  0.23375  1.0000
  C   C926      1.0  0.85922  0.48017  0.14778  1.0000
  C   C927      1.0  0.86333  0.48039  0.10999  1.0000
  H   H1108     1.0  0.84688  0.47216  0.15685  1.0000
  H   H1109     1.0  0.85401  0.47262  0.09044  1.0000
  C   C928      1.0  0.82183  0.39263  0.27153  1.0000
  C   C929      1.0  0.80733  0.39172  0.28999  1.0000
  C   C930      1.0  0.79932  0.37809  0.31355  1.0000
  C   C931      1.0  0.80575  0.36526  0.31890  1.0000
  C   C932      1.0  0.81999  0.36578  0.29957  1.0000
  C   C933      1.0  0.82806  0.37952  0.27587  1.0000
  H   H1110     1.0  0.80207  0.40136  0.28565  1.0000
  H   H1111     1.0  0.78802  0.37748  0.32747  1.0000
  H   H1112     1.0  0.82500  0.35587  0.30360  1.0000
  H   H1113     1.0  0.83919  0.38007  0.26129  1.0000
  C   C934      1.0  0.80376  0.30254  0.55563  1.0000
  C   C935      1.0  0.79965  0.31004  0.52453  1.0000
  C   C936      1.0  0.80291  0.30559  0.48844  1.0000
  C   C937      1.0  0.81053  0.29366  0.48288  1.0000
  C   C938      1.0  0.81465  0.28612  0.51399  1.0000
  C   C939      1.0  0.81126  0.29049  0.55016  1.0000
  H   H1114     1.0  0.79380  0.31934  0.52834  1.0000
  H   H1115     1.0  0.79969  0.31155  0.46496  1.0000
  H   H1116     1.0  0.82060  0.27692  0.51009  1.0000
  H   H1117     1.0  0.81458  0.28464  0.57374  1.0000
  C   C940      1.0  0.84240  0.32081  0.82322  1.0000
  C   C941      1.0  0.83087  0.31102  0.84918  1.0000
  C   C942      1.0  0.83492  0.31277  0.88728  1.0000
  C   C943      1.0  0.85046  0.32445  0.90033  1.0000
  C   C944      1.0  0.86187  0.33451  0.87443  1.0000
  C   C945      1.0  0.85791  0.33260  0.83624  1.0000
  H   H1118     1.0  0.81892  0.30184  0.83987  1.0000
  H   H1119     1.0  0.82598  0.30484  0.90683  1.0000
  H   H1120     1.0  0.87391  0.34348  0.88373  1.0000
  H   H1121     1.0  0.86701  0.34023  0.81661  1.0000
  C   C946      1.0  0.83818  0.46062  0.51062  1.0000
  C   C947      1.0  0.82150  0.45091  0.50162  1.0000
  C   C948      1.0  0.81609  0.44892  0.46443  1.0000
  C   C949      1.0  0.82728  0.45630  0.43547  1.0000
  C   C950      1.0  0.84406  0.46561  0.44435  1.0000
  C   C951      1.0  0.84941  0.46785  0.48165  1.0000
  H   H1122     1.0  0.81280  0.44490  0.52331  1.0000
  H   H1123     1.0  0.80308  0.44169  0.45810  1.0000
  H   H1124     1.0  0.85285  0.47140  0.42258  1.0000
  C   C952      1.0  0.74757  0.26668  0.49614  1.0000
  C   C953      1.0  0.86052  0.46693  0.78523  1.0000
  H   H1125     1.0  0.95757  0.34805  0.05519  1.0000
  H   H1126     1.0  0.96997  0.47624  0.98900  1.0000
  C   C954      1.0  0.78335  0.45902  0.55600  1.0000
  H   H1127     1.0  0.79587  0.48597  0.17359  1.0000
  H   H1128     1.0  0.85192  0.42539  0.80585  1.0000
  C   C955      1.0  0.79269  0.37639  0.66429  1.0000
  C   C956      1.0  0.78763  0.35917  0.65303  1.0000
  C   C957      1.0  0.78151  0.34602  0.67872  1.0000
  C   C958      1.0  0.77948  0.34996  0.71554  1.0000
  C   C959      1.0  0.78324  0.36714  0.72636  1.0000
  C   C960      1.0  0.79025  0.38041  0.70093  1.0000
  H   H1129     1.0  0.78861  0.35594  0.62436  1.0000
  H   H1130     1.0  0.77822  0.33278  0.66990  1.0000
  H   H1131     1.0  0.78115  0.37023  0.75452  1.0000
  H   H1132     1.0  0.79379  0.39369  0.70966  1.0000
  H   H1133     1.0  0.83100  0.48557  0.19171  1.0000
  C   C961      1.0  0.80535  0.35856  0.20634  1.0000
  H   H1134     1.0  0.90256  0.47048  0.88287  1.0000
  H   H1135     1.0  0.77414  0.45539  0.30643  1.0000
  H   H1136     1.0  0.98567  0.42919  0.98316  1.0000
  H   H1137     1.0  0.85036  0.45263  0.83435  1.0000
  H   H1138     1.0  0.98487  0.44330  0.94704  1.0000
  N   N61       1.0  0.83778  0.36725  0.12925  1.0000
  C   C962      1.0  0.85290  0.36294  0.13352  1.0000
  C   C963      1.0  0.83050  0.36137  0.09215  1.0000
  C   C964      1.0  0.84330  0.38627  0.13094  1.0000
  C   C965      1.0  0.82527  0.35853  0.15773  1.0000
  C   C966      1.0  0.81713  0.36725  0.17976  1.0000
  C   C967      1.0  0.82057  0.34064  0.16354  1.0000
  C   C968      1.0  0.80906  0.33219  0.19077  1.0000
  H   H1139     1.0  0.85064  0.34944  0.12534  1.0000
  H   H1140     1.0  0.86337  0.37088  0.11565  1.0000
  H   H1141     1.0  0.85739  0.36474  0.16264  1.0000
  H   H1142     1.0  0.82713  0.34730  0.08795  1.0000
  H   H1143     1.0  0.83946  0.36789  0.06985  1.0000
  H   H1144     1.0  0.81894  0.36408  0.08795  1.0000
  H   H1145     1.0  0.84834  0.39134  0.15879  1.0000
  H   H1146     1.0  0.85334  0.39253  0.11051  1.0000
  H   H1147     1.0  0.83293  0.39061  0.12425  1.0000
  H   H1148     1.0  0.81974  0.38083  0.17757  1.0000
  H   H1149     1.0  0.82590  0.33305  0.14734  1.0000
  H   H1150     1.0  0.80608  0.31864  0.19554  1.0000
  H   H1151     1.0  0.81353  0.33506  0.85126  1.0000
  C   C969      1.0  0.81643  0.40145  0.46464  1.0000
  H   H1152     1.0  0.87187  0.45944  0.20529  1.0000
  C   C970      1.0  0.80550  0.39379  0.49436  1.0000
  H   H1153     1.0  0.79210  0.35952  0.80539  1.0000
  C   C971      1.0  0.80978  0.39936  0.53086  1.0000
  C   C972      1.0  0.82500  0.41247  0.53899  1.0000
  H   H1154     1.0  0.89075  0.38315  0.17600  1.0000
  H   H1155     1.0  0.79352  0.38354  0.49026  1.0000
  H   H1156     1.0  0.88713  0.45090  0.83249  1.0000
  H   H1157     1.0  0.80116  0.39354  0.55306  1.0000
  H   H1158     1.0  0.84073  0.42137  0.45293  1.0000
  N   N62       1.0  0.90878  0.44960  0.86033  1.0000
  C   C973      1.0  0.91354  0.46705  0.87683  1.0000
  C   C974      1.0  0.92449  0.44751  0.84905  1.0000
  C   C975      1.0  0.89881  0.43667  0.88718  1.0000
  C   C976      1.0  0.90346  0.42304  0.89942  1.0000
  C   C977      1.0  0.88391  0.43757  0.90215  1.0000
  C   C978      1.0  0.89385  0.41126  0.92526  1.0000
  C   C979      1.0  0.87454  0.42587  0.92836  1.0000
  C   C980      1.0  0.87951  0.41274  0.93992  1.0000
  H   H1159     1.0  0.92050  0.46812  0.90317  1.0000
  H   H1160     1.0  0.93279  0.44867  0.87337  1.0000
  H   H1161     1.0  0.93178  0.45763  0.82940  1.0000
  H   H1162     1.0  0.92196  0.43493  0.83483  1.0000
  H   H1163     1.0  0.87959  0.44759  0.89429  1.0000
  H   H1164     1.0  0.89785  0.40122  0.93493  1.0000
  H   H1165     1.0  0.86355  0.42720  0.94035  1.0000
  H   H1166     1.0  0.87247  0.40392  0.96092  1.0000
  H   H1167     1.0  0.90571  0.45834  0.80605  1.0000
  H   H1168     1.0  0.85353  0.44516  0.15066  1.0000
  C   C981      1.0  0.76600  0.25823  0.19243  1.0000
  C   C982      1.0  0.85763  0.43411  0.15289  1.0000
  H   H1169     1.0  0.82894  0.34968  0.77774  1.0000
  H   H1170     1.0  0.85751  0.42875  0.12453  1.0000
  C   C983      1.0  0.78613  0.47725  0.48546  1.0000
  N   N63       1.0  0.79442  0.47734  0.55208  1.0000
  H   H1171     1.0  0.79009  0.34132  0.83168  1.0000
  H   H1172     1.0  0.75676  0.27096  0.42271  1.0000
  H   H1173     1.0  0.84779  0.43053  0.51709  1.0000
  H   H1174     1.0  0.83760  0.39934  0.41050  1.0000
  H   H1175     1.0  0.92151  0.47724  0.85810  1.0000
  H   H1176     1.0  0.91466  0.42137  0.89017  1.0000
  C   C984      1.0  0.81266  0.41086  0.40336  1.0000
  H   H1177     1.0  0.82500  0.37827  0.42648  1.0000
  C   C985      1.0  0.89872  0.44851  0.82655  1.0000
  H   H1178     1.0  0.89494  0.43561  0.81307  1.0000
  H   H1179     1.0  0.93981  0.33910  0.02592  1.0000
  C   C986      1.0  0.80154  0.34116  0.21226  1.0000
  C   C987      1.0  0.82477  0.38940  0.41043  1.0000
  N   N64       1.0  0.81230  0.39601  0.42559  1.0000
  H   H1180     1.0  0.80903  0.40712  0.37403  1.0000
  H   H1181     1.0  0.82188  0.38490  0.38124  1.0000
  H   H1182     1.0  0.80395  0.41671  0.41466  1.0000
  H   H1183     1.0  0.79463  0.37022  0.43459  1.0000
  C   C988      1.0  0.84982  0.37871  0.72831  1.0000
  C   C989      1.0  0.83914  0.37874  0.66661  1.0000
  C   C990      1.0  0.79552  0.38227  0.42062  1.0000
  H   H1184     1.0  0.79270  0.37862  0.39108  1.0000
  C   C991      1.0  0.83982  0.33928  0.61427  1.0000
  H   H1185     1.0  0.79945  0.36548  0.22321  1.0000
  S   S281      1.0  0.88299  0.49150  0.04837  1.0000
  H   H1186     1.0  0.83178  0.32944  0.63356  1.0000
  C   C992      1.0  0.80917  0.48060  0.57644  1.0000
  C   C993      1.0  0.87274  0.47457  0.84766  1.0000
  H   H1187     1.0  0.81101  0.38041  0.77195  1.0000
  C   C994      1.0  0.85211  0.36346  0.72003  1.0000
  C   C995      1.0  0.87551  0.41347  0.20379  1.0000
  C   C996      1.0  0.76236  0.45205  0.75205  1.0000
  C   C997      1.0  0.95985  0.38548  0.01471  1.0000
  H   H1188     1.0  0.78203  0.27579  0.25367  1.0000
  H   H1189     1.0  0.82525  0.42122  0.40249  1.0000
  C   C998      1.0  0.78176  0.24641  0.23020  1.0000
  C   C999      1.0  0.87902  0.42409  0.17219  1.0000
  H   H1190     1.0  0.94947  0.32540  0.04602  1.0000
  C   C1000     1.0  0.82144  0.34899  0.84966  1.0000
  H   H1191     1.0  0.84804  0.42416  0.16952  1.0000
  C   C1001     1.0  0.87338  0.48148  0.77189  1.0000
  H   H1192     1.0  0.77792  0.26894  0.18549  1.0000
  H   H1193     1.0  0.88544  0.44957  0.22303  1.0000
  C   C1002     1.0  0.83609  0.42006  0.51065  1.0000
  H   H1194     1.0  0.86236  0.47533  0.48813  1.0000
  C   C1003     1.0  0.74573  0.27435  0.52958  1.0000
  C   C1004     1.0  0.87370  0.44703  0.20719  1.0000
  C   C1005     1.0  0.83188  0.41475  0.47398  1.0000
  H   H1195     1.0  0.86294  0.43881  0.22389  1.0000
  H   H1196     1.0  0.79354  0.25766  0.22513  1.0000
  H   H1197     1.0  0.84464  0.37820  0.85943  1.0000
  H   H1198     1.0  0.82811  0.41691  0.56730  1.0000
  C   C1006     1.0  0.87982  0.39897  0.20510  1.0000
  H   H1199     1.0  0.78544  0.38647  0.43075  1.0000
  H   H1200     1.0  0.77116  0.47721  0.77694  1.0000
  C   C1007     1.0  0.96982  0.44749  0.01071  1.0000
  H   H1201     1.0  0.81739  0.36485  0.60866  1.0000
  C   C1008     1.0  0.97332  0.38808  0.99030  1.0000
  C   C1009     1.0  0.75379  0.43430  0.64710  1.0000
  H   H1202     1.0  0.89585  0.40031  0.11907  1.0000
  H   H1203     1.0  0.74800  0.45354  0.33801  1.0000
  C   C1010     1.0  0.84955  0.40229  0.83481  1.0000
  H   H1204     1.0  0.81088  0.35328  0.76121  1.0000
  H   H1205     1.0  0.89958  0.45572  0.15632  1.0000
  C   C1011     1.0  0.76371  0.45584  0.29053  1.0000
  C   C1012     1.0  0.82158  0.38611  0.79020  1.0000
  N   N65       1.0  0.87436  0.43937  0.17015  1.0000
  C   C1013     1.0  0.98304  0.48144  0.98186  1.0000
  H   H1206     1.0  0.88456  0.46546  0.15004  1.0000
  C   C1014     1.0  0.96341  0.39361  0.04950  1.0000
  C   C1015     1.0  0.84028  0.38471  0.83877  1.0000
  H   H1207     1.0  0.83614  0.33372  0.58599  1.0000
  C   C1016     1.0  0.88649  0.45310  0.14758  1.0000
  C   C1017     1.0  0.81602  0.34845  0.78481  1.0000
  C   C1018     1.0  0.88605  0.41858  0.14133  1.0000
  C   C1019     1.0  0.81984  0.35278  0.61017  1.0000
  C   C1020     1.0  0.84324  0.38627  0.70173  1.0000
  C   C1021     1.0  0.86034  0.46362  0.82337  1.0000
  C   C1022     1.0  0.76021  0.45207  0.65342  1.0000
  C   C1023     1.0  0.88578  0.48894  0.83417  1.0000
  H   H1208     1.0  0.75026  0.42718  0.72682  1.0000
  H   H1209     1.0  0.96668  0.45543  0.03219  1.0000
  H   H1210     1.0  0.95333  0.39195  0.06868  1.0000
  H   H1211     1.0  0.76211  0.42732  0.64674  1.0000
  C   C1024     1.0  0.76508  0.45758  0.25222  1.0000
  H   H1212     1.0  0.77310  0.47205  0.49294  1.0000
  H   H1213     1.0  0.81599  0.34611  0.58295  1.0000
  H   H1214     1.0  0.75409  0.47469  0.65855  1.0000
  C   C1025     1.0  0.98011  0.40365  0.05988  1.0000
  H   H1215     1.0  0.86041  0.40864  0.85214  1.0000
  C   C1026     1.0  0.74921  0.46094  0.65378  1.0000
  H   H1216     1.0  0.88816  0.42522  0.11535  1.0000
  H   H1217     1.0  0.78088  0.45541  0.58548  1.0000
  C   C1027     1.0  0.76002  0.25953  0.49153  1.0000
  H   H1218     1.0  0.84627  0.38043  0.59220  1.0000
  C   C1028     1.0  0.84147  0.36329  0.65705  1.0000
  H   H1219     1.0  0.86923  0.41602  0.22770  1.0000
  H   H1220     1.0  0.87712  0.39114  0.22963  1.0000
  H   H1221     1.0  0.81130  0.34448  0.63120  1.0000
  H   H1222     1.0  0.84601  0.36278  0.56365  1.0000
  C   C1029     1.0  0.90571  0.31603  0.10600  1.0000
  H   H1223     1.0  0.81638  0.47257  0.56804  1.0000
  H   H1224     1.0  0.84128  0.39806  0.70820  1.0000
  C   C1030     1.0  0.84838  0.36812  0.59235  1.0000
  H   H1225     1.0  0.88529  0.45004  0.11747  1.0000
  N   N66       1.0  0.83749  0.35587  0.61925  1.0000
  C   C1031     1.0  0.88744  0.39443  0.17495  1.0000
  H   H1226     1.0  0.82722  0.41116  0.76656  1.0000
  C   C1032     1.0  0.84801  0.35579  0.68502  1.0000
  H   H1227     1.0  0.83409  0.38514  0.64699  1.0000
  H   H1228     1.0  0.84994  0.34388  0.68080  1.0000
  H   H1229     1.0  0.77825  0.27668  0.43596  1.0000
  H   H1230     1.0  0.87382  0.48431  0.74279  1.0000
  H   H1231     1.0  0.85694  0.35736  0.74095  1.0000
  C   C1033     1.0  0.80659  0.48632  0.43659  1.0000
  C   C1034     1.0  0.79806  0.35514  0.82819  1.0000
  H   H1232     1.0  0.86181  0.37124  0.59890  1.0000
  H   H1233     1.0  0.85306  0.38462  0.75544  1.0000
  H   H1234     1.0  0.78906  0.45037  0.54328  1.0000
  H   H1235     1.0  0.85306  0.34075  0.61840  1.0000
  C   C1035     1.0  0.87091  0.49053  0.17341  1.0000
  H   H1236     1.0  0.79718  0.36229  0.85371  1.0000
  C   C1036     1.0  0.75137  0.45813  0.23198  1.0000
  C   C1037     1.0  0.82588  0.37608  0.81658  1.0000
  C   C1038     1.0  0.89037  0.40411  0.14300  1.0000
  H   H1237     1.0  0.77087  0.45595  0.54321  1.0000
  C   C1039     1.0  0.93184  0.35019  0.09040  1.0000
  C   C1040     1.0  0.84482  0.41175  0.80887  1.0000
  H   H1238     1.0  0.75229  0.45946  0.20233  1.0000
  C   C1041     1.0  0.88656  0.29254  0.06964  1.0000
  H   H1239     1.0  0.76019  0.27120  0.25620  1.0000
  C   C1042     1.0  0.76969  0.26520  0.25733  1.0000
  H   H1240     1.0  0.80840  0.33445  0.78636  1.0000
  C   C1043     1.0  0.94579  0.33661  0.05132  1.0000
  H   H1241     1.0  0.96196  0.44671  0.98585  1.0000
  H   H1242     1.0  0.92304  0.31007  0.02433  1.0000
  C   C1044     1.0  0.76836  0.26800  0.55598  1.0000
  C   C1045     1.0  0.78544  0.48825  0.56579  1.0000
  H   H1243     1.0  0.95582  0.34090  0.12028  1.0000
  H   H1244     1.0  0.83437  0.34960  0.84450  1.0000
  N   N67       1.0  0.81564  0.35753  0.82002  1.0000
  H   H1245     1.0  0.87212  0.47202  0.87689  1.0000
  H   H1246     1.0  0.81615  0.49061  0.21955  1.0000
  C   C1046     1.0  0.89870  0.29528  0.04251  1.0000
  H   H1247     1.0  0.80548  0.47751  0.60568  1.0000
  S   S282      1.0  0.86616  0.49100  0.22147  1.0000
  H   H1248     1.0  0.77475  0.45162  0.74977  1.0000
  H   H1249     1.0  0.82627  0.49133  0.51869  1.0000
  C   C1047     1.0  0.74442  0.46733  0.76879  1.0000
  C   C1048     1.0  0.75616  0.27508  0.55938  1.0000
  C   C1049     1.0  0.74884  0.45481  0.30838  1.0000
  H   H1250     1.0  0.77355  0.48571  0.55065  1.0000
  C   C1050     1.0  0.77039  0.26040  0.52261  1.0000
  H   H1251     1.0  0.82101  0.35476  0.87731  1.0000
  C   C1051     1.0  0.83086  0.40368  0.78665  1.0000
  C   C1052     1.0  0.91437  0.30851  0.04674  1.0000
  C   C1053     1.0  0.79886  0.48103  0.51275  1.0000
  H   H1252     1.0  0.78013  0.47621  0.42736  1.0000
  H   H1253     1.0  0.81769  0.49434  0.57659  1.0000
  H   H1254     1.0  0.78050  0.25576  0.52167  1.0000
  H   H1255     1.0  0.80789  0.47789  0.14417  1.0000
  H   H1256     1.0  0.78791  0.25490  0.46146  1.0000
  H   H1257     1.0  0.90768  0.32371  0.13106  1.0000
  H   H1258     1.0  0.75595  0.26349  0.19066  1.0000
  C   C1054     1.0  0.76031  0.46650  0.76708  1.0000
  H   H1259     1.0  0.76932  0.26020  0.28566  1.0000
  C   C1055     1.0  0.88588  0.49232  0.79612  1.0000
  H   H1260     1.0  0.94384  0.36141  0.09309  1.0000
  H   H1261     1.0  0.75735  0.24881  0.81099  1.0000
  C   C1056     1.0  0.78999  0.47971  0.44793  1.0000
  C   C1057     1.0  0.76672  0.26576  0.42731  1.0000
  H   H1262     1.0  0.75565  0.25205  0.64026  1.0000
  C   C1058     1.0  0.74853  0.43829  0.73904  1.0000
  C   C1059     1.0  0.80592  0.48985  0.15236  1.0000
  H   H1263     1.0  0.77672  0.26901  0.57903  1.0000
  H   H1264     1.0  0.94507  0.31815  0.11265  1.0000
  H   H1265     1.0  0.87433  0.28251  0.06590  1.0000
  N   N68       1.0  0.76686  0.25129  0.22942  1.0000
  H   H1266     1.0  0.92461  0.35005  0.11587  1.0000
  H   H1267     1.0  0.93620  0.32988  0.14209  1.0000
  H   H1268     1.0  0.88054  0.30090  0.12228  1.0000
  H   H1269     1.0  0.96578  0.43421  0.02162  1.0000
  H   H1270     1.0  0.89583  0.28732  0.01767  1.0000
  C   C1060     1.0  0.91826  0.31950  0.07854  1.0000
  H   H1271     1.0  0.92491  0.35284  0.06698  1.0000
  N   N69       1.0  0.93454  0.33392  0.08370  1.0000
  C   C1061     1.0  0.89008  0.30285  0.10137  1.0000
  C   C1062     1.0  0.81567  0.48818  0.50027  1.0000
  C   C1063     1.0  0.87923  0.49084  0.09701  1.0000
  C   C1064     1.0  0.94329  0.33057  0.11610  1.0000
  H   H1272     1.0  0.78212  0.48589  0.59556  1.0000
  H   H1273     1.0  0.76350  0.24806  0.17064  1.0000
  H   H1274     1.0  0.80959  0.48766  0.40743  1.0000
  H   H1275     1.0  0.98260  0.40948  0.08717  1.0000
  S   S283      1.0  0.76564  0.24725  0.72544  1.0000
  C   C1065     1.0  0.81937  0.49077  0.46273  1.0000
  H   H1276     1.0  0.82178  0.49315  0.09199  1.0000
  N   N70       1.0  0.76212  0.25213  0.45533  1.0000
  H   H1277     1.0  0.76915  0.26103  0.39987  1.0000
  N   N71       1.0  0.98791  0.45456  0.00160  1.0000
  H   H1278     1.0  0.74348  0.47882  0.78070  1.0000
  H   H1279     1.0  0.80080  0.49453  0.12850  1.0000
  C   C1066     1.0  0.98997  0.39846  0.00036  1.0000
  C   C1067     1.0  0.82667  0.49603  0.19981  1.0000
  H   H1280     1.0  0.83227  0.49560  0.45369  1.0000
  C   C1068     1.0  0.98415  0.53845  0.07590  1.0000
  C   C1069     1.0  0.85138  0.52057  0.15011  1.0000
  H   H1281     1.0  0.82845  0.52833  0.19254  1.0000
  H   H1282     1.0  0.90329  0.50923  0.11329  1.0000
  H   H1283     1.0  0.87261  0.52347  0.06965  1.0000
  H   H1284     1.0  0.97943  0.51959  0.03250  1.0000
  Fe  Fe142     1.0  0.94081  0.52184  0.97838  1.0000
  S   S284      1.0  0.96497  0.54482  0.99416  1.0000
  S   S285      1.0  0.91481  0.52234  0.96935  1.0000
  H   H1285     1.0  0.97124  0.53743  0.07700  1.0000
  H   H1286     1.0  0.83705  0.50572  0.21560  1.0000
  H   H1287     1.0  0.85395  0.52564  0.17799  1.0000
  H   H1288     1.0  0.84515  0.50278  0.04961  1.0000
  H   H1289     1.0  0.80711  0.51462  0.19860  1.0000
  C   C1070     1.0  0.86222  0.51968  0.08880  1.0000
  C   C1071     1.0  0.86458  0.52595  0.12499  1.0000
  C   C1072     1.0  0.83338  0.50243  0.10249  1.0000
  S   S286      1.0  0.93131  0.50058  0.02008  1.0000
  C   C1073     1.0  0.98650  0.55244  0.98020  1.0000
  S   S287      1.0  0.93833  0.50410  0.92981  1.0000
  H   H1290     1.0  0.89576  0.50345  0.78523  1.0000
  C   C1074     1.0  0.84668  0.50795  0.07759  1.0000
  C   C1075     1.0  0.83536  0.50860  0.13969  1.0000
  C   C1076     1.0  0.81766  0.51828  0.17861  1.0000
  H   H1291     1.0  0.98323  0.53497  0.93421  1.0000
  Fe  Fe143     1.0  0.90538  0.49969  0.00814  1.0000
  H   H1292     1.0  0.87685  0.53469  0.13384  1.0000
  H   H1293     1.0  0.79327  0.50213  0.56300  1.0000
  H   H1294     1.0  0.81412  0.52429  0.15449  1.0000
  N   N72       1.0  0.82158  0.50319  0.16686  1.0000
  C   C1077     1.0  0.98881  0.52834  0.05081  1.0000
  C   C1078     1.0  0.89106  0.50098  0.12270  1.0000
  S   S288      1.0  0.90225  0.50298  0.86320  1.0000
  Fe  Fe144     1.0  0.91176  0.50280  0.92297  1.0000
  H   H1295     1.0  0.89605  0.50904  0.17993  1.0000
  H   H1296     1.0  0.98055  0.50470  0.96322  1.0000
  C   C1079     1.0  0.88687  0.50091  0.16054  1.0000
  C   C1080     1.0  0.98899  0.49793  0.96700  1.0000
