data_image0
_chemical_formula_structural       C2H3FeCS2CHCHCH2C2FeC2HS2HCHSNHFeH2C2H7C2HC3HCSH3CH2FeSCSC2NCHCH3CSH4CHC2HSC3H5CSCH3Fe2NCHCH2C4HCHC3FeSHCS2FeSFeSC4SFeSCFeS2FeSFeS2FeS2FeS2FeSFeS3CHSHCNHC6H4SHCH6CSC8H4C6H4CH2C2HCH3CHCNC9H14NC5HSH9CNC9H16CH3CH3CH2C2FeHC3HC3H3NCH2C3H2CHCHCHC2H3CHCHNH2C4H2C3H5CHCHCH3CNCH4CHCHCH3C2HCFeHCSFeS2CH2CHFeSHSCHCFeSCFeS2FeSFeS2FeS2FeS2FeSFeS3HCH5C6H4C3HCHCHFeCHCHC6H4C6H5SHC3HC2HCH2NC6HNCH12C2NC6H12CNCH2CHC2HSCSCH2FeH2SHCH2CHCHC2HCHC3H4CH2C2NHS4H2CH2C2H3FeH2CH3CHCH2CH2C3HCSCSFeSC2SFeH3SH2CSHC2HFeSCHS2HCH2NCFeCSHSHSC5H3C2HC2H3CH2CHC3H9CFeHC3HCFeH6C2HCHC3FeH2CHC6H4C2NC2H8CH3CH2SCFeSC2HCH3NCS2HFeHC6H2SHC3HFeNCH3CSH2CH2SCSH3C2H3C2FeS2HCH2CHSH2CSCHC2HCH2CH2NH4FeS2HNCH3SHFeC3HSC4SC3H2C2SH2C2HCH2CHNHSHC3H2CHNHC2H2CHCH3C2FeH3CHCHC2S2H2FeCH4C4HCHCH2C2H3C3HCNC3FeHCH4C2H3C2H4FeCHCFeH3C2HC2HCHSC2H2SCHC5HC2HC2HC3H8CHCHC2FeCSFeS2CHFeS3FeHSFeCS2FeSFeS2FeCFeHS2HSCSCHFeSCFeS2FeS2FeSFeS3CH2CHNH3C2HSC6H4C2H2SH2C2H2C3H5C6H4C6H4C6H6C3H3C2H4NC2HC2HCH2CHNCH2NC6HCNH11CHC3HCHCHC2HC2HNHC7H3C2NC8H14CNC8H7CH2NC7HCH2C4H3CH2CHSH2NH3CH3CH2SHCH3SC2HC2H2CHCH7SC2HC2FeCH3C2FeHCH2SCH3CHCHFeH3CHFeHSHC2HCHCHCHNCH4CHC2HNHSH4C3FeH2CHC2H2CFeHCH6SH10FeH2CHCSCHCH2SHNH2C2H2C3H2SH2FeC3FeHSFeS2HCFeS3FeHSH2SHFeSFeS2FeCFeHS2HSCSNHFeSHFeS2FeS2FeSFeS3H2CHC4H3CHC6H4C2H4SHC2H3C3SC8H4C6H4C6H5C4SC2HCH2NC6H2CH12CHNC9H14CH2CHNH5CH3C2HCH2C3H4C2NC2H2C6H2CH2CNH3CHCNCSCSCH6C4HSC3HCHNHCHNHSC2HCH3SC2HCH2FeHC3SH8C3HCHC2HC2H2CHNCSH2CH2C5H6FeH2NH2C2HCH3CHCH5CH3FeH2CHCH3SH2SHSHFeC2SH5CHCHC5HSCNFeC2SH2FeCH7CHC3HS2HFeHSHCFeS2HFeS2FeS2FeSFeS3FeSCFeSFeSFeS4HFeSHSFeSFeSFeS2H3C2H2CHCS2HCHNHC6H4C5H4C6H4C6H4C6H5C2HCHCH2CH2C2H3C2NC9HCSH2CHCH6NC3H2CH5CHFeHC2H4CHNC6H11NH2SNC9H11C3H5SHSH2C9HCFeH2CHC2NC9H13CNHC3H3CH2CH3C2SH3SC2H2CHFeH2C2H3C2HNC2HCHC3H3C2HSHCSC2H2CHCHC2HCH4SH4CHSH3CHC5HSH3FeC3FeH3C4HC2HCH2C3FeSHC2NHSH2SHCS2H2C2FeH2C2HC2H2C2H2CHCHFeHSC2FeS2HFeS2FeS2FeSFeS3CS2HSFeSFeS5FeSFeSFeSFeSFeS2CSCH2C4SHCH2CH2C6H4C2HC2H2C8H4C6H4C6H6CSCFeH2C3HC3SC2HC2H2CSHNH5SC2HNCHCH6C3FeSHSHCHSC2H2C2FeHC2HFeH3NC9H14CH2CHNC9H12NC7H10NC9H13NH2C2SCH3CH3CH2FeC2H2NSHC2H5CHCHFeC3H3C2HCH2CSCHCNH3CH5CHC8H2CH7CH6CS2HCSH2CH2SH3CHCSH2CHFeSFeS3H2CHSHCSHSFeH2SHCSCHCFeSFeCS2FeSH2S2C2HSC3HSC5H3FeHC4HCH2SCH3C4H2C2H2C2SHC3H2C2H2FeCH4C6HCHC2HCHCH2CH3SH2CNCHNC4HCHCH6SC2H2FeSH5CSCH4SHCHCH2CH2SCH2C2HNC2H3CH2SH2CHFeCHC4HCHFeC2HNCH3CH2C2H2C2H3NC4H2C2H2CH3FeH3CHSCH3C2HFeSFeHS3FeSCS2CSHC4SHCHFeCHFeSH2S2FeS2HS2HSCSCHC2H8SC3HC3FeCHSC4FeHC3H3CHCFeC4H3C3HC2H2CHC2HC3H3C2HC3H4C3HCNHC4FeC2H2FeCHS2CSHCN3H2C7NH13CH5FeH2C2HCHS3C4HCH2CHS2H2CHNH2CHCHCHCHCH2C2FeH2SCFe2CHCH4CHCHFeHC2H2FeSH2SCFeCSHSCHCFeS2HCSHFeSHCFeS2FeS2FeSFeS3C6H4C2HC3H5C6H4C6H8CSH6NHC5H4CH7CH3C3N2C9H13CHNC3HC3H2CH2CHC2HC2HC2H6CH2NH4CH2CHC6HC4H3SH2SH2C2HCH2FeCH2CS2CFeHSHSHC2FeS2C2HSFeSH2FeS2FeS2FeSFeS3C6H5C2FeCSH5C6H4C6H4CH7C2H2NC7H11NC9H16C2H2C5H2FeH5CH3SHCH3CH2C2NC9H13NC9H5CH2NCS2CHC2NHC4HNC4HCHNCH2CHC2H2CSHFeCSHCH2FeS2HFeS2FeSHSCFeHSHSCH2C6H3C6H2CH6C2HNC9H11NSH3C2H3C2H2Fe2CH2SHFeS2H4FeHSFeH2SFeSHSFeSC2HSN2SC6H3C6H4SHC2H2FeCHC4HC2H5CHCH3CSH2C2HCHC2H5FeH2CFeH3SCSCHCS2H3CH4
_chemical_formula_sum              "C1440 H1728 Fe192 S384 N96"
_cell_length_a       85.3686
_cell_length_b       84.8358
_cell_length_c       47.8256
_cell_angle_alpha    90.9879
_cell_angle_beta     91.9472
_cell_angle_gamma    114.884

_space_group_name_H-M_alt    "P 1"
_space_group_IT_number       1

loop_
  _space_group_symop_operation_xyz
  'x, y, z'

loop_
  _atom_site_type_symbol
  _atom_site_label
  _atom_site_symmetry_multiplicity
  _atom_site_fract_x
  _atom_site_fract_y
  _atom_site_fract_z
  _atom_site_occupancy
  C   C1        1.0  0.21669  0.47654  0.24721  1.0000
  C   C2        1.0  0.16084  0.45738  0.20287  1.0000
  H   H1        1.0  0.08409  0.47551  0.10168  1.0000
  H   H2        1.0  0.99173  0.40545  0.09437  1.0000
  H   H3        1.0  0.19268  0.47524  0.17653  1.0000
  Fe  Fe1       1.0  0.08034  0.48181  0.47043  1.0000
  C   C3        1.0  0.19018  0.47411  0.22184  1.0000
  S   S1        1.0  0.06600  0.46148  0.00093  1.0000
  S   S2        1.0  0.05335  0.48061  0.46928  1.0000
  C   C4        1.0  0.16461  0.47019  0.24900  1.0000
  H   H4        1.0  0.15091  0.46844  0.24762  1.0000
  C   C5        1.0  0.22475  0.47748  0.22208  1.0000
  H   H5        1.0  0.17166  0.48179  0.26322  1.0000
  C   C6        1.0  0.99801  0.43840  0.48085  1.0000
  H   H6        1.0  0.00835  0.44618  0.46772  1.0000
  H   H7        1.0  0.22240  0.47807  0.17739  1.0000
  C   C7        1.0  0.99376  0.43679  0.00503  1.0000
  C   C8        1.0  0.00154  0.48956  0.02066  1.0000
  Fe  Fe2       1.0  0.07980  0.48688  0.02588  1.0000
  C   C9        1.0  0.10148  0.48359  0.13855  1.0000
  C   C10       1.0  0.19971  0.47498  0.24728  1.0000
  H   H8        1.0  0.14707  0.45544  0.20292  1.0000
  S   S3        1.0  0.05518  0.48976  0.03254  1.0000
  S   S4        1.0  0.01476  0.44797  0.02174  1.0000
  H   H9        1.0  0.09222  0.47435  0.15181  1.0000
  C   C11       1.0  0.19887  0.47526  0.19661  1.0000
  H   H10       1.0  0.16432  0.45895  0.18061  1.0000
  S   S5        1.0  0.09725  0.48064  0.43452  1.0000
  N   N1        1.0  0.17221  0.47255  0.22102  1.0000
  H   H11       1.0  0.01007  0.48303  0.01925  1.0000
  Fe  Fe3       1.0  0.04135  0.46546  0.00506  1.0000
  H   H12       1.0  0.19460  0.47507  0.26759  1.0000
  H   H13       1.0  0.16145  0.44523  0.21004  1.0000
  C   C12       1.0  0.21588  0.47688  0.19683  1.0000
  C   C13       1.0  0.09682  0.48420  0.11002  1.0000
  H   H14       1.0  0.12490  0.48411  0.39883  1.0000
  H   H15       1.0  0.14696  0.48791  0.99410  1.0000
  H   H16       1.0  0.16469  0.45852  0.25914  1.0000
  H   H17       1.0  0.00284  0.40757  0.04687  1.0000
  H   H18       1.0  0.13073  0.47060  0.01140  1.0000
  H   H19       1.0  0.22391  0.47770  0.26683  1.0000
  H   H20       1.0  0.15856  0.48792  0.20856  1.0000
  C   C14       1.0  0.17187  0.48850  0.20941  1.0000
  C   C15       1.0  0.98910  0.40055  0.04994  1.0000
  H   H21       1.0  0.17644  0.49072  0.18775  1.0000
  C   C16       1.0  0.11768  0.49042  0.38860  1.0000
  C   C17       1.0  0.10312  0.49059  0.40141  1.0000
  C   C18       1.0  0.99066  0.49033  0.48372  1.0000
  H   H22       1.0  0.10915  0.48315  0.99943  1.0000
  C   C19       1.0  0.13623  0.47476  0.99055  1.0000
  S   S6        1.0  0.12365  0.49216  0.18563  1.0000
  H   H23       1.0  0.10274  0.45362  0.99017  1.0000
  H   H24       1.0  0.07868  0.44077  0.55289  1.0000
  H   H25       1.0  0.00243  0.43263  0.96503  1.0000
  C   C20       1.0  0.07417  0.44144  0.60994  1.0000
  H   H26       1.0  0.11248  0.44687  0.96260  1.0000
  H   H27       1.0  0.04266  0.41361  0.59818  1.0000
  Fe  Fe4       1.0  0.07038  0.47793  0.96246  1.0000
  S   S7        1.0  0.08011  0.47189  0.92116  1.0000
  C   C21       1.0  0.98825  0.42454  0.52453  1.0000
  S   S8        1.0  0.04480  0.47976  0.96499  1.0000
  C   C22       1.0  0.09500  0.48680  0.89823  1.0000
  C   C23       1.0  0.12445  0.46910  0.91760  1.0000
  N   N2        1.0  0.06145  0.43870  0.58639  1.0000
  C   C24       1.0  0.04347  0.42658  0.59246  1.0000
  H   H28       1.0  0.05647  0.42873  0.54352  1.0000
  C   C25       1.0  0.09709  0.48079  0.87156  1.0000
  H   H29       1.0  0.03441  0.42449  0.57390  1.0000
  H   H30       1.0  0.08925  0.46739  0.86503  1.0000
  H   H31       1.0  0.03829  0.43186  0.60950  1.0000
  C   C26       1.0  0.09896  0.44933  0.65528  1.0000
  S   S9        1.0  0.02385  0.44228  0.52177  1.0000
  H   H32       1.0  0.99109  0.42161  0.54550  1.0000
  H   H33       1.0  0.05182  0.45420  0.56229  1.0000
  H   H34       1.0  0.09683  0.45718  0.58663  1.0000
  H   H35       1.0  0.00859  0.46856  0.53897  1.0000
  C   C27       1.0  0.10425  0.45515  0.62870  1.0000
  H   H36       1.0  0.14195  0.46583  0.98349  1.0000
  C   C28       1.0  0.06922  0.43544  0.63727  1.0000
  C   C29       1.0  0.08151  0.43941  0.65952  1.0000
  H   H37       1.0  0.05592  0.42799  0.64218  1.0000
  S   S10       1.0  0.07504  0.46407  0.50740  1.0000
  C   C30       1.0  0.99131  0.43016  0.97743  1.0000
  C   C31       1.0  0.06136  0.45563  0.57969  1.0000
  C   C32       1.0  0.09209  0.45141  0.60638  1.0000
  H   H38       1.0  0.07749  0.43515  0.68039  1.0000
  H   H39       1.0  0.10838  0.45298  0.67277  1.0000
  H   H40       1.0  0.07418  0.46515  0.57316  1.0000
  H   H41       1.0  0.09745  0.45635  0.95484  1.0000
  H   H42       1.0  0.06748  0.41930  0.56581  1.0000
  C   C33       1.0  0.00200  0.43482  0.50796  1.0000
  S   S11       1.0  0.05883  0.48816  0.53854  1.0000
  C   C34       1.0  0.06626  0.43155  0.56119  1.0000
  H   H43       1.0  0.05793  0.46155  0.59808  1.0000
  H   H44       1.0  0.11362  0.45650  0.91735  1.0000
  H   H45       1.0  0.11777  0.46337  0.62567  1.0000
  Fe  Fe5       1.0  0.08511  0.48832  0.53550  1.0000
  Fe  Fe6       1.0  0.04878  0.46494  0.50825  1.0000
  N   N3        1.0  0.12288  0.47470  0.96981  1.0000
  C   C35       1.0  0.10831  0.45709  0.96921  1.0000
  H   H46       1.0  0.08357  0.48665  0.61704  1.0000
  C   C36       1.0  0.13056  0.47993  0.94226  1.0000
  H   H47       1.0  0.10701  0.48835  0.96359  1.0000
  H   H48       1.0  0.12661  0.46647  0.87312  1.0000
  C   C37       1.0  0.09672  0.49118  0.62528  1.0000
  C   C38       1.0  0.13182  0.47468  0.89185  1.0000
  C   C39       1.0  0.11614  0.48721  0.97969  1.0000
  C   C40       1.0  0.00347  0.47480  0.52390  1.0000
  H   H49       1.0  0.11082  0.48697  0.83301  1.0000
  C   C41       1.0  0.01480  0.48922  0.51018  1.0000
  H   H50       1.0  0.08941  0.48551  0.66809  1.0000
  C   C42       1.0  0.10010  0.49070  0.65436  1.0000
  C   C43       1.0  0.10934  0.49188  0.85331  1.0000
  C   C44       1.0  0.14520  0.49116  0.88974  1.0000
  Fe  Fe7       1.0  0.07440  0.62350  0.01925  1.0000
  S   S12       1.0  0.08483  0.61527  0.05743  1.0000
  H   H51       1.0  0.05174  0.60822  0.45564  1.0000
  C   C45       1.0  0.15541  0.71455  0.04529  1.0000
  S   S13       1.0  0.12371  0.64397  0.04147  1.0000
  S   S14       1.0  0.10863  0.66466  0.45691  1.0000
  Fe  Fe8       1.0  0.10612  0.61643  0.03020  1.0000
  S   S15       1.0  0.11685  0.59652  0.02882  1.0000
  Fe  Fe9       1.0  0.10175  0.64378  0.06598  1.0000
  S   S16       1.0  0.10485  0.65533  0.11061  1.0000
  C   C46       1.0  0.12381  0.53840  0.41693  1.0000
  C   C47       1.0  0.20870  0.70178  0.39199  1.0000
  C   C48       1.0  0.17518  0.71403  0.13044  1.0000
  C   C49       1.0  0.99702  0.61504  0.42755  1.0000
  S   S17       1.0  0.09486  0.62255  0.99123  1.0000
  Fe  Fe10      1.0  0.14176  0.51105  0.22003  1.0000
  S   S18       1.0  0.16952  0.53043  0.21733  1.0000
  C   C50       1.0  0.05657  0.61654  0.43727  1.0000
  Fe  Fe11      1.0  0.14027  0.52072  0.28308  1.0000
  S   S19       1.0  0.16788  0.54116  0.28418  1.0000
  S   S20       1.0  0.12045  0.51751  0.31689  1.0000
  Fe  Fe12      1.0  0.16149  0.54855  0.24187  1.0000
  S   S21       1.0  0.16786  0.57545  0.22565  1.0000
  Fe  Fe13      1.0  0.17425  0.52161  0.25977  1.0000
  S   S22       1.0  0.19795  0.51715  0.27550  1.0000
  S   S23       1.0  0.13357  0.52972  0.24200  1.0000
  Fe  Fe14      1.0  0.16362  0.68320  0.30882  1.0000
  S   S24       1.0  0.18912  0.68514  0.32559  1.0000
  S   S25       1.0  0.14332  0.68479  0.33780  1.0000
  Fe  Fe15      1.0  0.17356  0.68155  0.24761  1.0000
  S   S26       1.0  0.20002  0.68342  0.26140  1.0000
  S   S27       1.0  0.16885  0.67865  0.19977  1.0000
  Fe  Fe16      1.0  0.18555  0.66425  0.29334  1.0000
  S   S28       1.0  0.19034  0.64138  0.30796  1.0000
  Fe  Fe17      1.0  0.20162  0.70451  0.29225  1.0000
  S   S29       1.0  0.22612  0.72821  0.30946  1.0000
  S   S30       1.0  0.15915  0.66103  0.27818  1.0000
  S   S31       1.0  0.17602  0.70388  0.27681  1.0000
  C   C51       1.0  0.17714  0.70275  0.40262  1.0000
  H   H52       1.0  0.15705  0.71668  0.37359  1.0000
  S   S32       1.0  0.10419  0.49628  0.05554  1.0000
  H   H53       1.0  0.12294  0.69806  0.06020  1.0000
  C   C52       1.0  0.00397  0.60818  0.44819  1.0000
  N   N4        1.0  0.00309  0.53515  0.01383  1.0000
  H   H54       1.0  0.06108  0.65623  0.41685  1.0000
  C   C53       1.0  0.17589  0.59397  0.24848  1.0000
  C   C54       1.0  0.17842  0.59266  0.27723  1.0000
  C   C55       1.0  0.18345  0.60745  0.29516  1.0000
  C   C56       1.0  0.18572  0.62356  0.28454  1.0000
  C   C57       1.0  0.18348  0.62495  0.25572  1.0000
  C   C58       1.0  0.17871  0.61021  0.23775  1.0000
  H   H55       1.0  0.17627  0.58022  0.28572  1.0000
  H   H56       1.0  0.18519  0.60632  0.31743  1.0000
  H   H57       1.0  0.18530  0.63734  0.24734  1.0000
  H   H58       1.0  0.17686  0.61135  0.21550  1.0000
  S   S33       1.0  0.14681  0.50066  0.26115  1.0000
  H   H59       1.0  0.03338  0.60761  0.05591  1.0000
  C   C59       1.0  0.02181  0.54404  0.00843  1.0000
  H   H60       1.0  0.21229  0.52035  0.21927  1.0000
  H   H61       1.0  0.22807  0.51715  0.30434  1.0000
  H   H62       1.0  0.23085  0.55826  0.23325  1.0000
  H   H63       1.0  0.19980  0.67876  0.41625  1.0000
  H   H64       1.0  0.18095  0.71290  0.08780  1.0000
  H   H65       1.0  0.13490  0.51539  0.09033  1.0000
  C   C60       1.0  0.00793  0.62729  0.40973  1.0000
  S   S34       1.0  0.09004  0.65236  0.02920  1.0000
  C   C61       1.0  0.16248  0.71108  0.14973  1.0000
  C   C62       1.0  0.99451  0.58148  0.00398  1.0000
  C   C63       1.0  0.12218  0.65973  0.13587  1.0000
  C   C64       1.0  0.13823  0.66063  0.12839  1.0000
  C   C65       1.0  0.15219  0.66603  0.14841  1.0000
  C   C66       1.0  0.15024  0.67018  0.17635  1.0000
  C   C67       1.0  0.13400  0.66863  0.18411  1.0000
  C   C68       1.0  0.12013  0.66359  0.16391  1.0000
  H   H66       1.0  0.14004  0.65767  0.10701  1.0000
  H   H67       1.0  0.16470  0.66726  0.14212  1.0000
  H   H68       1.0  0.13229  0.67192  0.20539  1.0000
  H   H69       1.0  0.10780  0.66302  0.16995  1.0000
  C   C69       1.0  0.11906  0.66908  0.42420  1.0000
  C   C70       1.0  0.13025  0.66192  0.41483  1.0000
  C   C71       1.0  0.13794  0.66638  0.38838  1.0000
  C   C72       1.0  0.13437  0.67792  0.37118  1.0000
  C   C73       1.0  0.12317  0.68482  0.38078  1.0000
  C   C74       1.0  0.11571  0.68055  0.40687  1.0000
  H   H70       1.0  0.13302  0.65306  0.42792  1.0000
  H   H71       1.0  0.14657  0.66092  0.38132  1.0000
  H   H72       1.0  0.12021  0.69367  0.36789  1.0000
  H   H73       1.0  0.10719  0.68622  0.41366  1.0000
  C   C75       1.0  0.09972  0.57734  0.01664  1.0000
  H   H74       1.0  0.11530  0.54608  0.48318  1.0000
  H   H75       1.0  0.99551  0.59875  0.46229  1.0000
  C   C76       1.0  0.08823  0.54667  0.00424  1.0000
  C   C77       1.0  0.15307  0.70328  0.09190  1.0000
  H   H76       1.0  0.07080  0.62057  0.43802  1.0000
  C   C78       1.0  0.06960  0.56159  0.00163  1.0000
  H   H77       1.0  0.16597  0.71326  0.17195  1.0000
  H   H78       1.0  0.07670  0.64761  0.41988  1.0000
  H   H79       1.0  0.05452  0.65227  0.46701  1.0000
  C   C79       1.0  0.02575  0.59874  0.01312  1.0000
  H   H80       1.0  0.13362  0.59718  0.39162  1.0000
  C   C80       1.0  0.00005  0.54385  0.03894  1.0000
  N   N5        1.0  0.10116  0.54244  0.09199  1.0000
  C   C81       1.0  0.09587  0.55675  0.08636  1.0000
  C   C82       1.0  0.11282  0.54197  0.07007  1.0000
  C   C83       1.0  0.08525  0.52586  0.08958  1.0000
  C   C84       1.0  0.11053  0.54537  0.11962  1.0000
  C   C85       1.0  0.12483  0.56149  0.12644  1.0000
  C   C86       1.0  0.10664  0.53214  0.13959  1.0000
  C   C87       1.0  0.13441  0.56428  0.15185  1.0000
  C   C88       1.0  0.11632  0.53508  0.16489  1.0000
  C   C89       1.0  0.13015  0.55109  0.17100  1.0000
  H   H81       1.0  0.08861  0.55873  0.10394  1.0000
  H   H82       1.0  0.10701  0.56937  0.08290  1.0000
  H   H83       1.0  0.08742  0.55405  0.06695  1.0000
  H   H84       1.0  0.12384  0.55485  0.06778  1.0000
  H   H85       1.0  0.10589  0.53777  0.04928  1.0000
  H   H86       1.0  0.11835  0.53254  0.07505  1.0000
  H   H87       1.0  0.07623  0.52510  0.10630  1.0000
  H   H88       1.0  0.07807  0.52437  0.06907  1.0000
  H   H89       1.0  0.08829  0.51435  0.09053  1.0000
  H   H90       1.0  0.12898  0.57193  0.11189  1.0000
  H   H91       1.0  0.09649  0.51923  0.13595  1.0000
  H   H92       1.0  0.14544  0.57659  0.15657  1.0000
  H   H93       1.0  0.11338  0.52467  0.17957  1.0000
  H   H94       1.0  0.13780  0.55317  0.19042  1.0000
  N   N6        1.0  0.18487  0.72958  0.37313  1.0000
  C   C90       1.0  0.18433  0.72764  0.34222  1.0000
  C   C91       1.0  0.16798  0.72907  0.38109  1.0000
  C   C92       1.0  0.19851  0.74695  0.38183  1.0000
  C   C93       1.0  0.18886  0.71579  0.38580  1.0000
  C   C94       1.0  0.20480  0.71492  0.38093  1.0000
  H   H95       1.0  0.14267  0.51486  0.14073  1.0000
  S   S35       1.0  0.04688  0.60843  0.99967  1.0000
  H   H96       1.0  0.17469  0.71448  0.33504  1.0000
  H   H97       1.0  0.18073  0.73730  0.33165  1.0000
  H   H98       1.0  0.17189  0.67968  0.42590  1.0000
  H   H99       1.0  0.16542  0.73966  0.37148  1.0000
  H   H100      1.0  0.16746  0.73051  0.40417  1.0000
  H   H101      1.0  0.21129  0.74916  0.37364  1.0000
  H   H102      1.0  0.19547  0.75763  0.37376  1.0000
  H   H103      1.0  0.20008  0.74850  0.40506  1.0000
  H   H104      1.0  0.07216  0.64602  0.46913  1.0000
  C   C95       1.0  0.21809  0.51869  0.26295  1.0000
  N   N7        1.0  0.12617  0.59903  0.25193  1.0000
  C   C96       1.0  0.14072  0.61143  0.27009  1.0000
  C   C97       1.0  0.13295  0.59632  0.22495  1.0000
  C   C98       1.0  0.11430  0.60738  0.24572  1.0000
  C   C99       1.0  0.11797  0.58224  0.26596  1.0000
  C   C100      1.0  0.10033  0.57483  0.27313  1.0000
  C   C101      1.0  0.12778  0.57277  0.27305  1.0000
  C   C102      1.0  0.09314  0.55895  0.28657  1.0000
  C   C103      1.0  0.12052  0.55707  0.28668  1.0000
  C   C104      1.0  0.10323  0.55010  0.29333  1.0000
  H   H105      1.0  0.15039  0.60634  0.27555  1.0000
  H   H106      1.0  0.14787  0.62396  0.25974  1.0000
  H   H107      1.0  0.13617  0.61437  0.29023  1.0000
  H   H108      1.0  0.14293  0.59126  0.22780  1.0000
  H   H109      1.0  0.13922  0.60868  0.21368  1.0000
  H   H110      1.0  0.12245  0.58678  0.21092  1.0000
  H   H111      1.0  0.10918  0.61041  0.26520  1.0000
  H   H112      1.0  0.12106  0.62001  0.23531  1.0000
  H   H113      1.0  0.10329  0.59904  0.23129  1.0000
  H   H114      1.0  0.09181  0.58101  0.26858  1.0000
  H   H115      1.0  0.14122  0.57742  0.26814  1.0000
  H   H116      1.0  0.07966  0.55343  0.29179  1.0000
  H   H117      1.0  0.12837  0.55019  0.29201  1.0000
  H   H118      1.0  0.09771  0.53778  0.30368  1.0000
  H   H119      1.0  0.15267  0.67544  0.06585  1.0000
  H   H120      1.0  0.03356  0.64241  0.39824  1.0000
  C   C105      1.0  0.99695  0.51628  0.01828  1.0000
  H   H121      1.0  0.10353  0.59163  0.46387  1.0000
  H   H122      1.0  0.08884  0.53379  0.45363  1.0000
  H   H123      1.0  0.11819  0.53773  0.39536  1.0000
  C   C106      1.0  0.00560  0.59272  0.05072  1.0000
  H   H124      1.0  0.23165  0.74461  0.25436  1.0000
  H   H125      1.0  0.12363  0.67750  0.06712  1.0000
  H   H126      1.0  0.13438  0.49817  0.35340  1.0000
  C   C107      1.0  0.12538  0.50661  0.10373  1.0000
  H   H127      1.0  0.02994  0.54282  0.02622  1.0000
  H   H128      1.0  0.00598  0.54101  0.05818  1.0000
  C   C108      1.0  0.09634  0.53143  0.43674  1.0000
  C   C109      1.0  0.15625  0.68681  0.05217  1.0000
  Fe  Fe18      1.0  0.11116  0.65039  0.00379  1.0000
  H   H129      1.0  0.08241  0.49860  0.39671  1.0000
  C   C110      1.0  0.09933  0.50670  0.36184  1.0000
  C   C111      1.0  0.19690  0.68915  0.40823  1.0000
  C   C112      1.0  0.05792  0.64099  0.46537  1.0000
  H   H130      1.0  0.08979  0.53170  0.41636  1.0000
  C   C113      1.0  0.12986  0.50636  0.13243  1.0000
  C   C114      1.0  0.02587  0.63279  0.41254  1.0000
  C   C115      1.0  0.14046  0.70086  0.11210  1.0000
  H   H131      1.0  0.17057  0.69331  0.05217  1.0000
  H   H132      1.0  0.13788  0.54704  0.41732  1.0000
  H   H133      1.0  0.12276  0.52509  0.42106  1.0000
  N   N8        1.0  0.11473  0.54422  0.43791  1.0000
  C   C116      1.0  0.00785  0.50743  0.01648  1.0000
  H   H134      1.0  0.22073  0.70111  0.38719  1.0000
  H   H135      1.0  0.16973  0.72147  0.04759  1.0000
  C   C117      1.0  0.11587  0.56190  0.43336  1.0000
  C   C118      1.0  0.12508  0.57240  0.41128  1.0000
  C   C119      1.0  0.10791  0.56928  0.45182  1.0000
  H   H136      1.0  0.09507  0.51791  0.43927  1.0000
  H   H137      1.0  0.12280  0.53096  0.46954  1.0000
  C   C120      1.0  0.11872  0.59626  0.42736  1.0000
  H   H138      1.0  0.15205  0.71147  0.02247  1.0000
  C   C121      1.0  0.12257  0.54381  0.46591  1.0000
  H   H139      1.0  0.05897  0.63769  0.39484  1.0000
  C   C122      1.0  0.11399  0.50665  0.34915  1.0000
  H   H140      1.0  0.15002  0.72381  0.05207  1.0000
  C   C123      1.0  0.22171  0.51989  0.23451  1.0000
  C   C124      1.0  0.06257  0.64381  0.41624  1.0000
  H   H141      1.0  0.16456  0.70207  0.40714  1.0000
  H   H142      1.0  0.09203  0.51286  0.35148  1.0000
  H   H143      1.0  0.10053  0.56203  0.46882  1.0000
  C   C125      1.0  0.09389  0.49870  0.38766  1.0000
  H   H144      1.0  0.18033  0.50019  0.22247  1.0000
  C   C126      1.0  0.02266  0.60030  0.04136  1.0000
  H   H145      1.0  0.01744  0.50811  0.47941  1.0000
  N   N9        1.0  0.14853  0.69860  0.06177  1.0000
  H   H146      1.0  0.13611  0.55393  0.46826  1.0000
  H   H147      1.0  0.00341  0.59428  0.07253  1.0000
  C   C127      1.0  0.12642  0.58933  0.40846  1.0000
  C   C128      1.0  0.18119  0.68968  0.41361  1.0000
  C   C129      1.0  0.99341  0.53780  0.98937  1.0000
  C   C130      1.0  0.10223  0.56224  0.01282  1.0000
  H   H148      1.0  0.13533  0.70215  0.15570  1.0000
  H   H149      1.0  0.21415  0.72406  0.36769  1.0000
  C   C131      1.0  0.01154  0.58922  0.99457  1.0000
  C   C132      1.0  0.12961  0.68962  0.05526  1.0000
  C   C133      1.0  0.14521  0.70477  0.14053  1.0000
  H   H150      1.0  0.00572  0.55824  0.03719  1.0000
  H   H151      1.0  0.18858  0.71880  0.13782  1.0000
  H   H152      1.0  0.02608  0.55826  0.00550  1.0000
  H   H153      1.0  0.05098  0.60822  0.41802  1.0000
  H   H154      1.0  0.13142  0.56790  0.39598  1.0000
  C   C134      1.0  0.10944  0.58623  0.44897  1.0000
  H   H155      1.0  0.19695  0.72929  0.33416  1.0000
  C   C135      1.0  0.02183  0.61350  0.45103  1.0000
  H   H156      1.0  0.02133  0.51397  0.01191  1.0000
  C   C136      1.0  0.03337  0.62598  0.43339  1.0000
  H   H157      1.0  0.12659  0.68578  0.03261  1.0000
  H   H158      1.0  0.15183  0.68175  0.03028  1.0000
  H   H159      1.0  0.12676  0.69533  0.10677  1.0000
  C   C137      1.0  0.17062  0.71041  0.10190  1.0000
  N   N10       1.0  0.05227  0.63178  0.43772  1.0000
  C   C138      1.0  0.08342  0.57702  0.01101  1.0000
  H   H160      1.0  0.02658  0.60787  0.46743  1.0000
  H   H161      1.0  0.05715  0.56158  0.99682  1.0000
  H   H162      1.0  0.08135  0.58862  0.01383  1.0000
  H   H163      1.0  0.00244  0.63263  0.39374  1.0000
  C   C139      1.0  0.99140  0.58327  0.03213  1.0000
  H   H164      1.0  0.11996  0.60944  0.42533  1.0000
  C   C140      1.0  0.12311  0.49839  0.36274  1.0000
  H   H165      1.0  0.13097  0.62360  0.98912  1.0000
  C   C141      1.0  0.23067  0.51810  0.28230  1.0000
  H   H166      1.0  0.11491  0.56257  0.01672  1.0000
  H   H167      1.0  0.22330  0.55972  0.28219  1.0000
  H   H168      1.0  0.05187  0.63239  0.48295  1.0000
  C   C142      1.0  0.10885  0.49554  0.09224  1.0000
  C   C143      1.0  0.11801  0.49464  0.15005  1.0000
  H   H169      1.0  0.09018  0.53506  0.00177  1.0000
  C   C144      1.0  0.07190  0.54632  0.99864  1.0000
  Fe  Fe19      1.0  0.05980  0.50351  0.99214  1.0000
  H   H170      1.0  0.02499  0.53874  0.98904  1.0000
  C   C145      1.0  0.23657  0.56266  0.27742  1.0000
  S   S36       1.0  0.05426  0.52700  0.98798  1.0000
  Fe  Fe20      1.0  0.07080  0.62232  0.52571  1.0000
  S   S37       1.0  0.08704  0.61950  0.56175  1.0000
  S   S38       1.0  0.04263  0.60223  0.51758  1.0000
  C   C146      1.0  0.12437  0.54601  0.65077  1.0000
  H   H171      1.0  0.13767  0.63385  0.91425  1.0000
  H   H172      1.0  0.07066  0.57022  0.92704  1.0000
  C   C147      1.0  0.01558  0.61162  0.52894  1.0000
  H   H173      1.0  0.07985  0.58782  0.51540  1.0000
  Fe  Fe21      1.0  0.10254  0.64846  0.56159  1.0000
  S   S39       1.0  0.11045  0.66500  0.60249  1.0000
  H   H174      1.0  0.12984  0.58587  0.67390  1.0000
  S   S40       1.0  0.08487  0.65163  0.52769  1.0000
  C   C148      1.0  0.11321  0.58592  0.94765  1.0000
  H   H175      1.0  0.20802  0.59889  0.73092  1.0000
  C   C149      1.0  0.12630  0.57506  0.65906  1.0000
  Fe  Fe22      1.0  0.14190  0.51048  0.73350  1.0000
  S   S41       1.0  0.16817  0.53082  0.72352  1.0000
  C   C150      1.0  0.10634  0.60882  0.92944  1.0000
  Fe  Fe23      1.0  0.14574  0.52189  0.79620  1.0000
  S   S42       1.0  0.17212  0.54326  0.78982  1.0000
  S   S43       1.0  0.13625  0.52367  0.84029  1.0000
  Fe  Fe24      1.0  0.16102  0.54860  0.75020  1.0000
  S   S44       1.0  0.16450  0.57463  0.73377  1.0000
  Fe  Fe25      1.0  0.17797  0.52398  0.76404  1.0000
  S   S45       1.0  0.20622  0.52866  0.77530  1.0000
  S   S46       1.0  0.13430  0.52889  0.75792  1.0000
  Fe  Fe26      1.0  0.16530  0.67700  0.81435  1.0000
  S   S47       1.0  0.19401  0.68703  0.82401  1.0000
  S   S48       1.0  0.14300  0.66750  0.84492  1.0000
  Fe  Fe27      1.0  0.16952  0.67324  0.74983  1.0000
  S   S49       1.0  0.19832  0.68230  0.75638  1.0000
  S   S50       1.0  0.15993  0.66265  0.70476  1.0000
  Fe  Fe28      1.0  0.19213  0.66551  0.79379  1.0000
  S   S51       1.0  0.20220  0.64549  0.80445  1.0000
  Fe  Fe29      1.0  0.19795  0.70335  0.78536  1.0000
  S   S52       1.0  0.21565  0.73216  0.77590  1.0000
  S   S53       1.0  0.16364  0.65502  0.78549  1.0000
  S   S54       1.0  0.16895  0.69474  0.77769  1.0000
  H   H176      1.0  0.12546  0.62869  0.85914  1.0000
  C   C151      1.0  0.11684  0.58616  0.84555  1.0000
  H   H177      1.0  0.12159  0.58084  0.95755  1.0000
  H   H178      1.0  0.16619  0.68243  0.61196  1.0000
  H   H179      1.0  0.10657  0.57360  0.84924  1.0000
  H   H180      1.0  0.02536  0.62465  0.53356  1.0000
  H   H181      1.0  0.09936  0.57749  0.58594  1.0000
  C   C152      1.0  0.17513  0.59409  0.75394  1.0000
  C   C153      1.0  0.17441  0.60928  0.74427  1.0000
  C   C154      1.0  0.18253  0.62502  0.75982  1.0000
  C   C155      1.0  0.19172  0.62576  0.78494  1.0000
  C   C156      1.0  0.19255  0.61059  0.79457  1.0000
  C   C157      1.0  0.18410  0.59472  0.77929  1.0000
  H   H182      1.0  0.16745  0.60889  0.72474  1.0000
  H   H183      1.0  0.18189  0.63667  0.75213  1.0000
  H   H184      1.0  0.19961  0.61111  0.81405  1.0000
  H   H185      1.0  0.18454  0.58306  0.78720  1.0000
  C   C158      1.0  0.08918  0.59683  0.92421  1.0000
  C   C159      1.0  0.12727  0.61741  0.85181  1.0000
  C   C160      1.0  0.08920  0.54710  0.52032  1.0000
  H   H186      1.0  0.23420  0.49885  0.71881  1.0000
  C   C161      1.0  0.14212  0.61972  0.83800  1.0000
  H   H187      1.0  0.21639  0.57327  0.76785  1.0000
  C   C162      1.0  0.00844  0.49695  0.49011  1.0000
  H   H188      1.0  0.12564  0.52853  0.89487  1.0000
  Fe  Fe30      1.0  0.10320  0.64872  0.49678  1.0000
  C   C163      1.0  0.20528  0.57213  0.69866  1.0000
  H   H189      1.0  0.10957  0.62220  0.92469  1.0000
  C   C164      1.0  0.11475  0.60068  0.85588  1.0000
  H   H190      1.0  0.14378  0.60332  0.98050  1.0000
  C   C165      1.0  0.12333  0.66325  0.63143  1.0000
  C   C166      1.0  0.12485  0.67296  0.65640  1.0000
  C   C167      1.0  0.13564  0.67269  0.67930  1.0000
  C   C168      1.0  0.14521  0.66279  0.67743  1.0000
  C   C169      1.0  0.14358  0.65297  0.65254  1.0000
  C   C170      1.0  0.13268  0.65313  0.62974  1.0000
  H   H191      1.0  0.11771  0.68085  0.65794  1.0000
  H   H192      1.0  0.13662  0.68022  0.69826  1.0000
  H   H193      1.0  0.15100  0.64538  0.65076  1.0000
  H   H194      1.0  0.13182  0.64576  0.61061  1.0000
  C   C171      1.0  0.13466  0.66881  0.94025  1.0000
  C   C172      1.0  0.15119  0.67822  0.92988  1.0000
  C   C173      1.0  0.15413  0.67773  0.90098  1.0000
  C   C174      1.0  0.14048  0.66806  0.88189  1.0000
  C   C175      1.0  0.12399  0.65854  0.89235  1.0000
  C   C176      1.0  0.12111  0.65881  0.92126  1.0000
  H   H195      1.0  0.16178  0.68611  0.94423  1.0000
  H   H196      1.0  0.16687  0.68519  0.89338  1.0000
  H   H197      1.0  0.11325  0.65117  0.87786  1.0000
  H   H198      1.0  0.10825  0.65176  0.92870  1.0000
  H   H199      1.0  0.01119  0.57129  0.50929  1.0000
  S   S55       1.0  0.05779  0.52577  0.49475  1.0000
  H   H200      1.0  0.20077  0.55788  0.69513  1.0000
  C   C177      1.0  0.20787  0.56928  0.74845  1.0000
  C   C178      1.0  0.08271  0.57663  0.51627  1.0000
  C   C179      1.0  0.22178  0.51193  0.74259  1.0000
  H   H201      1.0  0.14460  0.60387  0.61063  1.0000
  C   C180      1.0  0.15149  0.50207  0.91346  1.0000
  C   C181      1.0  0.00755  0.58161  0.51526  1.0000
  H   H202      1.0  0.15816  0.63575  0.92672  1.0000
  C   C182      1.0  0.02056  0.59841  0.52153  1.0000
  H   H203      1.0  0.18369  0.69151  0.65511  1.0000
  H   H204      1.0  0.19335  0.57435  0.70036  1.0000
  N   N11       1.0  0.18668  0.71873  0.69296  1.0000
  C   C183      1.0  0.19824  0.73757  0.69263  1.0000
  C   C184      1.0  0.17472  0.71580  0.71603  1.0000
  C   C185      1.0  0.19766  0.70946  0.69960  1.0000
  C   C186      1.0  0.17655  0.71287  0.66601  1.0000
  C   C187      1.0  0.16581  0.72087  0.65637  1.0000
  C   C188      1.0  0.17656  0.69891  0.64907  1.0000
  H   H205      1.0  0.01373  0.58804  0.97263  1.0000
  N   N12       1.0  0.21697  0.57884  0.72399  1.0000
  C   C189      1.0  0.99784  0.60802  0.53000  1.0000
  H   H206      1.0  0.19093  0.74572  0.69128  1.0000
  H   H207      1.0  0.20663  0.74209  0.71224  1.0000
  H   H208      1.0  0.20677  0.74049  0.67458  1.0000
  H   H209      1.0  0.16640  0.72287  0.71354  1.0000
  H   H210      1.0  0.18194  0.72032  0.73662  1.0000
  H   H211      1.0  0.16595  0.70171  0.71722  1.0000
  H   H212      1.0  0.20711  0.71115  0.68322  1.0000
  H   H213      1.0  0.20517  0.71425  0.71992  1.0000
  H   H214      1.0  0.18969  0.69530  0.70191  1.0000
  H   H215      1.0  0.16482  0.73128  0.66839  1.0000
  H   H216      1.0  0.22823  0.60303  0.74829  1.0000
  H   H217      1.0  0.13239  0.61011  0.65267  1.0000
  C   C190      1.0  0.07327  0.54560  0.50897  1.0000
  C   C191      1.0  0.06994  0.56033  0.50752  1.0000
  N   N13       1.0  0.13373  0.57315  0.81752  1.0000
  C   C192      1.0  0.13454  0.57507  0.78676  1.0000
  C   C193      1.0  0.15000  0.57274  0.82856  1.0000
  C   C194      1.0  0.11943  0.55597  0.82268  1.0000
  C   C195      1.0  0.13160  0.58809  0.83049  1.0000
  C   C196      1.0  0.14431  0.60534  0.82740  1.0000
  C   C197      1.0  0.11985  0.50917  0.86160  1.0000
  H   H218      1.0  0.15184  0.63281  0.83497  1.0000
  H   H219      1.0  0.13637  0.56423  0.77608  1.0000
  H   H220      1.0  0.12251  0.57535  0.77759  1.0000
  H   H221      1.0  0.14545  0.58723  0.78086  1.0000
  H   H222      1.0  0.16162  0.58456  0.82364  1.0000
  H   H223      1.0  0.15183  0.56146  0.81951  1.0000
  H   H224      1.0  0.14998  0.57154  0.85169  1.0000
  H   H225      1.0  0.10678  0.55496  0.81401  1.0000
  H   H226      1.0  0.12150  0.54511  0.81244  1.0000
  H   H227      1.0  0.11848  0.55321  0.84540  1.0000
  H   H228      1.0  0.15591  0.60795  0.81619  1.0000
  H   H229      1.0  0.02859  0.49434  0.51488  1.0000
  C   C198      1.0  0.15563  0.71516  0.63153  1.0000
  N   N14       1.0  0.13674  0.61699  0.94834  1.0000
  C   C199      1.0  0.14449  0.62618  0.92268  1.0000
  H   H230      1.0  0.07971  0.60115  0.91589  1.0000
  H   H231      1.0  0.12828  0.63644  0.96182  1.0000
  C   C200      1.0  0.11887  0.60381  0.94168  1.0000
  H   H232      1.0  0.99829  0.55180  0.98446  1.0000
  C   C201      1.0  0.15596  0.70148  0.61544  1.0000
  C   C202      1.0  0.10528  0.50419  0.90627  1.0000
  H   H233      1.0  0.14948  0.64038  0.97443  1.0000
  S   S56       1.0  0.08538  0.50272  0.98695  1.0000
  C   C203      1.0  0.09907  0.57837  0.52555  1.0000
  S   S57       1.0  0.12174  0.64783  0.53090  1.0000
  C   C204      1.0  0.10222  0.56354  0.52819  1.0000
  H   H234      1.0  0.05751  0.55919  0.49938  1.0000
  H   H235      1.0  0.10321  0.59897  0.86667  1.0000
  Fe  Fe31      1.0  0.10506  0.61907  0.52923  1.0000
  H   H236      1.0  0.16171  0.61978  0.96472  1.0000
  H   H237      1.0  0.16166  0.51502  0.91150  1.0000
  S   S58       1.0  0.11570  0.59906  0.53297  1.0000
  H   H238      1.0  0.15034  0.49569  0.86948  1.0000
  C   C205      1.0  0.12736  0.50299  0.61842  1.0000
  H   H239      1.0  0.14706  0.72102  0.62502  1.0000
  H   H240      1.0  0.09165  0.53571  0.52245  1.0000
  C   C206      1.0  0.16648  0.69348  0.62409  1.0000
  H   H241      1.0  0.21183  0.57857  0.67958  1.0000
  C   C207      1.0  0.22384  0.52445  0.76356  1.0000
  H   H242      1.0  0.11478  0.56479  0.53584  1.0000
  C   C208      1.0  0.11763  0.51522  0.88814  1.0000
  C   C209      1.0  0.11641  0.56058  0.61353  1.0000
  H   H243      1.0  0.10967  0.59784  0.65895  1.0000
  C   C210      1.0  0.11845  0.54607  0.62329  1.0000
  H   H244      1.0  0.13033  0.61090  0.59130  1.0000
  C   C211      1.0  0.22029  0.59737  0.72865  1.0000
  C   C212      1.0  0.12843  0.56052  0.66853  1.0000
  C   C213      1.0  0.11992  0.57541  0.63129  1.0000
  H   H245      1.0  0.09192  0.56046  0.94715  1.0000
  H   H246      1.0  0.11219  0.56010  0.59183  1.0000
  H   H247      1.0  0.14956  0.50560  0.95709  1.0000
  H   H248      1.0  0.12595  0.53475  0.65826  1.0000
  C   C214      1.0  0.13638  0.62989  0.96929  1.0000
  H   H249      1.0  0.20913  0.50446  0.73271  1.0000
  H   H250      1.0  0.14755  0.69663  0.59675  1.0000
  C   C215      1.0  0.11917  0.60378  0.64256  1.0000
  C   C216      1.0  0.13076  0.50292  0.64755  1.0000
  N   N15       1.0  0.11783  0.59070  0.62038  1.0000
  H   H251      1.0  0.13803  0.50745  0.60457  1.0000
  S   S59       1.0  0.08815  0.61986  0.49298  1.0000
  S   S60       1.0  0.13144  0.67042  0.97682  1.0000
  S   S61       1.0  0.09193  0.50568  0.49856  1.0000
  S   S62       1.0  0.15198  0.50201  0.77273  1.0000
  H   H252      1.0  0.14943  0.59981  0.94539  1.0000
  H   H253      1.0  0.13071  0.59056  0.58239  1.0000
  C   C217      1.0  0.13148  0.59939  0.60038  1.0000
  H   H254      1.0  0.11653  0.61460  0.63394  1.0000
  H   H255      1.0  0.99471  0.53074  0.97039  1.0000
  C   C218      1.0  0.09608  0.57398  0.94187  1.0000
  C   C219      1.0  0.08405  0.57945  0.93048  1.0000
  H   H256      1.0  0.11552  0.53480  0.60942  1.0000
  H   H257      1.0  0.20338  0.55505  0.74545  1.0000
  H   H258      1.0  0.09834  0.59658  0.59870  1.0000
  Fe  Fe32      1.0  0.06495  0.50346  0.49967  1.0000
  H   H259      1.0  0.13338  0.56053  0.68976  1.0000
  H   H260      1.0  0.10386  0.50909  0.92659  1.0000
  C   C220      1.0  0.10066  0.58522  0.60555  1.0000
  H   H261      1.0  0.19613  0.57138  0.75223  1.0000
  H   H262      1.0  0.09001  0.57735  0.61912  1.0000
  H   H263      1.0  0.14425  0.61685  0.90585  1.0000
  C   C221      1.0  0.14439  0.49656  0.93939  1.0000
  H   H264      1.0  0.14392  0.50715  0.65577  1.0000
  C   C222      1.0  0.98985  0.57797  0.51657  1.0000
  H   H265      1.0  0.99418  0.61839  0.53553  1.0000
  H   H266      1.0  0.21929  0.54776  0.71509  1.0000
  C   C223      1.0  0.14838  0.60955  0.96018  1.0000
  H   H267      1.0  0.12649  0.50046  0.98415  1.0000
  H   H268      1.0  0.22677  0.60535  0.71071  1.0000
  C   C224      1.0  0.11712  0.49640  0.66571  1.0000
  C   C225      1.0  0.23282  0.57606  0.72052  1.0000
  C   C226      1.0  0.11032  0.49681  0.60696  1.0000
  H   H269      1.0  0.23382  0.76862  0.76448  1.0000
  C   C227      1.0  0.23164  0.55900  0.71587  1.0000
  S   S63       1.0  0.10696  0.49551  0.56968  1.0000
  C   C228      1.0  0.23607  0.50877  0.73476  1.0000
  S   S64       1.0  0.12059  0.49289  0.70171  1.0000
  Fe  Fe33      1.0  0.45360  0.07832  0.04498  1.0000
  S   S65       1.0  0.45225  0.10320  0.03178  1.0000
  C   C229      1.0  0.47657  0.36828  0.12286  1.0000
  C   C230      1.0  0.43117  0.48611  0.47109  1.0000
  S   S66       1.0  0.38634  0.44108  0.00717  1.0000
  Fe  Fe34      1.0  0.47146  0.11625  0.06815  1.0000
  H   H270      1.0  0.48385  0.24587  0.28079  1.0000
  H   H271      1.0  0.43611  0.06210  0.99007  1.0000
  H   H272      1.0  0.45450  0.05040  0.13659  1.0000
  S   S67       1.0  0.47104  0.09116  0.08277  1.0000
  H   H273      1.0  0.42935  0.05294  0.11633  1.0000
  H   H274      1.0  0.42093  0.38869  0.11899  1.0000
  C   C231      1.0  0.39656  0.42787  0.07596  1.0000
  S   S68       1.0  0.47547  0.08207  0.01745  1.0000
  H   H275      1.0  0.37862  0.40129  0.08003  1.0000
  C   C232      1.0  0.41530  0.09166  0.13963  1.0000
  C   C233      1.0  0.48054  0.35957  0.17044  1.0000
  H   H276      1.0  0.48312  0.31094  0.41185  1.0000
  Fe  Fe35      1.0  0.38117  0.46556  0.00781  1.0000
  S   S69       1.0  0.33324  0.47814  0.43746  1.0000
  C   C234      1.0  0.48122  0.31631  0.43152  1.0000
  H   H277      1.0  0.43093  0.08471  0.07858  1.0000
  S   S70       1.0  0.33929  0.47435  0.07101  1.0000
  S   S71       1.0  0.47822  0.42053  0.48704  1.0000
  H   H278      1.0  0.40092  0.39095  0.08976  1.0000
  C   C235      1.0  0.43387  0.02680  0.02370  1.0000
  H   H279      1.0  0.40519  0.41926  0.46137  1.0000
  H   H280      1.0  0.39337  0.41085  0.00586  1.0000
  N   N16       1.0  0.41914  0.08482  0.45709  1.0000
  C   C236      1.0  0.40629  0.06498  0.11264  1.0000
  Fe  Fe36      1.0  0.47162  0.38438  0.05467  1.0000
  C   C237      1.0  0.45168  0.46762  0.48390  1.0000
  S   S72       1.0  0.46307  0.37217  0.09708  1.0000
  H   H281      1.0  0.42162  0.47351  0.47861  1.0000
  S   S73       1.0  0.42882  0.05366  0.05070  1.0000
  H   H282      1.0  0.45566  0.43371  0.11126  1.0000
  S   S74       1.0  0.46802  0.13452  0.10064  1.0000
  C   C238      1.0  0.40486  0.00055  0.04648  1.0000
  C   C239      1.0  0.33491  0.48601  0.40270  1.0000
  C   C240      1.0  0.42690  0.43399  0.08173  1.0000
  C   C241      1.0  0.42225  0.45323  0.00914  1.0000
  C   C242      1.0  0.42139  0.05637  0.46259  1.0000
  H   H283      1.0  0.47560  0.15691  0.44354  1.0000
  H   H284      1.0  0.41545  0.09359  0.08364  1.0000
  H   H285      1.0  0.41339  0.08587  0.16066  1.0000
  C   C243      1.0  0.42283  0.41629  0.08726  1.0000
  C   C244      1.0  0.42110  0.41961  0.00794  1.0000
  H   H286      1.0  0.32647  0.46778  0.12657  1.0000
  C   C245      1.0  0.42888  0.00912  0.01608  1.0000
  C   C246      1.0  0.47041  0.36321  0.14971  1.0000
  H   H287      1.0  0.43548  0.48385  0.45031  1.0000
  H   H288      1.0  0.47489  0.10297  0.16890  1.0000
  H   H289      1.0  0.42229  0.09702  0.41713  1.0000
  C   C247      1.0  0.47586  0.14971  0.15385  1.0000
  H   H290      1.0  0.45769  0.36204  0.15456  1.0000
  H   H291      1.0  0.45536  0.30250  0.05219  1.0000
  C   C248      1.0  0.32088  0.48820  0.38983  1.0000
  H   H292      1.0  0.44860  0.32865  0.05871  1.0000
  C   C249      1.0  0.48006  0.31574  0.48211  1.0000
  C   C250      1.0  0.43852  0.06400  0.12854  1.0000
  C   C251      1.0  0.47988  0.14002  0.13338  1.0000
  H   H293      1.0  0.43628  0.00568  0.00118  1.0000
  H   H294      1.0  0.46138  0.36081  0.36622  1.0000
  H   H295      1.0  0.46653  0.37516  0.41362  1.0000
  H   H296      1.0  0.42463  0.03269  0.46730  1.0000
  H   H297      1.0  0.40887  0.05793  0.09480  1.0000
  H   H298      1.0  0.45870  0.06911  0.41148  1.0000
  H   H299      1.0  0.45735  0.44518  0.48054  1.0000
  H   H300      1.0  0.42048  0.40662  0.00731  1.0000
  H   H301      1.0  0.42283  0.46623  0.00970  1.0000
  C   C252      1.0  0.33192  0.48171  0.12414  1.0000
  Fe  Fe37      1.0  0.35763  0.48078  0.03486  1.0000
  H   H302      1.0  0.39386  0.08493  0.45669  1.0000
  C   C253      1.0  0.43718  0.43399  0.00971  1.0000
  C   C254      1.0  0.43643  0.07969  0.13207  1.0000
  C   C255      1.0  0.44218  0.04945  0.43816  1.0000
  H   H303      1.0  0.43306  0.40920  0.13723  1.0000
  C   C256      1.0  0.41389  0.43961  0.07644  1.0000
  Fe  Fe38      1.0  0.48230  0.39594  0.48557  1.0000
  H   H304      1.0  0.40285  0.05640  0.13090  1.0000
  H   H305      1.0  0.39421  0.06535  0.46839  1.0000
  H   H306      1.0  0.44823  0.04072  0.43420  1.0000
  H   H307      1.0  0.44017  0.46107  0.47056  1.0000
  H   H308      1.0  0.46555  0.31699  0.99646  1.0000
  H   H309      1.0  0.47565  0.30547  0.03794  1.0000
  C   C257      1.0  0.48265  0.12125  0.42843  1.0000
  C   C258      1.0  0.47925  0.14805  0.43180  1.0000
  H   H310      1.0  0.23813  0.47932  0.22226  1.0000
  C   C259      1.0  0.48492  0.15412  0.18017  1.0000
  H   H311      1.0  0.36019  0.48719  0.39636  1.0000
  C   C260      1.0  0.46458  0.09199  0.15801  1.0000
  C   C261      1.0  0.40618  0.43886  0.00770  1.0000
  C   C262      1.0  0.47670  0.37279  0.40411  1.0000
  Fe  Fe39      1.0  0.35582  0.48384  0.46935  1.0000
  H   H312      1.0  0.30137  0.46367  0.46982  1.0000
  H   H313      1.0  0.46562  0.15376  0.14935  1.0000
  C   C263      1.0  0.45020  0.09381  0.14643  1.0000
  H   H314      1.0  0.46835  0.33914  0.07883  1.0000
  C   C264      1.0  0.48524  0.15225  0.40449  1.0000
  C   C265      1.0  0.47791  0.13256  0.44402  1.0000
  C   C266      1.0  0.40889  0.42635  0.48131  1.0000
  C   C267      1.0  0.47382  0.36466  0.37714  1.0000
  C   C268      1.0  0.40572  0.42206  0.00693  1.0000
  C   C269      1.0  0.42412  0.03150  0.04227  1.0000
  H   H315      1.0  0.48603  0.21121  0.22390  1.0000
  H   H316      1.0  0.45030  0.10656  0.14818  1.0000
  H   H317      1.0  0.39611  0.06994  0.43175  1.0000
  H   H318      1.0  0.43713  0.10472  0.09809  1.0000
  C   C270      1.0  0.43327  0.40059  0.11955  1.0000
  C   C271      1.0  0.44064  0.07700  0.43107  1.0000
  N   N17       1.0  0.43623  0.40979  0.09275  1.0000
  C   C272      1.0  0.43532  0.39743  0.06982  1.0000
  C   C273      1.0  0.45412  0.42376  0.09464  1.0000
  H   H319      1.0  0.43757  0.40387  0.04930  1.0000
  H   H320      1.0  0.44523  0.39226  0.07321  1.0000
  H   H321      1.0  0.42260  0.38600  0.06788  1.0000
  H   H322      1.0  0.45784  0.43030  0.07431  1.0000
  H   H323      1.0  0.46380  0.41853  0.09985  1.0000
  H   H324      1.0  0.48161  0.16143  0.19579  1.0000
  H   H325      1.0  0.44003  0.44369  0.08058  1.0000
  H   H326      1.0  0.41723  0.45306  0.07155  1.0000
  C   C274      1.0  0.33907  0.48861  0.09859  1.0000
  H   H327      1.0  0.41165  0.05252  0.47810  1.0000
  H   H328      1.0  0.39461  0.06679  0.10559  1.0000
  H   H329      1.0  0.44682  0.31556  0.01379  1.0000
  C   C275      1.0  0.41435  0.99586  0.02736  1.0000
  H   H330      1.0  0.43920  0.10871  0.44334  1.0000
  H   H331      1.0  0.41876  0.10921  0.44539  1.0000
  S   S75       1.0  0.35381  0.46208  0.99828  1.0000
  C   C276      1.0  0.40962  0.01826  0.05362  1.0000
  Fe  Fe40      1.0  0.46667  0.41037  0.01472  1.0000
  S   S76       1.0  0.45342  0.38105  0.01707  1.0000
  C   C277      1.0  0.40502  0.40467  0.08653  1.0000
  C   C278      1.0  0.46600  0.07630  0.15483  1.0000
  H   H332      1.0  0.46422  0.34952  0.04906  1.0000
  C   C279      1.0  0.40002  0.07585  0.45327  1.0000
  H   H333      1.0  0.44506  0.03678  0.01484  1.0000
  H   H334      1.0  0.48531  0.29747  0.45645  1.0000
  H   H335      1.0  0.32676  0.48717  0.16646  1.0000
  N   N18       1.0  0.42128  0.08184  0.11986  1.0000
  C   C280      1.0  0.42508  0.10054  0.43985  1.0000
  S   S77       1.0  0.46929  0.12757  0.47802  1.0000
  S   S78       1.0  0.45712  0.43192  0.01169  1.0000
  H   H336      1.0  0.44357  0.39611  0.12465  1.0000
  Fe  Fe41      1.0  0.47554  0.10791  0.00621  1.0000
  H   H337      1.0  0.44617  0.08934  0.42102  1.0000
  C   C281      1.0  0.42887  0.04492  0.45671  1.0000
  C   C282      1.0  0.46270  0.33674  0.05705  1.0000
  C   C283      1.0  0.42695  0.07274  0.44982  1.0000
  C   C284      1.0  0.42636  0.09166  0.09394  1.0000
  C   C285      1.0  0.43762  0.45078  0.01013  1.0000
  C   C286      1.0  0.46075  0.32405  0.01126  1.0000
  H   H338      1.0  0.47505  0.31388  0.07241  1.0000
  H   H339      1.0  0.38658  0.43223  0.07082  1.0000
  S   S79       1.0  0.38400  0.48241  0.04600  1.0000
  H   H340      1.0  0.47557  0.35566  0.19093  1.0000
  C   C287      1.0  0.44805  0.06545  0.42539  1.0000
  C   C288      1.0  0.46915  0.31185  0.05079  1.0000
  C   C289      1.0  0.47754  0.33081  0.43162  1.0000
  H   H341      1.0  0.40289  0.09184  0.13213  1.0000
  Fe  Fe42      1.0  0.47501  0.38097  0.99057  1.0000
  N   N19       1.0  0.47081  0.32837  0.03849  1.0000
  C   C290      1.0  0.34939  0.48903  0.38700  1.0000
  H   H342      1.0  0.46129  0.33600  0.00114  1.0000
  H   H343      1.0  0.42452  0.10560  0.14221  1.0000
  H   H344      1.0  0.44997  0.46200  0.01142  1.0000
  C   C291      1.0  0.45306  0.06239  0.13994  1.0000
  S   S80       1.0  0.48337  0.41340  0.05373  1.0000
  H   H345      1.0  0.40190  0.02170  0.06787  1.0000
  H   H346      1.0  0.47238  0.34920  0.45575  1.0000
  C   C292      1.0  0.39213  0.41042  0.08096  1.0000
  H   H347      1.0  0.39208  0.43941  0.47467  1.0000
  H   H348      1.0  0.47736  0.07508  0.16326  1.0000
  S   S81       1.0  0.48266  0.35166  0.32963  1.0000
  C   C293      1.0  0.48245  0.30878  0.45669  1.0000
  S   S82       1.0  0.38294  0.48636  0.46379  1.0000
  H   H349      1.0  0.48166  0.10926  0.43738  1.0000
  H   H350      1.0  0.30953  0.48577  0.40157  1.0000
  H   H351      1.0  0.47661  0.33667  0.41198  1.0000
  C   C294      1.0  0.47513  0.33788  0.45685  1.0000
  C   C295      1.0  0.47635  0.33060  0.48292  1.0000
  H   H352      1.0  0.48613  0.16420  0.39550  1.0000
  H   H353      1.0  0.38093  0.49243  0.10869  1.0000
  H   H354      1.0  0.48656  0.99427  0.01169  1.0000
  C   C296      1.0  0.48691  0.36165  0.36402  1.0000
  C   C297      1.0  0.42370  0.09073  0.48680  1.0000
  Fe  Fe43      1.0  0.44642  0.07337  0.53885  1.0000
  S   S83       1.0  0.45260  0.10184  0.54791  1.0000
  S   S84       1.0  0.41974  0.05044  0.53969  1.0000
  H   H355      1.0  0.45539  0.35458  0.73986  1.0000
  C   C298      1.0  0.31063  0.47051  0.59299  1.0000
  H   H356      1.0  0.45923  0.36079  0.69346  1.0000
  H   H357      1.0  0.47756  0.14561  0.96201  1.0000
  C   C299      1.0  0.48476  0.14747  0.69063  1.0000
  H   H358      1.0  0.42132  0.45109  0.55307  1.0000
  S   S85       1.0  0.46866  0.07452  0.56646  1.0000
  H   H359      1.0  0.48337  0.45768  0.51235  1.0000
  H   H360      1.0  0.27685  0.45893  0.51809  1.0000
  C   C300      1.0  0.39767  0.99715  0.53478  1.0000
  S   S86       1.0  0.39651  0.46108  0.52599  1.0000
  C   C301      1.0  0.42597  0.49122  0.93180  1.0000
  H   H361      1.0  0.43795  0.09781  0.49025  1.0000
  C   C302      1.0  0.46023  0.38515  0.76295  1.0000
  C   C303      1.0  0.46027  0.39583  0.66006  1.0000
  H   H362      1.0  0.43475  0.43133  0.53943  1.0000
  C   C304      1.0  0.41149  0.46020  0.93845  1.0000
  H   H363      1.0  0.46782  0.07417  0.95227  1.0000
  H   H364      1.0  0.36292  0.45419  0.92825  1.0000
  C   C305      1.0  0.41787  0.44431  0.53288  1.0000
  H   H365      1.0  0.44270  0.03466  0.52275  1.0000
  H   H366      1.0  0.43939  0.09546  0.94136  1.0000
  N   N20       1.0  0.38052  0.44262  0.91950  1.0000
  H   H367      1.0  0.43225  0.48400  0.52858  1.0000
  H   H368      1.0  0.46667  0.31602  0.53514  1.0000
  H   H369      1.0  0.31845  0.45352  0.61660  1.0000
  H   H370      1.0  0.44675  0.07187  0.84975  1.0000
  Fe  Fe44      1.0  0.46986  0.38693  0.54620  1.0000
  S   S87       1.0  0.46408  0.41042  0.55154  1.0000
  S   S88       1.0  0.46645  0.36603  0.57860  1.0000
  H   H371      1.0  0.37051  0.44675  0.95815  1.0000
  N   N21       1.0  0.47378  0.33842  0.50931  1.0000
  C   C306      1.0  0.30438  0.45948  0.49052  1.0000
  H   H372      1.0  0.42829  0.03720  0.92429  1.0000
  H   H373      1.0  0.41343  0.04545  0.93658  1.0000
  H   H374      1.0  0.48093  0.33900  0.91731  1.0000
  S   S89       1.0  0.47899  0.11149  0.95888  1.0000
  H   H375      1.0  0.46308  0.99870  0.52278  1.0000
  Fe  Fe45      1.0  0.46885  0.10718  0.50952  1.0000
  C   C307      1.0  0.42553  0.43308  0.52521  1.0000
  C   C308      1.0  0.48632  0.13687  0.88522  1.0000
  C   C309      1.0  0.38290  0.42711  0.92883  1.0000
  H   H376      1.0  0.29013  0.48314  0.92615  1.0000
  S   S90       1.0  0.35562  0.48287  0.92497  1.0000
  C   C310      1.0  0.37485  0.43961  0.88941  1.0000
  C   C311      1.0  0.46757  0.38660  0.71421  1.0000
  C   C312      1.0  0.48140  0.12764  0.93387  1.0000
  C   C313      1.0  0.48005  0.14309  0.94075  1.0000
  S   S91       1.0  0.46076  0.07882  0.49911  1.0000
  C   C314      1.0  0.48178  0.15531  0.91998  1.0000
  C   C315      1.0  0.47211  0.14173  0.66847  1.0000
  C   C316      1.0  0.47863  0.36808  0.61078  1.0000
  H   H377      1.0  0.41927  0.07973  0.50135  1.0000
  H   H378      1.0  0.39357  0.42568  0.91792  1.0000
  C   C317      1.0  0.36650  0.44377  0.93562  1.0000
  C   C318      1.0  0.29789  0.48914  0.88396  1.0000
  S   S92       1.0  0.35347  0.47094  0.51133  1.0000
  H   H379      1.0  0.45353  0.34319  0.52840  1.0000
  H   H380      1.0  0.38553  0.43999  0.87630  1.0000
  C   C319      1.0  0.48506  0.15238  0.89214  1.0000
  C   C320      1.0  0.46118  0.37414  0.69153  1.0000
  H   H381      1.0  0.48121  0.30927  0.50077  1.0000
  C   C321      1.0  0.39446  0.00039  0.62740  1.0000
  H   H382      1.0  0.45777  0.39934  0.63921  1.0000
  H   H383      1.0  0.43553  0.01580  0.58403  1.0000
  C   C322      1.0  0.30718  0.47520  0.56637  1.0000
  H   H384      1.0  0.44217  0.11196  0.89972  1.0000
  N   N22       1.0  0.30436  0.47128  0.51386  1.0000
  H   H385      1.0  0.28379  0.47491  0.49146  1.0000
  S   S93       1.0  0.42967  0.40893  0.48905  1.0000
  H   H386      1.0  0.47237  0.36105  0.76627  1.0000
  C   C323      1.0  0.44428  0.09281  0.87209  1.0000
  C   C324      1.0  0.42735  0.00679  0.52224  1.0000
  C   C325      1.0  0.48112  0.48172  0.51985  1.0000
  H   H387      1.0  0.42690  0.03741  0.60550  1.0000
  H   H388      1.0  0.31028  0.47799  0.61141  1.0000
  C   C326      1.0  0.44331  0.06684  0.89374  1.0000
  H   H389      1.0  0.48200  0.22105  0.67883  1.0000
  N   N23       1.0  0.44017  0.06254  0.94557  1.0000
  H   H390      1.0  0.42445  0.03704  0.96063  1.0000
  C   C327      1.0  0.39631  0.45910  0.92361  1.0000
  C   C328      1.0  0.31269  0.45188  0.54559  1.0000
  H   H391      1.0  0.46263  0.38151  0.78449  1.0000
  H   H392      1.0  0.47752  0.36090  0.73031  1.0000
  C   C329      1.0  0.44206  0.09914  0.89799  1.0000
  H   H393      1.0  0.46234  0.39899  0.76447  1.0000
  C   C330      1.0  0.48324  0.37935  0.87809  1.0000
  H   H394      1.0  0.46390  0.12801  0.62814  1.0000
  H   H395      1.0  0.46088  0.14449  0.66960  1.0000
  H   H396      1.0  0.46515  0.34086  0.61934  1.0000
  C   C331      1.0  0.48591  0.36625  0.86329  1.0000
  C   C332      1.0  0.43696  0.07027  0.97165  1.0000
  Fe  Fe46      1.0  0.38162  0.47589  0.50723  1.0000
  H   H397      1.0  0.24517  0.48506  0.82451  1.0000
  H   H398      1.0  0.44635  0.37723  0.75685  1.0000
  H   H399      1.0  0.48358  0.39053  0.86715  1.0000
  C   C333      1.0  0.40573  0.44673  0.51482  1.0000
  H   H400      1.0  0.45696  0.05393  0.96928  1.0000
  C   C334      1.0  0.46642  0.40834  0.68181  1.0000
  H   H401      1.0  0.48358  0.20111  0.67322  1.0000
  C   C335      1.0  0.41668  0.02843  0.53437  1.0000
  C   C336      1.0  0.43013  0.02432  0.52613  1.0000
  S   S94       1.0  0.47370  0.36058  0.95726  1.0000
  S   S95       1.0  0.39227  0.48802  0.97943  1.0000
  H   H402      1.0  0.43786  0.00387  0.51576  1.0000
  H   H403      1.0  0.47780  0.38820  0.91787  1.0000
  Fe  Fe47      1.0  0.45304  0.40507  0.50712  1.0000
  C   C337      1.0  0.31530  0.45675  0.59595  1.0000
  H   H404      1.0  0.41237  0.44909  0.94777  1.0000
  H   H405      1.0  0.48067  0.16720  0.92559  1.0000
  H   H406      1.0  0.37051  0.44946  0.88159  1.0000
  H   H407      1.0  0.33085  0.48924  0.51095  1.0000
  C   C338      1.0  0.45678  0.06106  0.95001  1.0000
  C   C339      1.0  0.40040  0.01473  0.53841  1.0000
  C   C340      1.0  0.41936  0.02365  0.60867  1.0000
  C   C341      1.0  0.44108  0.07291  0.92053  1.0000
  H   H408      1.0  0.38988  0.01773  0.54469  1.0000
  C   C342      1.0  0.39661  0.47485  0.91340  1.0000
  H   H409      1.0  0.36363  0.42680  0.88542  1.0000
  C   C343      1.0  0.41411  0.99368  0.59934  1.0000
  H   H410      1.0  0.35404  0.48401  0.65593  1.0000
  H   H411      1.0  0.44585  0.10060  0.85376  1.0000
  C   C344      1.0  0.44045  0.08941  0.92191  1.0000
  C   C345      1.0  0.31773  0.48891  0.50869  1.0000
  H   H412      1.0  0.41805  0.09979  0.49341  1.0000
  H   H413      1.0  0.40075  0.02775  0.63316  1.0000
  H   H414      1.0  0.45286  0.36912  0.64788  1.0000
  C   C346      1.0  0.47378  0.13234  0.64488  1.0000
  C   C347      1.0  0.41129  0.49061  0.91729  1.0000
  C   C348      1.0  0.44484  0.07666  0.86993  1.0000
  H   H415      1.0  0.45950  0.05406  0.93233  1.0000
  C   C349      1.0  0.47611  0.46523  0.50751  1.0000
  N   N24       1.0  0.47156  0.38222  0.74266  1.0000
  C   C350      1.0  0.42600  0.04482  0.94150  1.0000
  C   C351      1.0  0.47688  0.00314  0.52191  1.0000
  C   C352      1.0  0.47501  0.35328  0.62690  1.0000
  Fe  Fe48      1.0  0.47624  0.10332  0.57275  1.0000
  H   H416      1.0  0.38573  0.42778  0.95183  1.0000
  C   C353      1.0  0.30791  0.46591  0.54182  1.0000
  H   H417      1.0  0.44423  0.05459  0.89110  1.0000
  H   H418      1.0  0.35450  0.43146  0.93417  1.0000
  H   H419      1.0  0.37101  0.41488  0.92473  1.0000
  H   H420      1.0  0.45336  0.34434  0.49120  1.0000
  C   C354      1.0  0.46905  0.36387  0.74473  1.0000
  C   C355      1.0  0.46993  0.40382  0.70855  1.0000
  H   H421      1.0  0.31403  0.44431  0.52823  1.0000
  H   H422      1.0  0.32031  0.43696  0.57469  1.0000
  H   H423      1.0  0.26395  0.47153  0.80675  1.0000
  C   C356      1.0  0.45750  0.37876  0.66500  1.0000
  C   C357      1.0  0.26590  0.49018  0.87388  1.0000
  H   H424      1.0  0.38307  0.99707  0.63933  1.0000
  H   H425      1.0  0.42461  0.07172  0.96984  1.0000
  H   H426      1.0  0.48093  0.34289  0.66498  1.0000
  H   H427      1.0  0.44617  0.32358  0.50684  1.0000
  Fe  Fe49      1.0  0.36511  0.48567  0.97147  1.0000
  C   C358      1.0  0.47892  0.36344  0.92129  1.0000
  H   H428      1.0  0.38527  0.47526  0.90322  1.0000
  C   C359      1.0  0.40454  0.01814  0.62409  1.0000
  Fe  Fe50      1.0  0.48319  0.08155  0.52725  1.0000
  H   H429      1.0  0.47466  0.41397  0.72473  1.0000
  H   H430      1.0  0.34677  0.47710  0.86597  1.0000
  H   H431      1.0  0.46858  0.42162  0.67781  1.0000
  C   C360      1.0  0.48628  0.35697  0.51193  1.0000
  C   C361      1.0  0.47996  0.37807  0.90693  1.0000
  H   H432      1.0  0.28632  0.48476  0.80148  1.0000
  C   C362      1.0  0.48691  0.02065  0.52930  1.0000
  C   C363      1.0  0.42096  0.42385  0.49944  1.0000
  H   H433      1.0  0.31040  0.48892  0.88796  1.0000
  C   C364      1.0  0.27054  0.48642  0.90047  1.0000
  H   H434      1.0  0.48079  0.02908  0.53518  1.0000
  S   S96       1.0  0.48194  0.15937  0.71978  1.0000
  C   C365      1.0  0.45596  0.33732  0.50889  1.0000
  C   C366      1.0  0.31636  0.44748  0.57232  1.0000
  H   H435      1.0  0.48572  0.36299  0.53252  1.0000
  H   H436      1.0  0.44767  0.08322  0.97695  1.0000
  S   S97       1.0  0.45634  0.37989  0.50302  1.0000
  C   C367      1.0  0.28650  0.48593  0.90549  1.0000
  H   H437      1.0  0.48160  0.25934  0.76910  1.0000
  C   C368      1.0  0.28715  0.47173  0.51271  1.0000
  C   C369      1.0  0.27340  0.48490  0.80212  1.0000
  C   C370      1.0  0.48454  0.12463  0.90597  1.0000
  C   C371      1.0  0.42421  0.01145  0.59657  1.0000
  C   C372      1.0  0.48392  0.35439  0.65291  1.0000
  H   H438      1.0  0.47426  0.33627  0.55429  1.0000
  C   C373      1.0  0.41121  0.99306  0.52683  1.0000
  C   C374      1.0  0.45643  0.48450  0.49611  1.0000
  H   H439      1.0  0.48373  0.21441  0.73036  1.0000
  C   C375      1.0  0.48174  0.35041  0.90654  1.0000
  C   C376      1.0  0.47146  0.49127  0.51430  1.0000
  H   H440      1.0  0.43734  0.47661  0.95423  1.0000
  C   C377      1.0  0.48540  0.35187  0.87783  1.0000
  C   C378      1.0  0.42604  0.47606  0.94240  1.0000
  C   C379      1.0  0.47620  0.32986  0.53492  1.0000
  H   H441      1.0  0.31735  0.45950  0.48856  1.0000
  H   H442      1.0  0.30445  0.48650  0.56518  1.0000
  H   H443      1.0  0.29467  0.44591  0.49311  1.0000
  H   H444      1.0  0.35948  0.48767  0.60510  1.0000
  H   H445      1.0  0.26175  0.48397  0.91738  1.0000
  H   H446      1.0  0.28656  0.48176  0.52733  1.0000
  H   H447      1.0  0.27023  0.48776  0.78049  1.0000
  H   H448      1.0  0.25341  0.49049  0.87153  1.0000
  C   C380      1.0  0.34649  0.48935  0.87181  1.0000
  H   H449      1.0  0.48373  0.36495  0.49583  1.0000
  C   C381      1.0  0.46148  0.45824  0.48953  1.0000
  H   H450      1.0  0.48543  0.11264  0.90029  1.0000
  C   C382      1.0  0.40143  0.43780  0.48879  1.0000
  C   C383      1.0  0.43759  0.88169  0.38046  1.0000
  Fe  Fe51      1.0  0.40102  0.91800  0.04863  1.0000
  C   C384      1.0  0.35661  0.91851  0.28874  1.0000
  S   S98       1.0  0.42379  0.91327  0.06314  1.0000
  Fe  Fe52      1.0  0.36823  0.91786  0.06996  1.0000
  S   S99       1.0  0.36226  0.92807  0.02910  1.0000
  S   S100      1.0  0.35056  0.90975  0.10720  1.0000
  C   C385      1.0  0.36648  0.91817  0.24054  1.0000
  H   H451      1.0  0.43750  0.96082  0.99719  1.0000
  Fe  Fe53      1.0  0.39090  0.94662  0.03068  1.0000
  S   S101      1.0  0.40822  0.97390  0.01559  1.0000
  S   S102      1.0  0.37404  0.89751  0.04843  1.0000
  S   S103      1.0  0.39587  0.93790  0.07294  1.0000
  Fe  Fe54      1.0  0.44691  0.63543  0.23699  1.0000
  H   H452      1.0  0.37197  0.89862  0.29978  1.0000
  S   S104      1.0  0.42468  0.60887  0.22899  1.0000
  Fe  Fe55      1.0  0.46311  0.67566  0.24249  1.0000
  C   C386      1.0  0.41241  0.51630  0.10616  1.0000
  S   S105      1.0  0.45186  0.65640  0.20619  1.0000
  S   S106      1.0  0.45558  0.65431  0.27406  1.0000
  Fe  Fe56      1.0  0.29639  0.52130  0.24633  1.0000
  S   S107      1.0  0.26910  0.51856  0.23212  1.0000
  Fe  Fe57      1.0  0.33274  0.54987  0.26067  1.0000
  S   S108      1.0  0.34546  0.53210  0.25323  1.0000
  S   S109      1.0  0.34845  0.57827  0.27312  1.0000
  Fe  Fe58      1.0  0.32809  0.52233  0.21447  1.0000
  C   C387      1.0  0.30902  0.87065  0.07639  1.0000
  Fe  Fe59      1.0  0.32404  0.51276  0.27760  1.0000
  H   H453      1.0  0.27558  0.57348  0.31020  1.0000
  S   S110      1.0  0.31651  0.54145  0.22100  1.0000
  S   S111      1.0  0.31212  0.53136  0.28722  1.0000
  H   H454      1.0  0.28054  0.78154  0.31961  1.0000
  S   S112      1.0  0.46331  0.80667  0.20014  1.0000
  C   C388      1.0  0.36814  0.94133  0.20891  1.0000
  S   S113      1.0  0.46620  0.81504  0.26836  1.0000
  C   C389      1.0  0.41274  0.55830  0.18467  1.0000
  H   H455      1.0  0.25809  0.72815  0.25211  1.0000
  Fe  Fe60      1.0  0.45191  0.81902  0.23055  1.0000
  S   S114      1.0  0.42442  0.81575  0.22174  1.0000
  C   C390      1.0  0.27587  0.83532  0.01299  1.0000
  Fe  Fe61      1.0  0.34224  0.84880  0.24623  1.0000
  S   S115      1.0  0.33470  0.82022  0.25138  1.0000
  S   S116      1.0  0.35523  0.86126  0.20582  1.0000
  Fe  Fe62      1.0  0.33692  0.85408  0.30920  1.0000
  S   S117      1.0  0.32870  0.82574  0.31827  1.0000
  S   S118      1.0  0.34528  0.87812  0.33890  1.0000
  Fe  Fe63      1.0  0.35066  0.82772  0.29158  1.0000
  S   S119      1.0  0.36931  0.81671  0.30675  1.0000
  Fe  Fe64      1.0  0.31292  0.81989  0.27725  1.0000
  S   S120      1.0  0.28640  0.79765  0.26418  1.0000
  S   S121      1.0  0.35980  0.85611  0.28501  1.0000
  S   S122      1.0  0.31956  0.84836  0.26966  1.0000
  C   C391      1.0  0.46145  0.56284  0.48336  1.0000
  H   H456      1.0  0.48489  0.70031  0.28334  1.0000
  H   H457      1.0  0.43512  0.58459  0.37280  1.0000
  C   C392      1.0  0.40325  0.53272  0.14043  1.0000
  H   H458      1.0  0.25585  0.51787  0.28868  1.0000
  N   N25       1.0  0.45747  0.96525  0.02916  1.0000
  H   H459      1.0  0.31034  0.49480  0.35216  1.0000
  H   H460      1.0  0.28329  0.55549  0.22224  1.0000
  H   H461      1.0  0.29681  0.59976  0.25493  1.0000
  C   C393      1.0  0.26643  0.72402  0.29298  1.0000
  C   C394      1.0  0.37345  0.91163  0.21907  1.0000
  H   H462      1.0  0.32672  0.85148  0.06337  1.0000
  S   S123      1.0  0.39754  0.92731  0.00641  1.0000
  C   C395      1.0  0.41012  0.81705  0.24651  1.0000
  C   C396      1.0  0.41103  0.81276  0.27445  1.0000
  C   C397      1.0  0.39847  0.81272  0.29287  1.0000
  C   C398      1.0  0.38520  0.81733  0.28358  1.0000
  C   C399      1.0  0.38462  0.82207  0.25588  1.0000
  C   C400      1.0  0.39691  0.82174  0.23737  1.0000
  H   H463      1.0  0.42100  0.80886  0.28155  1.0000
  H   H464      1.0  0.39892  0.80892  0.31425  1.0000
  H   H465      1.0  0.37448  0.82565  0.24850  1.0000
  H   H466      1.0  0.39606  0.82497  0.21575  1.0000
  C   C401      1.0  0.25571  0.76790  0.25939  1.0000
  C   C402      1.0  0.26972  0.77852  0.27751  1.0000
  H   H467      1.0  0.25525  0.77155  0.23792  1.0000
  H   H468      1.0  0.47219  0.57276  0.47338  1.0000
  S   S124      1.0  0.45537  0.69859  0.24570  1.0000
  H   H469      1.0  0.45831  0.94293  0.04895  1.0000
  H   H470      1.0  0.25395  0.71369  0.29722  1.0000
  C   C403      1.0  0.37478  0.86263  0.40812  1.0000
  C   C404      1.0  0.24997  0.51939  0.24501  1.0000
  H   H471      1.0  0.48552  0.70684  0.20611  1.0000
  H   H472      1.0  0.38537  0.54932  0.18974  1.0000
  C   C405      1.0  0.39759  0.86376  0.47842  1.0000
  C   C406      1.0  0.46480  0.72188  0.24493  1.0000
  C   C407      1.0  0.43140  0.85729  0.13589  1.0000
  H   H473      1.0  0.46948  0.90397  0.01758  1.0000
  H   H474      1.0  0.37793  0.94053  0.16819  1.0000
  H   H475      1.0  0.45733  0.99001  0.02024  1.0000
  H   H476      1.0  0.33192  0.88854  0.01960  1.0000
  H   H477      1.0  0.30782  0.56256  0.27095  1.0000
  C   C408      1.0  0.40350  0.60140  0.24108  1.0000
  C   C409      1.0  0.39874  0.61079  0.26078  1.0000
  C   C410      1.0  0.38176  0.60377  0.27034  1.0000
  C   C411      1.0  0.36949  0.58742  0.26014  1.0000
  C   C412      1.0  0.37427  0.57825  0.24017  1.0000
  C   C413      1.0  0.39120  0.58515  0.23091  1.0000
  H   H478      1.0  0.40815  0.62331  0.26887  1.0000
  H   H479      1.0  0.37816  0.61094  0.28582  1.0000
  H   H480      1.0  0.36490  0.56586  0.23164  1.0000
  H   H481      1.0  0.39473  0.57784  0.21566  1.0000
  C   C414      1.0  0.34479  0.88546  0.43515  1.0000
  C   C415      1.0  0.35631  0.89861  0.41907  1.0000
  C   C416      1.0  0.35631  0.89607  0.38976  1.0000
  C   C417      1.0  0.34511  0.88026  0.37612  1.0000
  C   C418      1.0  0.33384  0.86698  0.39228  1.0000
  C   C419      1.0  0.33356  0.86966  0.42150  1.0000
  H   H482      1.0  0.36493  0.91088  0.42911  1.0000
  H   H483      1.0  0.36502  0.90650  0.37756  1.0000
  H   H484      1.0  0.32502  0.85480  0.38219  1.0000
  H   H485      1.0  0.32451  0.85941  0.43361  1.0000
  C   C420      1.0  0.35149  0.89566  0.13392  1.0000
  C   C421      1.0  0.33978  0.89152  0.15562  1.0000
  C   C422      1.0  0.34039  0.88072  0.17748  1.0000
  C   C423      1.0  0.35280  0.87396  0.17796  1.0000
  C   C424      1.0  0.36435  0.87795  0.15607  1.0000
  C   C425      1.0  0.36369  0.88865  0.13416  1.0000
  H   H486      1.0  0.33030  0.89686  0.15572  1.0000
  H   H487      1.0  0.33140  0.87782  0.19408  1.0000
  H   H488      1.0  0.37403  0.87287  0.15624  1.0000
  H   H489      1.0  0.37281  0.89169  0.11772  1.0000
  H   H490      1.0  0.44826  0.98144  0.05267  1.0000
  H   H491      1.0  0.42608  0.59881  0.29024  1.0000
  C   C426      1.0  0.42546  0.55632  0.16941  1.0000
  C   C427      1.0  0.42375  0.90289  0.00873  1.0000
  C   C428      1.0  0.43244  0.90676  0.03499  1.0000
  H   H492      1.0  0.45577  0.69138  0.34345  1.0000
  H   H493      1.0  0.34053  0.87379  0.07281  1.0000
  H   H494      1.0  0.25698  0.75460  0.33601  1.0000
  C   C429      1.0  0.48270  0.73198  0.24565  1.0000
  C   C430      1.0  0.37502  0.93457  0.18839  1.0000
  H   H495      1.0  0.29505  0.56358  0.29879  1.0000
  H   H496      1.0  0.35839  0.93910  0.24941  1.0000
  H   H497      1.0  0.37977  0.52897  0.10014  1.0000
  H   H498      1.0  0.30515  0.57143  0.22573  1.0000
  N   N26       1.0  0.36117  0.90872  0.26681  1.0000
  C   C431      1.0  0.43573  0.87362  0.35396  1.0000
  C   C432      1.0  0.44254  0.92211  0.46953  1.0000
  H   H499      1.0  0.38056  0.88907  0.44774  1.0000
  C   C433      1.0  0.24086  0.56181  0.24979  1.0000
  C   C434      1.0  0.46161  0.87476  0.29845  1.0000
  H   H500      1.0  0.47310  0.96346  0.06414  1.0000
  C   C435      1.0  0.24652  0.51859  0.27348  1.0000
  H   H501      1.0  0.28868  0.57809  0.21530  1.0000
  H   H502      1.0  0.28560  0.54695  0.27183  1.0000
  C   C436      1.0  0.39066  0.53533  0.15615  1.0000
  H   H503      1.0  0.37505  0.89972  0.22135  1.0000
  N   N27       1.0  0.44504  0.85115  0.14142  1.0000
  C   C437      1.0  0.24255  0.74760  0.29638  1.0000
  H   H504      1.0  0.45188  0.75518  0.24266  1.0000
  H   H505      1.0  0.45363  0.85245  0.09896  1.0000
  N   N28       1.0  0.43937  0.60984  0.13482  1.0000
  C   C438      1.0  0.44900  0.60457  0.11405  1.0000
  C   C439      1.0  0.44062  0.62722  0.12738  1.0000
  C   C440      1.0  0.44824  0.61139  0.16266  1.0000
  C   C441      1.0  0.42089  0.59755  0.13576  1.0000
  C   C442      1.0  0.41024  0.60025  0.15573  1.0000
  C   C443      1.0  0.41278  0.58308  0.11662  1.0000
  H   H506      1.0  0.42031  0.84744  0.31112  1.0000
  C   C444      1.0  0.39517  0.57205  0.11777  1.0000
  N   N29       1.0  0.38547  0.86681  0.45853  1.0000
  H   H507      1.0  0.44388  0.60435  0.09226  1.0000
  H   H508      1.0  0.46291  0.61387  0.11429  1.0000
  H   H509      1.0  0.44863  0.59159  0.11852  1.0000
  H   H510      1.0  0.43356  0.62654  0.10707  1.0000
  H   H511      1.0  0.42852  0.86866  0.29586  1.0000
  H   H512      1.0  0.40787  0.50590  0.08938  1.0000
  H   H513      1.0  0.46238  0.61972  0.16225  1.0000
  H   H514      1.0  0.44344  0.61757  0.17888  1.0000
  H   H515      1.0  0.44642  0.59844  0.17024  1.0000
  H   H516      1.0  0.41537  0.61110  0.17072  1.0000
  H   H517      1.0  0.41968  0.58003  0.10045  1.0000
  C   C445      1.0  0.46017  0.56110  0.00298  1.0000
  H   H518      1.0  0.44949  0.83941  0.29505  1.0000
  C   C446      1.0  0.45702  0.51198  0.48110  1.0000
  C   C447      1.0  0.46282  0.68922  0.32570  1.0000
  C   C448      1.0  0.24224  0.75258  0.26868  1.0000
  H   H519      1.0  0.38753  0.91662  0.28187  1.0000
  C   C449      1.0  0.43149  0.53896  0.01142  1.0000
  H   H520      1.0  0.48120  0.71140  0.11779  1.0000
  C   C450      1.0  0.44889  0.86924  0.34364  1.0000
  H   H521      1.0  0.36339  0.84346  0.46820  1.0000
  C   C451      1.0  0.31043  0.85502  0.00178  1.0000
  C   C452      1.0  0.33554  0.49575  0.34578  1.0000
  H   H522      1.0  0.35083  0.51204  0.07584  1.0000
  C   C453      1.0  0.48450  0.98190  0.00216  1.0000
  C   C454      1.0  0.36391  0.93333  0.23467  1.0000
  H   H523      1.0  0.48359  0.84020  0.08744  1.0000
  N   N30       1.0  0.44803  0.86181  0.31502  1.0000
  H   H524      1.0  0.43517  0.63284  0.14351  1.0000
  C   C455      1.0  0.47928  0.62824  0.37364  1.0000
  C   C456      1.0  0.39537  0.54779  0.17806  1.0000
  C   C457      1.0  0.40587  0.86981  0.12436  1.0000
  C   C458      1.0  0.43115  0.85708  0.29965  1.0000
  C   C459      1.0  0.45677  0.90375  0.01502  1.0000
  C   C460      1.0  0.45874  0.98259  0.03840  1.0000
  C   C461      1.0  0.37782  0.91986  0.19359  1.0000
  H   H525      1.0  0.44775  0.55825  0.04225  1.0000
  H   H526      1.0  0.44272  0.56180  0.45117  1.0000
  H   H527      1.0  0.43077  0.85106  0.27856  1.0000
  C   C462      1.0  0.47034  0.96609  0.00853  1.0000
  C   C463      1.0  0.33150  0.86502  0.05605  1.0000
  N   N31       1.0  0.31558  0.76647  0.27761  1.0000
  C   C464      1.0  0.31671  0.77351  0.24914  1.0000
  C   C465      1.0  0.31881  0.78093  0.29812  1.0000
  C   C466      1.0  0.32963  0.76063  0.28128  1.0000
  C   C467      1.0  0.29864  0.75192  0.28243  1.0000
  C   C468      1.0  0.28456  0.74604  0.26223  1.0000
  C   C469      1.0  0.29575  0.74329  0.30823  1.0000
  C   C470      1.0  0.26881  0.73219  0.26749  1.0000
  C   C471      1.0  0.27986  0.72957  0.31335  1.0000
  H   H528      1.0  0.46199  0.86950  0.27708  1.0000
  H   H529      1.0  0.30735  0.77939  0.24562  1.0000
  H   H530      1.0  0.32976  0.78400  0.24583  1.0000
  H   H531      1.0  0.31430  0.76327  0.23259  1.0000
  H   H532      1.0  0.30848  0.78564  0.29613  1.0000
  H   H533      1.0  0.33141  0.79217  0.29500  1.0000
  H   H534      1.0  0.31927  0.77709  0.32010  1.0000
  H   H535      1.0  0.32732  0.74928  0.26701  1.0000
  H   H536      1.0  0.34249  0.77118  0.27683  1.0000
  H   H537      1.0  0.33095  0.75682  0.30303  1.0000
  H   H538      1.0  0.28517  0.75219  0.24246  1.0000
  H   H539      1.0  0.30567  0.74727  0.32483  1.0000
  H   H540      1.0  0.47342  0.98076  0.46143  1.0000
  H   H541      1.0  0.27780  0.72335  0.33334  1.0000
  C   C472      1.0  0.45992  0.95636  0.05422  1.0000
  N   N32       1.0  0.38184  0.55002  0.32589  1.0000
  C   C473      1.0  0.38216  0.53785  0.30352  1.0000
  C   C474      1.0  0.36826  0.55598  0.31817  1.0000
  C   C475      1.0  0.39900  0.56502  0.32866  1.0000
  C   C476      1.0  0.41027  0.56835  0.35283  1.0000
  C   C477      1.0  0.40523  0.57643  0.30617  1.0000
  C   C478      1.0  0.42667  0.58230  0.35423  1.0000
  C   C479      1.0  0.42162  0.59033  0.30780  1.0000
  C   C480      1.0  0.43233  0.59324  0.33177  1.0000
  H   H542      1.0  0.39247  0.53337  0.30813  1.0000
  H   H543      1.0  0.43998  0.72292  0.24373  1.0000
  H   H544      1.0  0.38442  0.54384  0.28269  1.0000
  H   H545      1.0  0.36978  0.56149  0.29705  1.0000
  H   H546      1.0  0.35507  0.54507  0.31749  1.0000
  H   H547      1.0  0.36839  0.56615  0.33331  1.0000
  H   H548      1.0  0.40681  0.56031  0.37090  1.0000
  C   C481      1.0  0.34579  0.50660  0.09563  1.0000
  H   H549      1.0  0.38916  0.56120  0.10288  1.0000
  H   H550      1.0  0.44510  0.60393  0.33287  1.0000
  N   N33       1.0  0.28903  0.57233  0.25912  1.0000
  C   C482      1.0  0.30064  0.59067  0.26684  1.0000
  C   C483      1.0  0.29456  0.56087  0.27593  1.0000
  C   C484      1.0  0.29155  0.56921  0.22926  1.0000
  C   C485      1.0  0.27097  0.56897  0.26493  1.0000
  C   C486      1.0  0.26622  0.57016  0.29281  1.0000
  C   C487      1.0  0.25774  0.56477  0.24348  1.0000
  C   C488      1.0  0.43091  0.54377  0.48354  1.0000
  H   H551      1.0  0.36571  0.85815  0.36480  1.0000
  C   C489      1.0  0.40379  0.85836  0.14596  1.0000
  H   H552      1.0  0.30044  0.59370  0.28950  1.0000
  H   H553      1.0  0.31436  0.59370  0.26248  1.0000
  C   C490      1.0  0.25652  0.75827  0.31456  1.0000
  C   C491      1.0  0.46054  0.74885  0.24352  1.0000
  C   C492      1.0  0.45383  0.73049  0.24409  1.0000
  C   C493      1.0  0.27001  0.77356  0.30525  1.0000
  H   H554      1.0  0.39618  0.87464  0.11984  1.0000
  H   H555      1.0  0.31859  0.88027  0.09164  1.0000
  H   H556      1.0  0.43974  0.84376  0.18422  1.0000
  C   C494      1.0  0.33912  0.51071  0.14404  1.0000
  H   H557      1.0  0.36968  0.52607  0.30124  1.0000
  H   H558      1.0  0.46653  0.62119  0.38146  1.0000
  C   C495      1.0  0.39272  0.58903  0.15685  1.0000
  H   H559      1.0  0.38290  0.91446  0.17739  1.0000
  S   S125      1.0  0.34138  0.52543  0.17253  1.0000
  H   H560      1.0  0.34483  0.92034  0.28245  1.0000
  H   H561      1.0  0.34862  0.88348  0.24583  1.0000
  N   N34       1.0  0.48133  0.70163  0.32764  1.0000
  H   H562      1.0  0.42865  0.82642  0.15834  1.0000
  H   H563      1.0  0.39754  0.57458  0.28696  1.0000
  H   H564      1.0  0.28149  0.84755  0.05330  1.0000
  C   C496      1.0  0.46942  0.95064  0.99508  1.0000
  H   H565      1.0  0.45626  0.69052  0.30586  1.0000
  H   H566      1.0  0.33502  0.89453  0.25044  1.0000
  H   H567      1.0  0.42977  0.95522  0.03167  1.0000
  C   C497      1.0  0.39055  0.52597  0.09352  1.0000
  H   H568      1.0  0.39117  0.89090  0.48101  1.0000
  H   H569      1.0  0.37773  0.89508  0.26589  1.0000
  S   S126      1.0  0.47278  0.63480  0.23187  1.0000
  H   H570      1.0  0.46966  0.63452  0.33478  1.0000
  C   C498      1.0  0.44655  0.55328  0.02093  1.0000
  H   H571      1.0  0.45943  0.93806  0.99953  1.0000
  H   H572      1.0  0.47714  0.88444  0.40112  1.0000
  H   H573      1.0  0.42398  0.87117  0.34187  1.0000
  S   S127      1.0  0.41479  0.52912  0.03443  1.0000
  C   C499      1.0  0.34579  0.89220  0.26044  1.0000
  C   C500      1.0  0.34586  0.51756  0.11824  1.0000
  H   H574      1.0  0.35121  0.53146  0.11575  1.0000
  C   C501      1.0  0.37525  0.90467  0.27900  1.0000
  C   C502      1.0  0.46370  0.87316  0.36169  1.0000
  H   H575      1.0  0.36631  0.86875  0.41271  1.0000
  H   H576      1.0  0.40566  0.85089  0.43583  1.0000
  C   C503      1.0  0.44481  0.55665  0.47081  1.0000
  H   H577      1.0  0.47184  0.57206  0.01049  1.0000
  C   C504      1.0  0.48100  0.63577  0.34708  1.0000
  H   H578      1.0  0.35348  0.91137  0.30866  1.0000
  H   H579      1.0  0.34096  0.88491  0.27979  1.0000
  H   H580      1.0  0.29840  0.87487  0.07327  1.0000
  H   H581      1.0  0.45540  0.90944  0.05871  1.0000
  H   H582      1.0  0.36750  0.93140  0.29379  1.0000
  H   H583      1.0  0.42213  0.88409  0.09184  1.0000
  H   H584      1.0  0.38492  0.59130  0.17253  1.0000
  S   S128      1.0  0.47402  0.92829  0.44983  1.0000
  C   C505      1.0  0.42088  0.54382  0.14750  1.0000
  C   C506      1.0  0.37662  0.54016  0.35193  1.0000
  H   H585      1.0  0.41389  0.84333  0.16883  1.0000
  C   C507      1.0  0.37441  0.85665  0.38058  1.0000
  C   C508      1.0  0.47682  0.97162  0.47398  1.0000
  Fe  Fe65      1.0  0.47823  0.65684  0.20269  1.0000
  C   C509      1.0  0.38503  0.84862  0.37336  1.0000
  H   H586      1.0  0.37161  0.56617  0.13910  1.0000
  H   H587      1.0  0.46100  0.67547  0.32610  1.0000
  H   H588      1.0  0.36585  0.95271  0.20462  1.0000
  C   C510      1.0  0.47871  0.75915  0.17484  1.0000
  C   C511      1.0  0.44086  0.83814  0.16359  1.0000
  Fe  Fe66      1.0  0.39091  0.51210  0.48643  1.0000
  H   H589      1.0  0.43549  0.83258  0.10678  1.0000
  C   C512      1.0  0.28705  0.84689  0.03362  1.0000
  H   H590      1.0  0.45430  0.63672  0.12543  1.0000
  H   H591      1.0  0.40047  0.53802  0.08496  1.0000
  S   S129      1.0  0.30719  0.50134  0.23776  1.0000
  C   C513      1.0  0.45248  0.88563  0.39736  1.0000
  H   H592      1.0  0.42755  0.88520  0.38779  1.0000
  H   H593      1.0  0.43896  0.56448  0.17474  1.0000
  H   H594      1.0  0.33258  0.89747  0.05377  1.0000
  C   C514      1.0  0.46137  0.86619  0.15047  1.0000
  H   H595      1.0  0.47475  0.87872  0.30833  1.0000
  C   C515      1.0  0.44873  0.90666  0.03833  1.0000
  H   H596      1.0  0.37636  0.54863  0.36976  1.0000
  Fe  Fe67      1.0  0.39291  0.50465  0.01693  1.0000
  H   H597      1.0  0.36337  0.52946  0.34939  1.0000
  H   H598      1.0  0.41129  0.87112  0.47282  1.0000
  H   H599      1.0  0.38527  0.53380  0.35780  1.0000
  C   C516      1.0  0.39669  0.85273  0.42126  1.0000
  H   H600      1.0  0.24576  0.56741  0.32037  1.0000
  Fe  Fe68      1.0  0.36974  0.90840  0.00760  1.0000
  H   H601      1.0  0.46459  0.68171  0.15865  1.0000
  S   S130      1.0  0.36666  0.50407  0.00749  1.0000
  H   H602      1.0  0.41088  0.90223  0.00629  1.0000
  C   C517      1.0  0.43967  0.95523  0.01708  1.0000
  C   C518      1.0  0.39621  0.84675  0.39360  1.0000
  H   H603      1.0  0.23992  0.52074  0.20358  1.0000
  C   C519      1.0  0.47843  0.75895  0.24392  1.0000
  H   H604      1.0  0.45113  0.83339  0.16671  1.0000
  C   C520      1.0  0.30474  0.85718  0.02853  1.0000
  H   H605      1.0  0.46862  0.95822  0.46567  1.0000
  C   C521      1.0  0.42052  0.87514  0.10858  1.0000
  H   H606      1.0  0.35809  0.86076  0.45693  1.0000
  N   N35       1.0  0.31696  0.86980  0.04954  1.0000
  C   C522      1.0  0.44785  0.84295  0.11553  1.0000
  H   H607      1.0  0.33940  0.86597  0.03758  1.0000
  H   H608      1.0  0.43137  0.54306  0.13646  1.0000
  H   H609      1.0  0.40297  0.89300  0.44976  1.0000
  H   H610      1.0  0.30405  0.85794  0.08681  1.0000
  C   C523      1.0  0.46383  0.72774  0.17092  1.0000
  H   H611      1.0  0.46681  0.87546  0.13345  1.0000
  C   C524      1.0  0.46341  0.69418  0.16210  1.0000
  C   C525      1.0  0.36782  0.85781  0.46909  1.0000
  H   H612      1.0  0.41828  0.91820  0.48598  1.0000
  N   N36       1.0  0.39791  0.51965  0.11693  1.0000
  H   H613      1.0  0.44198  0.83620  0.33011  1.0000
  S   S131      1.0  0.47154  0.84598  0.22314  1.0000
  H   H614      1.0  0.25994  0.56330  0.22171  1.0000
  H   H615      1.0  0.46449  0.84855  0.32362  1.0000
  H   H616      1.0  0.38911  0.49804  0.14447  1.0000
  H   H617      1.0  0.47428  0.87033  0.35531  1.0000
  C   C526      1.0  0.45109  0.84583  0.31616  1.0000
  C   C527      1.0  0.23749  0.52018  0.22567  1.0000
  C   C528      1.0  0.41632  0.85214  0.15177  1.0000
  Fe  Fe69      1.0  0.48179  0.65486  0.26757  1.0000
  H   H618      1.0  0.47158  0.86198  0.15727  1.0000
  H   H619      1.0  0.45411  0.89229  0.41759  1.0000
  C   C529      1.0  0.43317  0.86911  0.11428  1.0000
  H   H620      1.0  0.45960  0.88682  0.29630  1.0000
  C   C530      1.0  0.46546  0.88126  0.38805  1.0000
  C   C531      1.0  0.32399  0.88747  0.03806  1.0000
  H   H621      1.0  0.45694  0.83684  0.11954  1.0000
  H   H622      1.0  0.45940  0.87350  0.16854  1.0000
  C   C532      1.0  0.38520  0.57492  0.13798  1.0000
  Fe  Fe70      1.0  0.48389  0.83376  0.19440  1.0000
  H   H623      1.0  0.38449  0.84375  0.35204  1.0000
  C   C533      1.0  0.38574  0.86068  0.42942  1.0000
  H   H624      1.0  0.47589  0.72048  0.30422  1.0000
  H   H625      1.0  0.37218  0.50329  0.13049  1.0000
  H   H626      1.0  0.40447  0.84051  0.38782  1.0000
  H   H627      1.0  0.47526  0.72277  0.34119  1.0000
  H   H628      1.0  0.39239  0.85430  0.15831  1.0000
  H   H629      1.0  0.44441  0.87386  0.10166  1.0000
  S   S132      1.0  0.41025  0.53617  0.46767  1.0000
  H   H630      1.0  0.41636  0.56803  0.20161  1.0000
  H   H631      1.0  0.45708  0.69315  0.18245  1.0000
  H   H632      1.0  0.42209  0.52787  0.09605  1.0000
  H   H633      1.0  0.45161  0.71655  0.17209  1.0000
  H   H634      1.0  0.44089  0.92892  0.45154  1.0000
  H   H635      1.0  0.44929  0.51940  0.47559  1.0000
  H   H636      1.0  0.31344  0.89121  0.03141  1.0000
  H   H637      1.0  0.38542  0.51615  0.07585  1.0000
  H   H638      1.0  0.37699  0.52790  0.15159  1.0000
  H   H639      1.0  0.45463  0.69493  0.14497  1.0000
  Fe  Fe71      1.0  0.47929  0.80459  0.23706  1.0000
  H   H640      1.0  0.39359  0.99056  0.05518  1.0000
  H   H641      1.0  0.41896  0.51213  0.12306  1.0000
  C   C534      1.0  0.24923  0.56688  0.29889  1.0000
  H   H642      1.0  0.43661  0.94131  0.01288  1.0000
  C   C535      1.0  0.46349  0.74397  0.17472  1.0000
  S   S133      1.0  0.34378  0.88798  0.47214  1.0000
  C   C536      1.0  0.45766  0.91972  0.47355  1.0000
  H   H643      1.0  0.45142  0.74482  0.17867  1.0000
  C   C537      1.0  0.39026  0.88575  0.45917  1.0000
  H   H644      1.0  0.45026  0.95507  0.07015  1.0000
  H   H645      1.0  0.46356  0.51082  0.46194  1.0000
  S   S134      1.0  0.33651  0.50094  0.30956  1.0000
  H   H646      1.0  0.26241  0.82761  0.01722  1.0000
  N   N37       1.0  0.48054  0.70935  0.16255  1.0000
  H   H647      1.0  0.39457  0.84970  0.47953  1.0000
  H   H648      1.0  0.47845  0.77166  0.17893  1.0000
  C   C538      1.0  0.38455  0.50271  0.12563  1.0000
  C   C539      1.0  0.47960  0.72629  0.16666  1.0000
  H   H649      1.0  0.31633  0.49312  0.48716  1.0000
  H   H650      1.0  0.36057  0.49519  0.34658  1.0000
  C   C540      1.0  0.32129  0.49332  0.36173  1.0000
  C   C541      1.0  0.34955  0.49355  0.35868  1.0000
  C   C542      1.0  0.48218  0.71937  0.32448  1.0000
  H   H651      1.0  0.48444  0.67230  0.34507  1.0000
  H   H652      1.0  0.42385  0.49419  0.46771  1.0000
  S   S135      1.0  0.48568  0.66044  0.15663  1.0000
  H   H653      1.0  0.47115  0.99040  0.05024  1.0000
  H   H654      1.0  0.32368  0.86235  0.99639  1.0000
  Fe  Fe72      1.0  0.48681  0.84151  0.25925  1.0000
  C   C543      1.0  0.33198  0.49267  0.14679  1.0000
  C   C544      1.0  0.44854  0.90103  0.98845  1.0000
  C   C545      1.0  0.39625  0.53935  0.61455  1.0000
  Fe  Fe73      1.0  0.39595  0.91020  0.53389  1.0000
  H   H655      1.0  0.44243  0.53546  0.94455  1.0000
  S   S136      1.0  0.41533  0.89878  0.53628  1.0000
  Fe  Fe74      1.0  0.36894  0.91400  0.57008  1.0000
  S   S137      1.0  0.36090  0.92747  0.53532  1.0000
  S   S138      1.0  0.36127  0.91232  0.61609  1.0000
  H   H656      1.0  0.25195  0.60326  0.72569  1.0000
  C   C546      1.0  0.45555  0.96737  0.50812  1.0000
  Fe  Fe75      1.0  0.38960  0.94295  0.52922  1.0000
  S   S139      1.0  0.40905  0.97124  0.52280  1.0000
  S   S140      1.0  0.36845  0.89269  0.54115  1.0000
  S   S141      1.0  0.39724  0.93052  0.56519  1.0000
  Fe  Fe76      1.0  0.45150  0.64244  0.74814  1.0000
  H   H657      1.0  0.36669  0.94995  0.63842  1.0000
  S   S142      1.0  0.42855  0.62266  0.76958  1.0000
  H   H658      1.0  0.45715  0.81397  0.82629  1.0000
  H   H659      1.0  0.42702  0.69458  0.76660  1.0000
  S   S143      1.0  0.45520  0.65536  0.70681  1.0000
  H   H660      1.0  0.42140  0.84422  0.92202  1.0000
  Fe  Fe77      1.0  0.29960  0.52316  0.74453  1.0000
  S   S144      1.0  0.27004  0.51307  0.73712  1.0000
  Fe  Fe78      1.0  0.33631  0.55194  0.73881  1.0000
  S   S145      1.0  0.34924  0.53519  0.75316  1.0000
  S   S146      1.0  0.35203  0.57838  0.72129  1.0000
  Fe  Fe79      1.0  0.32943  0.51478  0.72405  1.0000
  C   C547      1.0  0.24331  0.76468  0.77366  1.0000
  Fe  Fe80      1.0  0.32934  0.52614  0.78610  1.0000
  H   H661      1.0  0.40692  0.87244  0.82439  1.0000
  S   S147      1.0  0.31735  0.53196  0.70838  1.0000
  S   S148      1.0  0.31770  0.54477  0.77364  1.0000
  H   H662      1.0  0.33553  0.52314  0.60247  1.0000
  S   S149      1.0  0.46882  0.81020  0.69387  1.0000
  C   C548      1.0  0.38789  0.53968  0.63903  1.0000
  S   S150      1.0  0.46460  0.81601  0.76179  1.0000
  N   N38       1.0  0.44602  0.49457  0.49162  1.0000
  H   H663      1.0  0.47448  0.87338  0.59257  1.0000
  Fe  Fe81      1.0  0.45419  0.82113  0.72078  1.0000
  S   S151      1.0  0.42587  0.81452  0.71091  1.0000
  H   H664      1.0  0.45921  0.88516  0.85158  1.0000
  Fe  Fe82      1.0  0.33567  0.84461  0.74695  1.0000
  S   S152      1.0  0.33712  0.81921  0.75609  1.0000
  S   S153      1.0  0.33568  0.84822  0.69920  1.0000
  Fe  Fe83      1.0  0.33663  0.85333  0.81075  1.0000
  S   S154      1.0  0.33782  0.82842  0.82286  1.0000
  S   S155      1.0  0.34186  0.87618  0.84187  1.0000
  Fe  Fe84      1.0  0.35719  0.83422  0.78943  1.0000
  S   S156      1.0  0.38420  0.83640  0.79914  1.0000
  Fe  Fe85      1.0  0.31712  0.81526  0.78833  1.0000
  S   S157      1.0  0.29595  0.78717  0.79309  1.0000
  S   S158      1.0  0.35700  0.85968  0.77862  1.0000
  S   S159      1.0  0.31468  0.84011  0.77786  1.0000
  H   H665      1.0  0.40986  0.56427  0.71531  1.0000
  H   H666      1.0  0.38455  0.85129  0.87793  1.0000
  C   C549      1.0  0.44836  0.58324  0.92333  1.0000
  H   H667      1.0  0.28285  0.51934  0.79541  1.0000
  C   C550      1.0  0.43359  0.53735  0.50908  1.0000
  C   C551      1.0  0.45023  0.54340  0.52155  1.0000
  C   C552      1.0  0.45811  0.82154  0.84607  1.0000
  C   C553      1.0  0.39186  0.89172  0.85671  1.0000
  H   H668      1.0  0.46235  0.75898  0.70806  1.0000
  H   H669      1.0  0.42287  0.52789  0.51941  1.0000
  H   H670      1.0  0.45228  0.53844  0.54136  1.0000
  C   C554      1.0  0.39628  0.55203  0.66122  1.0000
  H   H671      1.0  0.40085  0.57843  0.70062  1.0000
  C   C555      1.0  0.41432  0.82062  0.73543  1.0000
  C   C556      1.0  0.42288  0.83195  0.75810  1.0000
  C   C557      1.0  0.41342  0.83676  0.77726  1.0000
  C   C558      1.0  0.39539  0.83031  0.77397  1.0000
  C   C559      1.0  0.38680  0.81916  0.75111  1.0000
  C   C560      1.0  0.39627  0.81436  0.73184  1.0000
  H   H672      1.0  0.43680  0.83708  0.76060  1.0000
  H   H673      1.0  0.42003  0.84563  0.79460  1.0000
  H   H674      1.0  0.37287  0.81396  0.74860  1.0000
  H   H675      1.0  0.38960  0.80557  0.71432  1.0000
  C   C561      1.0  0.26804  0.75499  0.79731  1.0000
  C   C562      1.0  0.27337  0.77235  0.78918  1.0000
  H   H676      1.0  0.27754  0.75104  0.80646  1.0000
  H   H677      1.0  0.42612  0.65233  0.74082  1.0000
  H   H678      1.0  0.36440  0.96917  0.62971  1.0000
  H   H679      1.0  0.44696  0.57040  0.91473  1.0000
  S   S160      1.0  0.33872  0.49903  0.69489  1.0000
  H   H680      1.0  0.47548  0.85349  0.87588  1.0000
  C   C563      1.0  0.25271  0.51824  0.74732  1.0000
  C   C564      1.0  0.25483  0.53098  0.76796  1.0000
  H   H681      1.0  0.48192  0.59789  0.92470  1.0000
  H   H682      1.0  0.26748  0.53848  0.77780  1.0000
  H   H683      1.0  0.24230  0.54369  0.79231  1.0000
  C   C565      1.0  0.48039  0.96211  0.52007  1.0000
  C   C566      1.0  0.25045  0.74733  0.69878  1.0000
  C   C567      1.0  0.48129  0.76168  0.74080  1.0000
  S   S161      1.0  0.46768  0.66689  0.77333  1.0000
  C   C568      1.0  0.25056  0.74263  0.79379  1.0000
  C   C569      1.0  0.34543  0.52077  0.88639  1.0000
  C   C570      1.0  0.40788  0.60969  0.75433  1.0000
  C   C571      1.0  0.39630  0.59616  0.76987  1.0000
  C   C572      1.0  0.37931  0.58612  0.75948  1.0000
  C   C573      1.0  0.37369  0.58976  0.73364  1.0000
  C   C574      1.0  0.38533  0.60311  0.71783  1.0000
  C   C575      1.0  0.40246  0.61296  0.72801  1.0000
  H   H684      1.0  0.40035  0.59365  0.79035  1.0000
  H   H685      1.0  0.37040  0.57596  0.77191  1.0000
  H   H686      1.0  0.38099  0.60602  0.69787  1.0000
  H   H687      1.0  0.41127  0.62334  0.71586  1.0000
  C   C576      1.0  0.35145  0.88382  0.93829  1.0000
  C   C577      1.0  0.34399  0.86696  0.92576  1.0000
  C   C578      1.0  0.34106  0.86433  0.89641  1.0000
  C   C579      1.0  0.34527  0.87857  0.87912  1.0000
  C   C580      1.0  0.35264  0.89542  0.89168  1.0000
  C   C581      1.0  0.35589  0.89806  0.92098  1.0000
  H   H688      1.0  0.34043  0.85581  0.93886  1.0000
  H   H689      1.0  0.33529  0.85129  0.88721  1.0000
  H   H690      1.0  0.35587  0.90656  0.87863  1.0000
  H   H691      1.0  0.36151  0.91110  0.93019  1.0000
  C   C582      1.0  0.35458  0.89433  0.63894  1.0000
  C   C583      1.0  0.34991  0.87722  0.62917  1.0000
  C   C584      1.0  0.34427  0.86339  0.64792  1.0000
  C   C585      1.0  0.34340  0.86640  0.67678  1.0000
  C   C586      1.0  0.34843  0.88355  0.68668  1.0000
  C   C587      1.0  0.35384  0.89735  0.66785  1.0000
  H   H692      1.0  0.35041  0.87460  0.60707  1.0000
  H   H693      1.0  0.34048  0.85024  0.63989  1.0000
  H   H694      1.0  0.34778  0.88616  0.70873  1.0000
  H   H695      1.0  0.35736  0.91048  0.67577  1.0000
  H   H696      1.0  0.43878  0.67547  0.74243  1.0000
  C   C588      1.0  0.44735  0.83957  0.87205  1.0000
  C   C589      1.0  0.43185  0.90014  0.98538  1.0000
  C   C590      1.0  0.44667  0.90447  0.51604  1.0000
  C   C591      1.0  0.43163  0.90706  0.51223  1.0000
  S   S162      1.0  0.35449  0.88617  0.97555  1.0000
  C   C592      1.0  0.41273  0.88026  0.86866  1.0000
  C   C593      1.0  0.43323  0.87840  0.83530  1.0000
  H   H697      1.0  0.44834  0.89766  0.53403  1.0000
  C   C594      1.0  0.41325  0.55130  0.61144  1.0000
  H   H698      1.0  0.41828  0.52189  0.97612  1.0000
  H   H699      1.0  0.45517  0.61083  0.59395  1.0000
  N   N39       1.0  0.29259  0.79844  0.69608  1.0000
  C   C595      1.0  0.30933  0.79700  0.69592  1.0000
  C   C596      1.0  0.29180  0.80865  0.67155  1.0000
  C   C597      1.0  0.29238  0.80849  0.72163  1.0000
  C   C598      1.0  0.27817  0.78086  0.69625  1.0000
  C   C599      1.0  0.27755  0.76941  0.71789  1.0000
  C   C600      1.0  0.26431  0.77471  0.67566  1.0000
  H   H700      1.0  0.43596  0.87589  0.81414  1.0000
  H   H701      1.0  0.47008  0.62487  0.57047  1.0000
  C   C601      1.0  0.48678  0.87316  0.59811  1.0000
  H   H702      1.0  0.30966  0.78874  0.67782  1.0000
  H   H703      1.0  0.32043  0.80998  0.69461  1.0000
  H   H704      1.0  0.31193  0.79128  0.71530  1.0000
  H   H705      1.0  0.28000  0.81116  0.67123  1.0000
  H   H706      1.0  0.29222  0.80200  0.65152  1.0000
  H   H707      1.0  0.30299  0.82171  0.67204  1.0000
  H   H708      1.0  0.30257  0.82208  0.72172  1.0000
  H   H709      1.0  0.27968  0.80912  0.72339  1.0000
  H   H710      1.0  0.29472  0.80268  0.74108  1.0000
  H   H711      1.0  0.28746  0.77323  0.73455  1.0000
  H   H712      1.0  0.26362  0.78245  0.65840  1.0000
  H   H713      1.0  0.47721  0.85754  0.63447  1.0000
  C   C602      1.0  0.34212  0.49875  0.85116  1.0000
  H   H714      1.0  0.43534  0.58281  0.92645  1.0000
  N   N40       1.0  0.39149  0.85869  0.69251  1.0000
  C   C603      1.0  0.40725  0.85704  0.70335  1.0000
  C   C604      1.0  0.38615  0.86752  0.71493  1.0000
  C   C605      1.0  0.37738  0.84108  0.68739  1.0000
  C   C606      1.0  0.39493  0.86798  0.66585  1.0000
  C   C607      1.0  0.39079  0.88230  0.66082  1.0000
  C   C608      1.0  0.40216  0.86237  0.64354  1.0000
  C   C609      1.0  0.39411  0.89066  0.63528  1.0000
  C   C610      1.0  0.40546  0.87087  0.61812  1.0000
  C   C611      1.0  0.40146  0.88499  0.61403  1.0000
  H   H715      1.0  0.41870  0.86984  0.70417  1.0000
  H   H716      1.0  0.40575  0.85197  0.72485  1.0000
  H   H717      1.0  0.41041  0.84778  0.69055  1.0000
  H   H718      1.0  0.39601  0.88106  0.71928  1.0000
  H   H719      1.0  0.38430  0.86057  0.73499  1.0000
  H   H720      1.0  0.37349  0.86781  0.70946  1.0000
  H   H721      1.0  0.38098  0.83308  0.67248  1.0000
  H   H722      1.0  0.37391  0.83381  0.70708  1.0000
  H   H723      1.0  0.36548  0.84183  0.67852  1.0000
  H   H724      1.0  0.38474  0.88718  0.67607  1.0000
  H   H725      1.0  0.40522  0.85129  0.64552  1.0000
  H   H726      1.0  0.39072  0.90146  0.63174  1.0000
  H   H727      1.0  0.41109  0.86648  0.60139  1.0000
  H   H728      1.0  0.40392  0.89148  0.59423  1.0000
  C   C612      1.0  0.37407  0.96431  0.63680  1.0000
  H   H729      1.0  0.46715  0.52033  0.49680  1.0000
  H   H730      1.0  0.44973  0.97443  0.49500  1.0000
  C   C613      1.0  0.46338  0.85094  0.88536  1.0000
  H   H731      1.0  0.40615  0.68454  0.78175  1.0000
  N   N41       1.0  0.45874  0.59762  0.90513  1.0000
  H   H732      1.0  0.46682  0.85445  0.82932  1.0000
  H   H733      1.0  0.38123  0.85810  0.84380  1.0000
  H   H734      1.0  0.36173  0.63431  0.72013  1.0000
  H   H735      1.0  0.31754  0.49894  0.52378  1.0000
  H   H736      1.0  0.39047  0.56427  0.72796  1.0000
  C   C614      1.0  0.42594  0.66700  0.79143  1.0000
  H   H737      1.0  0.43877  0.67845  0.79228  1.0000
  H   H738      1.0  0.41926  0.66790  0.81055  1.0000
  H   H739      1.0  0.42879  0.65534  0.79249  1.0000
  C   C615      1.0  0.39273  0.63842  0.78380  1.0000
  C   C616      1.0  0.43901  0.49676  0.51864  1.0000
  H   H740      1.0  0.42541  0.60064  0.58814  1.0000
  C   C617      1.0  0.45625  0.61566  0.57227  1.0000
  H   H741      1.0  0.44924  0.50541  0.53390  1.0000
  H   H742      1.0  0.26445  0.79029  0.77102  1.0000
  C   C618      1.0  0.41352  0.56431  0.65713  1.0000
  C   C619      1.0  0.26076  0.77708  0.77737  1.0000
  C   C620      1.0  0.48522  0.73496  0.74974  1.0000
  H   H743      1.0  0.45487  0.72773  0.69748  1.0000
  H   H744      1.0  0.48055  0.93903  0.96591  1.0000
  H   H745      1.0  0.47749  0.83152  0.58660  1.0000
  H   H746      1.0  0.41942  0.66636  0.72101  1.0000
  C   C621      1.0  0.23798  0.74733  0.78186  1.0000
  C   C622      1.0  0.43233  0.58864  0.55229  1.0000
  N   N42       1.0  0.41556  0.66648  0.76555  1.0000
  C   C623      1.0  0.42535  0.66509  0.74139  1.0000
  C   C624      1.0  0.41407  0.68329  0.76457  1.0000
  H   H747      1.0  0.45904  0.61825  0.81505  1.0000
  H   H748      1.0  0.39547  0.57947  0.58841  1.0000
  C   C625      1.0  0.45955  0.60897  0.85667  1.0000
  C   C626      1.0  0.34994  0.51144  0.90699  1.0000
  C   C627      1.0  0.26271  0.56975  0.71456  1.0000
  C   C628      1.0  0.48465  0.99202  0.51340  1.0000
  C   C629      1.0  0.45874  0.55453  0.97554  1.0000
  C   C630      1.0  0.42969  0.91602  0.48908  1.0000
  H   H749      1.0  0.37414  0.52325  0.68686  1.0000
  H   H750      1.0  0.37664  0.53333  0.72049  1.0000
  C   C631      1.0  0.26438  0.58666  0.71911  1.0000
  H   H751      1.0  0.36875  0.85985  0.87143  1.0000
  H   H752      1.0  0.40814  0.68490  0.74443  1.0000
  C   C632      1.0  0.45231  0.60827  0.82976  1.0000
  N   N43       1.0  0.38825  0.96866  0.61701  1.0000
  H   H753      1.0  0.32997  0.51938  0.65312  1.0000
  H   H754      1.0  0.25285  0.50091  0.79839  1.0000
  H   H755      1.0  0.39498  0.53224  0.70465  1.0000
  C   C633      1.0  0.39314  0.88293  0.90381  1.0000
  H   H756      1.0  0.37481  0.52996  0.64061  1.0000
  C   C634      1.0  0.39769  0.56522  0.70861  1.0000
  N   N44       1.0  0.38733  0.55137  0.68746  1.0000
  C   C635      1.0  0.33963  0.51459  0.61407  1.0000
  S   S163      1.0  0.47567  0.56395  0.95294  1.0000
  C   C636      1.0  0.38314  0.53437  0.70040  1.0000
  S   S164      1.0  0.48473  0.56371  0.52443  1.0000
  C   C637      1.0  0.33647  0.51249  0.64285  1.0000
  H   H757      1.0  0.24685  0.72943  0.80028  1.0000
  H   H758      1.0  0.42092  0.57431  0.67266  1.0000
  H   H759      1.0  0.36414  0.55312  0.70066  1.0000
  H   H760      1.0  0.38992  0.65922  0.72454  1.0000
  H   H761      1.0  0.47195  0.61964  0.86184  1.0000
  H   H762      1.0  0.42721  0.57245  0.88118  1.0000
  C   C638      1.0  0.42759  0.58214  0.84064  1.0000
  C   C639      1.0  0.38025  0.96143  0.58901  1.0000
  C   C640      1.0  0.37103  0.55320  0.68129  1.0000
  C   C641      1.0  0.38196  0.86134  0.86654  1.0000
  H   H763      1.0  0.42365  0.80776  0.84936  1.0000
  S   S165      1.0  0.47333  0.63503  0.74233  1.0000
  C   C642      1.0  0.42182  0.56384  0.63256  1.0000
  C   C643      1.0  0.36534  0.62294  0.75811  1.0000
  C   C644      1.0  0.24971  0.58988  0.72203  1.0000
  H   H764      1.0  0.45217  0.59937  0.50579  1.0000
  C   C645      1.0  0.39820  0.65174  0.76388  1.0000
  H   H765      1.0  0.35303  0.61163  0.75544  1.0000
  N   N45       1.0  0.47441  0.97362  0.50418  1.0000
  H   H766      1.0  0.43502  0.57321  0.62997  1.0000
  C   C646      1.0  0.38648  0.64991  0.74093  1.0000
  H   H767      1.0  0.40196  0.90518  0.86088  1.0000
  N   N46       1.0  0.44696  0.83106  0.84455  1.0000
  H   H768      1.0  0.36168  0.54240  0.66767  1.0000
  S   S166      1.0  0.33536  0.52675  0.83357  1.0000
  C   C647      1.0  0.28595  0.51533  0.81615  1.0000
  C   C648      1.0  0.35047  0.49560  0.89987  1.0000
  H   H769      1.0  0.45972  0.58190  0.53841  1.0000
  C   C649      1.0  0.46421  0.85942  0.91104  1.0000
  H   H770      1.0  0.41971  0.55093  0.59246  1.0000
  H   H771      1.0  0.41933  0.82929  0.87734  1.0000
  H   H772      1.0  0.44809  0.61485  0.92056  1.0000
  S   S167      1.0  0.36428  0.51023  0.48954  1.0000
  C   C650      1.0  0.40785  0.56223  0.53359  1.0000
  C   C651      1.0  0.45094  0.59627  0.87654  1.0000
  H   H773      1.0  0.47555  0.50380  0.52490  1.0000
  C   C652      1.0  0.46876  0.75242  0.71979  1.0000
  H   H774      1.0  0.44829  0.95336  0.50195  1.0000
  H   H775      1.0  0.47517  0.58555  0.89232  1.0000
  Fe  Fe86      1.0  0.47289  0.67993  0.73160  1.0000
  H   H776      1.0  0.26357  0.74462  0.73626  1.0000
  C   C653      1.0  0.43213  0.83743  0.88593  1.0000
  C   C654      1.0  0.34798  0.50572  0.60017  1.0000
  C   C655      1.0  0.45365  0.84455  0.82338  1.0000
  S   S168      1.0  0.47401  0.84869  0.71934  1.0000
  H   H777      1.0  0.47226  0.94811  0.51474  1.0000
  H   H778      1.0  0.25468  0.50811  0.83408  1.0000
  H   H779      1.0  0.43717  0.50352  0.93538  1.0000
  H   H780      1.0  0.39684  0.86830  0.50015  1.0000
  H   H781      1.0  0.34492  0.53291  0.89230  1.0000
  H   H782      1.0  0.37351  0.56562  0.67091  1.0000
  H   H783      1.0  0.42964  0.81223  0.81379  1.0000
  H   H784      1.0  0.42047  0.82480  0.83114  1.0000
  C   C656      1.0  0.46076  0.61416  0.91910  1.0000
  C   C657      1.0  0.43470  0.58272  0.86766  1.0000
  C   C658      1.0  0.37649  0.62433  0.78089  1.0000
  H   H785      1.0  0.47937  0.84274  0.49217  1.0000
  C   C659      1.0  0.45361  0.60902  0.52291  1.0000
  H   H786      1.0  0.46692  0.61952  0.52168  1.0000
  C   C660      1.0  0.44632  0.88369  0.85625  1.0000
  C   C661      1.0  0.37031  0.63570  0.73817  1.0000
  H   H787      1.0  0.45468  0.58474  0.94463  1.0000
  C   C662      1.0  0.47601  0.59752  0.90351  1.0000
  C   C663      1.0  0.44290  0.88729  0.88328  1.0000
  H   H788      1.0  0.40094  0.63824  0.80134  1.0000
  H   H789      1.0  0.38383  0.55468  0.55400  1.0000
  C   C664      1.0  0.26388  0.75294  0.71908  1.0000
  H   H790      1.0  0.44435  0.61480  0.51791  1.0000
  N   N47       1.0  0.39529  0.87909  0.87410  1.0000
  C   C665      1.0  0.34152  0.51455  0.85832  1.0000
  S   S169      1.0  0.45945  0.89997  0.95880  1.0000
  H   H791      1.0  0.37915  0.89176  0.86093  1.0000
  H   H792      1.0  0.38946  0.52967  0.59800  1.0000
  C   C666      1.0  0.25565  0.49795  0.82013  1.0000
  H   H793      1.0  0.39010  0.96315  0.57332  1.0000
  H   H794      1.0  0.39137  0.88862  0.83393  1.0000
  C   C667      1.0  0.39910  0.95973  0.62641  1.0000
  C   C668      1.0  0.44910  0.85687  0.92426  1.0000
  C   C669      1.0  0.42939  0.81842  0.83446  1.0000
  C   C670      1.0  0.43310  0.84597  0.91171  1.0000
  C   C671      1.0  0.28191  0.83366  0.98689  1.0000
  H   H795      1.0  0.39118  0.94562  0.62954  1.0000
  H   H796      1.0  0.30389  0.84231  0.96093  1.0000
  H   H797      1.0  0.42483  0.88880  0.91099  1.0000
  H   H798      1.0  0.37276  0.61405  0.79584  1.0000
  H   H799      1.0  0.46675  0.61578  0.94064  1.0000
  H   H800      1.0  0.27716  0.59733  0.72056  1.0000
  Fe  Fe87      1.0  0.36357  0.49794  0.53106  1.0000
  H   H801      1.0  0.40267  0.55138  0.51842  1.0000
  H   H802      1.0  0.47922  0.84404  0.54108  1.0000
  N   N48       1.0  0.45068  0.60119  0.55088  1.0000
  H   H803      1.0  0.45448  0.83893  0.80256  1.0000
  H   H804      1.0  0.43277  0.57231  0.51681  1.0000
  C   C672      1.0  0.42511  0.57429  0.53288  1.0000
  C   C673      1.0  0.40382  0.57811  0.57287  1.0000
  H   H805      1.0  0.43078  0.59445  0.80092  1.0000
  C   C674      1.0  0.29916  0.84350  0.98130  1.0000
  H   H806      1.0  0.46937  0.62574  0.90781  1.0000
  H   H807      1.0  0.45318  0.89155  0.89950  1.0000
  H   H808      1.0  0.41513  0.57179  0.83431  1.0000
  C   C675      1.0  0.35313  0.49466  0.61547  1.0000
  H   H809      1.0  0.24512  0.54280  0.70956  1.0000
  C   C676      1.0  0.42114  0.59020  0.57247  1.0000
  H   H810      1.0  0.45987  0.58549  0.57547  1.0000
  H   H811      1.0  0.47668  0.86809  0.92067  1.0000
  H   H812      1.0  0.44865  0.62351  0.56989  1.0000
  H   H813      1.0  0.38512  0.98682  0.53808  1.0000
  H   H814      1.0  0.45451  0.81229  0.86347  1.0000
  C   C677      1.0  0.46196  0.59200  0.55506  1.0000
  H   H815      1.0  0.37985  0.88173  0.90723  1.0000
  H   H816      1.0  0.45283  0.96872  0.53042  1.0000
  H   H817      1.0  0.47206  0.83039  0.84929  1.0000
  Fe  Fe88      1.0  0.36257  0.90692  0.50567  1.0000
  H   H818      1.0  0.44980  0.86353  0.94417  1.0000
  H   H819      1.0  0.37181  0.94724  0.58958  1.0000
  C   C678      1.0  0.46414  0.55603  0.50853  1.0000
  H   H820      1.0  0.35286  0.51644  0.92841  1.0000
  C   C679      1.0  0.41665  0.87658  0.84136  1.0000
  H   H821      1.0  0.37219  0.96796  0.58092  1.0000
  H   H822      1.0  0.40205  0.89649  0.91057  1.0000
  H   H823      1.0  0.44539  0.85165  0.82084  1.0000
  S   S170      1.0  0.39026  0.92336  0.49730  1.0000
  H   H824      1.0  0.42939  0.50234  0.51592  1.0000
  H   H825      1.0  0.39527  0.87373  0.91811  1.0000
  S   S171      1.0  0.31038  0.50413  0.75832  1.0000
  H   H826      1.0  0.27409  0.56723  0.71260  1.0000
  S   S172      1.0  0.35161  0.50910  0.56386  1.0000
  H   H827      1.0  0.40865  0.96022  0.61086  1.0000
  Fe  Fe89      1.0  0.47868  0.64988  0.70264  1.0000
  C   C680      1.0  0.24637  0.55597  0.71282  1.0000
  C   C681      1.0  0.39721  0.56413  0.55352  1.0000
  S   S173      1.0  0.48232  0.63363  0.66631  1.0000
  H   H828      1.0  0.47588  0.60104  0.55458  1.0000
  H   H829      1.0  0.29916  0.51591  0.81511  1.0000
  H   H830      1.0  0.47996  0.96413  0.54304  1.0000
  H   H831      1.0  0.24028  0.75370  0.66111  1.0000
  H   H832      1.0  0.27320  0.82476  0.97090  1.0000
  C   C682      1.0  0.42640  0.88563  0.88959  1.0000
  H   H833      1.0  0.40631  0.96563  0.64653  1.0000
  C   C683      1.0  0.43636  0.59488  0.82178  1.0000
  H   H834      1.0  0.42537  0.89781  0.96490  1.0000
  C   C684      1.0  0.48156  0.95102  0.97592  1.0000
  C   C685      1.0  0.34171  0.50153  0.65823  1.0000
  C   C686      1.0  0.39899  0.98757  0.61508  1.0000
  C   C687      1.0  0.45979  0.91102  0.49693  1.0000
  C   C688      1.0  0.24048  0.53392  0.77616  1.0000
  H   H835      1.0  0.37920  0.96969  0.65827  1.0000
  S   S174      1.0  0.39129  0.50226  0.52950  1.0000
  C   C689      1.0  0.46453  0.73462  0.71385  1.0000
  N   N49       1.0  0.27299  0.49782  0.82308  1.0000
  Fe  Fe90      1.0  0.48581  0.84297  0.75869  1.0000
  C   C690      1.0  0.42998  0.53265  0.98379  1.0000
  C   C691      1.0  0.25070  0.75814  0.67700  1.0000
  S   S175      1.0  0.46663  0.70312  0.72009  1.0000
  H   H836      1.0  0.28666  0.52534  0.83211  1.0000
  H   H837      1.0  0.23982  0.73461  0.70014  1.0000
  Fe  Fe91      1.0  0.48068  0.80671  0.73495  1.0000
  C   C692      1.0  0.44362  0.54039  0.96589  1.0000
  H   H838      1.0  0.48536  0.60896  0.89283  1.0000
  H   H839      1.0  0.47158  0.90944  0.50056  1.0000
  H   H840      1.0  0.41102  0.50250  0.90984  1.0000
  H   H841      1.0  0.36722  0.86197  0.49113  1.0000
  H   H842      1.0  0.30283  0.49550  0.84146  1.0000
  H   H843      1.0  0.41794  0.98478  0.58814  1.0000
  H   H844      1.0  0.33909  0.49370  0.82978  1.0000
  C   C693      1.0  0.47273  0.72572  0.72868  1.0000
  H   H845      1.0  0.48526  0.61029  0.62497  1.0000
  C   C694      1.0  0.29339  0.49288  0.85733  1.0000
  C   C695      1.0  0.34997  0.49257  0.64430  1.0000
  C   C696      1.0  0.27726  0.49353  0.85142  1.0000
  H   H846      1.0  0.53944  0.44996  0.46555  1.0000
  S   S176      1.0  0.49554  0.32819  0.26416  1.0000
  S   S177      1.0  0.58616  0.08630  0.44206  1.0000
  H   H847      1.0  0.52811  0.42013  0.43643  1.0000
  Fe  Fe92      1.0  0.61643  0.10641  0.00413  1.0000
  H   H848      1.0  0.54999  0.42768  0.44910  1.0000
  S   S178      1.0  0.63290  0.12644  0.03855  1.0000
  H   H849      1.0  0.51238  0.13518  0.17012  1.0000
  C   C697      1.0  0.58161  0.15831  0.33893  1.0000
  Fe  Fe93      1.0  0.61486  0.10200  0.44191  1.0000
  S   S179      1.0  0.62625  0.10357  0.39860  1.0000
  S   S180      1.0  0.58998  0.08551  0.00997  1.0000
  H   H850      1.0  0.53991  0.12951  0.17780  1.0000
  Fe  Fe94      1.0  0.64583  0.15993  0.20199  1.0000
  S   S181      1.0  0.65400  0.18745  0.18875  1.0000
  S   S182      1.0  0.63449  0.13569  0.17231  1.0000
  Fe  Fe95      1.0  0.64843  0.17039  0.26549  1.0000
  S   S183      1.0  0.65647  0.19869  0.25562  1.0000
  S   S184      1.0  0.64480  0.16577  0.31272  1.0000
  Fe  Fe96      1.0  0.63591  0.18864  0.22107  1.0000
  S   S185      1.0  0.61518  0.19784  0.21043  1.0000
  Fe  Fe97      1.0  0.67421  0.19538  0.22462  1.0000
  S   S186      1.0  0.70323  0.21356  0.22029  1.0000
  S   S187      1.0  0.62673  0.16090  0.23271  1.0000
  S   S188      1.0  0.66722  0.16737  0.23601  1.0000
  Fe  Fe98      1.0  0.50553  0.16747  0.32276  1.0000
  S   S189      1.0  0.52322  0.19586  0.33120  1.0000
  C   C698      1.0  0.56758  0.46742  0.00412  1.0000
  Fe  Fe99      1.0  0.51142  0.17063  0.25799  1.0000
  S   S190      1.0  0.52964  0.19902  0.26274  1.0000
  Fe  Fe100     1.0  0.54079  0.19166  0.30076  1.0000
  S   S191      1.0  0.56880  0.19781  0.31108  1.0000
  Fe  Fe101     1.0  0.51055  0.20132  0.29231  1.0000
  S   S192      1.0  0.50010  0.22235  0.28720  1.0000
  S   S193      1.0  0.52407  0.16341  0.29435  1.0000
  S   S194      1.0  0.67266  0.47246  0.21952  1.0000
  S   S195      1.0  0.66197  0.46387  0.28518  1.0000
  H   H851      1.0  0.56184  0.16091  0.26723  1.0000
  Fe  Fe102     1.0  0.64867  0.45649  0.24258  1.0000
  S   S196      1.0  0.63027  0.42888  0.22887  1.0000
  H   H852      1.0  0.55086  0.11526  0.14378  1.0000
  S   S197      1.0  0.52610  0.34730  0.31375  1.0000
  Fe  Fe103     1.0  0.51084  0.35049  0.23639  1.0000
  S   S198      1.0  0.53598  0.34891  0.24824  1.0000
  Fe  Fe104     1.0  0.52106  0.32779  0.27777  1.0000
  S   S199      1.0  0.53065  0.30603  0.28212  1.0000
  Fe  Fe105     1.0  0.53890  0.36804  0.28290  1.0000
  S   S200      1.0  0.56217  0.39276  0.29659  1.0000
  S   S201      1.0  0.51486  0.37097  0.26989  1.0000
  H   H853      1.0  0.52524  0.12778  0.41184  1.0000
  H   H854      1.0  0.56792  0.03050  0.42125  1.0000
  H   H855      1.0  0.62053  0.47688  0.11822  1.0000
  C   C699      1.0  0.65872  0.11081  0.10924  1.0000
  C   C700      1.0  0.56333  0.14807  0.37935  1.0000
  H   H856      1.0  0.52282  0.41897  0.09938  1.0000
  H   H857      1.0  0.59555  0.13381  0.37921  1.0000
  C   C701      1.0  0.50561  0.40660  0.35907  1.0000
  H   H858      1.0  0.50209  0.39216  0.32015  1.0000
  C   C702      1.0  0.53893  0.15642  0.38451  1.0000
  S   S202      1.0  0.61983  0.08852  0.47969  1.0000
  S   S203      1.0  0.59219  0.04084  0.99814  1.0000
  H   H859      1.0  0.65883  0.47637  0.11248  1.0000
  C   C703      1.0  0.50392  0.27213  0.28145  1.0000
  H   H860      1.0  0.51305  0.36435  0.36899  1.0000
  N   N50       1.0  0.55582  0.14719  0.22690  1.0000
  H   H861      1.0  0.56567  0.16891  0.42318  1.0000
  C   C704      1.0  0.58036  0.40294  0.27615  1.0000
  C   C705      1.0  0.58337  0.39433  0.25318  1.0000
  C   C706      1.0  0.59862  0.40247  0.23853  1.0000
  C   C707      1.0  0.61085  0.41928  0.24666  1.0000
  C   C708      1.0  0.60760  0.42801  0.26921  1.0000
  C   C709      1.0  0.59244  0.41983  0.28395  1.0000
  H   H862      1.0  0.57417  0.38130  0.24719  1.0000
  H   H863      1.0  0.60113  0.39563  0.22120  1.0000
  H   H864      1.0  0.61695  0.44095  0.27569  1.0000
  H   H865      1.0  0.59024  0.42656  0.30175  1.0000
  C   C710      1.0  0.50892  0.24571  0.28696  1.0000
  C   C711      1.0  0.52671  0.25630  0.28950  1.0000
  C   C712      1.0  0.53301  0.27460  0.28799  1.0000
  C   C713      1.0  0.52171  0.28273  0.28403  1.0000
  C   C714      1.0  0.49310  0.13482  0.13951  1.0000
  H   H866      1.0  0.53564  0.25040  0.29268  1.0000
  H   H867      1.0  0.54678  0.28254  0.29008  1.0000
  H   H868      1.0  0.59722  0.33298  0.29331  1.0000
  H   H869      1.0  0.72875  0.23012  0.12850  1.0000
  C   C715      1.0  0.60305  0.19909  0.23873  1.0000
  C   C716      1.0  0.58788  0.20139  0.23356  1.0000
  C   C717      1.0  0.57723  0.20097  0.25559  1.0000
  C   C718      1.0  0.58205  0.19889  0.28305  1.0000
  C   C719      1.0  0.59757  0.19729  0.28832  1.0000
  C   C720      1.0  0.60789  0.19706  0.26618  1.0000
  H   H870      1.0  0.58424  0.20319  0.21240  1.0000
  H   H871      1.0  0.56541  0.20245  0.25141  1.0000
  H   H872      1.0  0.60155  0.19604  0.30957  1.0000
  H   H873      1.0  0.61961  0.19538  0.27040  1.0000
  C   C721      1.0  0.63061  0.12073  0.37459  1.0000
  C   C722      1.0  0.63417  0.11826  0.34669  1.0000
  C   C723      1.0  0.63815  0.13167  0.32726  1.0000
  C   C724      1.0  0.63888  0.14788  0.33560  1.0000
  C   C725      1.0  0.63528  0.15032  0.36348  1.0000
  C   C726      1.0  0.63105  0.13685  0.38276  1.0000
  H   H874      1.0  0.63395  0.10592  0.34006  1.0000
  H   H875      1.0  0.64094  0.12954  0.30599  1.0000
  H   H876      1.0  0.63580  0.16277  0.37030  1.0000
  H   H877      1.0  0.62846  0.13906  0.40411  1.0000
  C   C727      1.0  0.63250  0.12885  0.07569  1.0000
  C   C728      1.0  0.64392  0.14462  0.08913  1.0000
  C   C729      1.0  0.64443  0.14711  0.11851  1.0000
  C   C730      1.0  0.63369  0.13371  0.13500  1.0000
  C   C731      1.0  0.62218  0.11795  0.12156  1.0000
  C   C732      1.0  0.62144  0.11559  0.09212  1.0000
  H   H878      1.0  0.65255  0.15501  0.07674  1.0000
  H   H879      1.0  0.65340  0.15929  0.12844  1.0000
  H   H880      1.0  0.61385  0.10745  0.13406  1.0000
  H   H881      1.0  0.61250  0.10343  0.08228  1.0000
  H   H882      1.0  0.51296  0.23379  0.16373  1.0000
  C   C733      1.0  0.50220  0.13930  0.16571  1.0000
  C   C734      1.0  0.59163  0.14980  0.34785  1.0000
  H   H883      1.0  0.55590  0.08338  0.47920  1.0000
  C   C735      1.0  0.52673  0.09298  0.03630  1.0000
  H   H884      1.0  0.57069  0.43867  0.38221  1.0000
  C   C736      1.0  0.54794  0.08681  0.01167  1.0000
  H   H885      1.0  0.66827  0.20258  0.31688  1.0000
  H   H886      1.0  0.62157  0.06783  0.37907  1.0000
  C   C737      1.0  0.52400  0.10126  0.01280  1.0000
  H   H887      1.0  0.54711  0.17058  0.38271  1.0000
  H   H888      1.0  0.54549  0.15533  0.43815  1.0000
  C   C738      1.0  0.69430  0.19870  0.34566  1.0000
  C   C739      1.0  0.52473  0.36336  0.03285  1.0000
  H   H889      1.0  0.66553  0.12480  0.10771  1.0000
  H   H890      1.0  0.59007  0.99758  0.48052  1.0000
  H   H891      1.0  0.56485  0.45218  0.04071  1.0000
  C   C740      1.0  0.71832  0.23559  0.22886  1.0000
  C   C741      1.0  0.49763  0.25382  0.28284  1.0000
  N   N51       1.0  0.58026  0.13330  0.06460  1.0000
  C   C742      1.0  0.56447  0.13248  0.04931  1.0000
  C   C743      1.0  0.59472  0.14046  0.04529  1.0000
  C   C744      1.0  0.57738  0.11527  0.07095  1.0000
  C   C745      1.0  0.58459  0.14397  0.09103  1.0000
  C   C746      1.0  0.60021  0.14742  0.10662  1.0000
  C   C747      1.0  0.57347  0.15082  0.10246  1.0000
  C   C748      1.0  0.60465  0.15738  0.13163  1.0000
  C   C749      1.0  0.57809  0.16087  0.12749  1.0000
  C   C750      1.0  0.59367  0.16421  0.14197  1.0000
  H   H892      1.0  0.56565  0.14566  0.04420  1.0000
  C   C751      1.0  0.52993  0.19123  0.17167  1.0000
  S   S204      1.0  0.49743  0.38863  0.45238  1.0000
  H   H893      1.0  0.49499  0.27803  0.27841  1.0000
  H   H894      1.0  0.59145  0.13329  0.02460  1.0000
  C   C752      1.0  0.52859  0.40309  0.33578  1.0000
  H   H895      1.0  0.58878  0.11475  0.08199  1.0000
  C   C753      1.0  0.51432  0.35724  0.00846  1.0000
  H   H896      1.0  0.57479  0.10700  0.05148  1.0000
  H   H897      1.0  0.60914  0.14238  0.09961  1.0000
  H   H898      1.0  0.56116  0.14862  0.09248  1.0000
  H   H899      1.0  0.61669  0.15977  0.14315  1.0000
  H   H900      1.0  0.56952  0.16610  0.13577  1.0000
  H   H901      1.0  0.59724  0.17198  0.16138  1.0000
  N   N52       1.0  0.69544  0.20822  0.31952  1.0000
  C   C754      1.0  0.48834  0.12531  0.40092  1.0000
  C   C755      1.0  0.68119  0.21388  0.31811  1.0000
  C   C756      1.0  0.69255  0.19571  0.29568  1.0000
  H   H902      1.0  0.55374  0.42527  0.09982  1.0000
  H   H903      1.0  0.68123  0.22184  0.33680  1.0000
  C   C757      1.0  0.55863  0.45366  0.02146  1.0000
  H   H904      1.0  0.56610  0.10907  0.08435  1.0000
  H   H905      1.0  0.50051  0.20223  0.23543  1.0000
  H   H906      1.0  0.67986  0.18422  0.29644  1.0000
  H   H907      1.0  0.54567  0.23414  0.21605  1.0000
  H   H908      1.0  0.63716  0.48190  0.16373  1.0000
  C   C758      1.0  0.51690  0.23583  0.22027  1.0000
  H   H909      1.0  0.72193  0.21707  0.28074  1.0000
  Fe  Fe106     1.0  0.59063  0.07405  0.48114  1.0000
  H   H910      1.0  0.51476  0.10687  0.01306  1.0000
  C   C759      1.0  0.66686  0.48858  0.10325  1.0000
  C   C760      1.0  0.54592  0.09589  0.98874  1.0000
  H   H911      1.0  0.69248  0.20177  0.27526  1.0000
  H   H912      1.0  0.55638  0.19478  0.17613  1.0000
  H   H913      1.0  0.61351  0.06971  0.42653  1.0000
  H   H914      1.0  0.69475  0.20662  0.36466  1.0000
  C   C761      1.0  0.51796  0.19783  0.17824  1.0000
  H   H915      1.0  0.53480  0.44693  0.41141  1.0000
  N   N53       1.0  0.63328  0.07152  0.06081  1.0000
  C   C762      1.0  0.61936  0.07644  0.05114  1.0000
  C   C763      1.0  0.64572  0.07489  0.03824  1.0000
  C   C764      1.0  0.62531  0.05246  0.06497  1.0000
  C   C765      1.0  0.64194  0.08207  0.08644  1.0000
  C   C766      1.0  0.65157  0.10035  0.08510  1.0000
  C   C767      1.0  0.64002  0.07493  0.11349  1.0000
  H   H916      1.0  0.60969  0.07417  0.06740  1.0000
  H   H917      1.0  0.62446  0.09035  0.04574  1.0000
  H   H918      1.0  0.61234  0.06877  0.03206  1.0000
  H   H919      1.0  0.65047  0.08837  0.03071  1.0000
  H   H920      1.0  0.63965  0.06632  0.01929  1.0000
  H   H921      1.0  0.65713  0.07264  0.04542  1.0000
  H   H922      1.0  0.61451  0.04862  0.07953  1.0000
  H   H923      1.0  0.61936  0.04497  0.04498  1.0000
  H   H924      1.0  0.63505  0.04792  0.07289  1.0000
  H   H925      1.0  0.65302  0.10688  0.06548  1.0000
  H   H926      1.0  0.63279  0.06123  0.11670  1.0000
  N   N54       1.0  0.59936  0.04820  0.39779  1.0000
  H   H927      1.0  0.58479  0.16578  0.32014  1.0000
  H   H928      1.0  0.58250  0.05039  0.36507  1.0000
  S   S205      1.0  0.49654  0.14488  0.35351  1.0000
  N   N55       1.0  0.58290  0.34878  0.29287  1.0000
  C   C768      1.0  0.57559  0.34270  0.26400  1.0000
  C   C769      1.0  0.58762  0.33547  0.30556  1.0000
  C   C770      1.0  0.56894  0.34994  0.30933  1.0000
  C   C771      1.0  0.59848  0.36549  0.29210  1.0000
  C   C772      1.0  0.60046  0.38063  0.30794  1.0000
  C   C773      1.0  0.61232  0.36698  0.27506  1.0000
  C   C774      1.0  0.61513  0.39631  0.30599  1.0000
  C   C775      1.0  0.62681  0.38280  0.27300  1.0000
  C   C776      1.0  0.62815  0.39747  0.28828  1.0000
  H   H929      1.0  0.58419  0.33906  0.25110  1.0000
  H   H930      1.0  0.56308  0.33089  0.26397  1.0000
  H   H931      1.0  0.57311  0.35291  0.25297  1.0000
  H   H932      1.0  0.56477  0.35974  0.30075  1.0000
  H   H933      1.0  0.55723  0.33732  0.30893  1.0000
  H   H934      1.0  0.57302  0.35333  0.33178  1.0000
  H   H935      1.0  0.59065  0.38094  0.32131  1.0000
  H   H936      1.0  0.61193  0.35598  0.26287  1.0000
  H   H937      1.0  0.61613  0.40786  0.31746  1.0000
  H   H938      1.0  0.63697  0.38385  0.25914  1.0000
  H   H939      1.0  0.63913  0.40987  0.28597  1.0000
  C   C777      1.0  0.56768  0.15757  0.35434  1.0000
  C   C778      1.0  0.48967  0.14081  0.38868  1.0000
  C   C779      1.0  0.50569  0.37461  0.40563  1.0000
  H   H940      1.0  0.49165  0.11630  0.38895  1.0000
  H   H941      1.0  0.56071  0.16475  0.34634  1.0000
  H   H942      1.0  0.51207  0.42049  0.39824  1.0000
  H   H943      1.0  0.54938  0.16921  0.22791  1.0000
  H   H944      1.0  0.54032  0.07873  0.05348  1.0000
  S   S206      1.0  0.51013  0.35558  0.18915  1.0000
  H   H945      1.0  0.58067  0.47649  0.01007  1.0000
  S   S207      1.0  0.49454  0.12297  0.04147  1.0000
  H   H946      1.0  0.54372  0.15706  0.19557  1.0000
  H   H947      1.0  0.61114  0.04791  0.35873  1.0000
  C   C780      1.0  0.53312  0.10797  0.47542  1.0000
  C   C781      1.0  0.58838  0.05638  0.38590  1.0000
  C   C782      1.0  0.51723  0.41610  0.38094  1.0000
  C   C783      1.0  0.50286  0.36662  0.37860  1.0000
  C   C784      1.0  0.53498  0.41938  0.38088  1.0000
  C   C785      1.0  0.49272  0.37794  0.41851  1.0000
  C   C786      1.0  0.72606  0.26492  0.24830  1.0000
  C   C787      1.0  0.54161  0.44201  0.01417  1.0000
  C   C788      1.0  0.55251  0.21548  0.19679  1.0000
  H   H948      1.0  0.50669  0.24005  0.22625  1.0000
  C   C789      1.0  0.54036  0.41262  0.35747  1.0000
  Fe  Fe107     1.0  0.50170  0.34905  0.29893  1.0000
  H   H949      1.0  0.68189  0.18673  0.34594  1.0000
  H   H950      1.0  0.58799  0.14502  0.22766  1.0000
  C   C790      1.0  0.61479  0.05340  0.38051  1.0000
  H   H951      1.0  0.49567  0.21234  0.16179  1.0000
  C   C791      1.0  0.49303  0.36965  0.11699  1.0000
  C   C792      1.0  0.53662  0.12883  0.39993  1.0000
  N   N56       1.0  0.55394  0.40610  0.19106  1.0000
  C   C793      1.0  0.55773  0.39108  0.18354  1.0000
  C   C794      1.0  0.57044  0.42129  0.19919  1.0000
  C   C795      1.0  0.54332  0.40160  0.21620  1.0000
  C   C796      1.0  0.54528  0.41003  0.16650  1.0000
  C   C797      1.0  0.55453  0.41680  0.14208  1.0000
  C   C798      1.0  0.52740  0.40641  0.16535  1.0000
  C   C799      1.0  0.54649  0.42009  0.11831  1.0000
  C   C800      1.0  0.51952  0.40978  0.14147  1.0000
  C   C801      1.0  0.52902  0.41659  0.11802  1.0000
  H   H952      1.0  0.56661  0.39390  0.16597  1.0000
  H   H953      1.0  0.56390  0.38733  0.20148  1.0000
  H   H954      1.0  0.54563  0.37948  0.17702  1.0000
  H   H955      1.0  0.56835  0.43330  0.20211  1.0000
  H   H956      1.0  0.58050  0.42386  0.18358  1.0000
  H   H957      1.0  0.57638  0.41934  0.21918  1.0000
  H   H958      1.0  0.55043  0.39947  0.23469  1.0000
  H   H959      1.0  0.53946  0.41213  0.22231  1.0000
  H   H960      1.0  0.53148  0.38924  0.21280  1.0000
  H   H961      1.0  0.56800  0.41938  0.14097  1.0000
  H   H962      1.0  0.51909  0.40057  0.18234  1.0000
  H   H963      1.0  0.49809  0.37375  0.09663  1.0000
  H   H964      1.0  0.50581  0.40666  0.14089  1.0000
  C   C802      1.0  0.49691  0.34566  0.00984  1.0000
  N   N57       1.0  0.54699  0.42951  0.40434  1.0000
  H   H965      1.0  0.51566  0.36668  0.13258  1.0000
  C   C803      1.0  0.57928  0.13860  0.20998  1.0000
  C   C804      1.0  0.57918  0.00091  0.48143  1.0000
  C   C805      1.0  0.54064  0.22222  0.20346  1.0000
  H   H966      1.0  0.53375  0.14087  0.25251  1.0000
  H   H967      1.0  0.60660  0.13944  0.05334  1.0000
  H   H968      1.0  0.62459  0.04935  0.38982  1.0000
  C   C806      1.0  0.53362  0.10275  0.98905  1.0000
  H   H969      1.0  0.58005  0.11596  0.15104  1.0000
  H   H970      1.0  0.52253  0.23353  0.24029  1.0000
  C   C807      1.0  0.57315  0.02215  0.41189  1.0000
  H   H971      1.0  0.60258  0.15064  0.33604  1.0000
  H   H972      1.0  0.50475  0.19050  0.17056  1.0000
  H   H973      1.0  0.65766  0.48606  0.01745  1.0000
  C   C808      1.0  0.50300  0.36565  0.13750  1.0000
  C   C809      1.0  0.51127  0.40007  0.33657  1.0000
  S   S208      1.0  0.61452  0.12406  0.46793  1.0000
  H   H974      1.0  0.56568  0.41872  0.40057  1.0000
  H   H975      1.0  0.57609  0.32277  0.30678  1.0000
  H   H976      1.0  0.70035  0.24379  0.24776  1.0000
  S   S209      1.0  0.56691  0.11870  0.46262  1.0000
  C   C810      1.0  0.71225  0.22367  0.31932  1.0000
  C   C811      1.0  0.53853  0.08555  0.03561  1.0000
  H   H977      1.0  0.70507  0.19463  0.34789  1.0000
  H   H978      1.0  0.53810  0.37265  0.03169  1.0000
  C   C812      1.0  0.64716  0.08556  0.13754  1.0000
  H   H979      1.0  0.72217  0.27409  0.25854  1.0000
  Fe  Fe108     1.0  0.58624  0.10751  0.47035  1.0000
  H   H980      1.0  0.51805  0.37823  0.41657  1.0000
  H   H981      1.0  0.56225  0.14808  0.43636  1.0000
  C   C813      1.0  0.57448  0.00522  0.00312  1.0000
  C   C814      1.0  0.65638  0.10346  0.13543  1.0000
  H   H982      1.0  0.59331  0.33962  0.32720  1.0000
  H   H983      1.0  0.64528  0.07995  0.15804  1.0000
  H   H984      1.0  0.56605  0.17084  0.20445  1.0000
  C   C815      1.0  0.73196  0.48551  0.26611  1.0000
  C   C816      1.0  0.55257  0.12986  0.18207  1.0000
  H   H985      1.0  0.59818  0.15441  0.04149  1.0000
  N   N58       1.0  0.54891  0.14723  0.39663  1.0000
  C   C817      1.0  0.53877  0.13476  0.23638  1.0000
  C   C818      1.0  0.58769  0.14037  0.37218  1.0000
  H   H986      1.0  0.53961  0.12316  0.24554  1.0000
  C   C819      1.0  0.71360  0.24768  0.24221  1.0000
  H   H987      1.0  0.71602  0.26292  0.18343  1.0000
  C   C820      1.0  0.56258  0.13842  0.20665  1.0000
  C   C821      1.0  0.58932  0.02913  0.39902  1.0000
  C   C822      1.0  0.56733  0.15451  0.25234  1.0000
  H   H988      1.0  0.53166  0.12210  0.37917  1.0000
  H   H989      1.0  0.66143  0.11174  0.15415  1.0000
  H   H990      1.0  0.54257  0.12136  0.41167  1.0000
  C   C823      1.0  0.57379  0.13950  0.38775  1.0000
  C   C824      1.0  0.49551  0.20636  0.21650  1.0000
  H   H991      1.0  0.59515  0.02872  0.48226  1.0000
  S   S210      1.0  0.51591  0.09253  0.06683  1.0000
  H   H992      1.0  0.59827  0.13097  0.19288  1.0000
  C   C825      1.0  0.50256  0.22403  0.17579  1.0000
  S   S211      1.0  0.63899  0.47721  0.24354  1.0000
  C   C826      1.0  0.56502  0.43155  0.40137  1.0000
  C   C827      1.0  0.58211  0.01864  0.48235  1.0000
  H   H993      1.0  0.57144  0.13221  0.40667  1.0000
  H   H994      1.0  0.53959  0.40715  0.43006  1.0000
  C   C828      1.0  0.54094  0.42078  0.43107  1.0000
  H   H995      1.0  0.55352  0.41429  0.35538  1.0000
  C   C829      1.0  0.72427  0.22627  0.29803  1.0000
  H   H996      1.0  0.58010  0.16472  0.24705  1.0000
  C   C830      1.0  0.54749  0.44719  0.40617  1.0000
  C   C831      1.0  0.59560  0.01703  0.38919  1.0000
  H   H997      1.0  0.55705  0.45553  0.42271  1.0000
  C   C832      1.0  0.55589  0.15524  0.42477  1.0000
  H   H998      1.0  0.60789  0.02106  0.37962  1.0000
  H   H999      1.0  0.56592  0.22221  0.20423  1.0000
  H   H1000     1.0  0.70780  0.23477  0.15810  1.0000
  H   H1001     1.0  0.55265  0.12573  0.06137  1.0000
  S   S212      1.0  0.57084  0.04536  0.48421  1.0000
  H   H1002     1.0  0.68209  0.22180  0.29937  1.0000
  H   H1003     1.0  0.57371  0.43921  0.41935  1.0000
  H   H1004     1.0  0.52861  0.13021  0.21921  1.0000
  H   H1005     1.0  0.56942  0.14424  0.26394  1.0000
  C   C833      1.0  0.71682  0.23698  0.34052  1.0000
  H   H1006     1.0  0.59449  0.05329  0.44024  1.0000
  S   S213      1.0  0.51047  0.15438  0.21853  1.0000
  H   H1007     1.0  0.57778  0.05534  0.39966  1.0000
  H   H1008     1.0  0.65204  0.48178  0.06510  1.0000
  H   H1009     1.0  0.70257  0.19054  0.29571  1.0000
  C   C834      1.0  0.54715  0.19999  0.18103  1.0000
  H   H1010     1.0  0.52799  0.15531  0.39763  1.0000
  C   C835      1.0  0.73221  0.25212  0.34002  1.0000
  C   C836      1.0  0.58539  0.13052  0.19008  1.0000
  C   C837      1.0  0.62998  0.48984  0.12429  1.0000
  C   C838      1.0  0.57514  0.12206  0.16641  1.0000
  C   C839      1.0  0.55876  0.12173  0.16238  1.0000
  H   H1011     1.0  0.55118  0.45385  0.38599  1.0000
  S   S214      1.0  0.53066  0.42491  0.03620  1.0000
  H   H1012     1.0  0.53288  0.39775  0.31844  1.0000
  H   H1013     1.0  0.53303  0.15084  0.36343  1.0000
  H   H1014     1.0  0.61328  0.04928  0.43669  1.0000
  Fe  Fe109     1.0  0.50230  0.41060  0.02533  1.0000
  C   C840      1.0  0.55368  0.16170  0.21306  1.0000
  C   C841      1.0  0.60542  0.05544  0.42654  1.0000
  C   C842      1.0  0.54539  0.08714  0.48152  1.0000
  Fe  Fe110     1.0  0.68559  0.48155  0.26248  1.0000
  H   H1015     1.0  0.52694  0.24703  0.21001  1.0000
  H   H1016     1.0  0.59594  0.07062  0.38329  1.0000
  H   H1017     1.0  0.55659  0.08060  0.01091  1.0000
  C   C843      1.0  0.53959  0.45682  0.48481  1.0000
  C   C844      1.0  0.55134  0.00979  0.48358  1.0000
  C   C845      1.0  0.49688  0.36062  0.16440  1.0000
  C   C846      1.0  0.49820  0.14898  0.18618  1.0000
  H   H1018     1.0  0.58262  0.00719  0.02185  1.0000
  C   C847      1.0  0.72050  0.24523  0.15570  1.0000
  C   C848      1.0  0.54704  0.10348  0.47335  1.0000
  H   H1019     1.0  0.70835  0.23592  0.35735  1.0000
  C   C849      1.0  0.58619  0.99912  0.39216  1.0000
  H   H1020     1.0  0.49200  0.40372  0.36003  1.0000
  H   H1021     1.0  0.56198  0.12492  0.02908  1.0000
  C   C850      1.0  0.73240  0.24261  0.13923  1.0000
  C   C851      1.0  0.50051  0.34607  0.06036  1.0000
  C   C852      1.0  0.56819  0.02323  0.48348  1.0000
  Fe  Fe111     1.0  0.65385  0.48591  0.28513  1.0000
  S   S215      1.0  0.57037  0.48143  0.46910  1.0000
  H   H1022     1.0  0.54045  0.01311  0.48394  1.0000
  C   C853      1.0  0.72513  0.26111  0.16993  1.0000
  C   C854      1.0  0.52286  0.21341  0.19466  1.0000
  N   N59       1.0  0.50980  0.21990  0.20180  1.0000
  H   H1023     1.0  0.53430  0.12055  0.46885  1.0000
  S   S216      1.0  0.49171  0.38183  0.02863  1.0000
  H   H1024     1.0  0.49304  0.22943  0.18044  1.0000
  H   H1025     1.0  0.52571  0.17910  0.15957  1.0000
  S   S217      1.0  0.49145  0.17284  0.28552  1.0000
  H   H1026     1.0  0.52597  0.36251  0.07772  1.0000
  C   C855      1.0  0.51787  0.35768  0.05873  1.0000
  S   S218      1.0  0.71182  0.48295  0.27984  1.0000
  S   S219      1.0  0.63716  0.49025  0.31851  1.0000
  H   H1027     1.0  0.55156  0.99925  0.42457  1.0000
  H   H1028     1.0  0.49631  0.12733  0.12403  1.0000
  C   C856      1.0  0.66312  0.49190  0.07586  1.0000
  C   C857      1.0  0.48936  0.34000  0.03601  1.0000
  Fe  Fe112     1.0  0.49270  0.09694  0.05402  1.0000
  H   H1029     1.0  0.48809  0.19454  0.20314  1.0000
  H   H1030     1.0  0.49579  0.34214  0.08096  1.0000
  C   C858      1.0  0.73575  0.24107  0.22206  1.0000
  C   C859      1.0  0.73598  0.48962  0.23826  1.0000
  H   H1031     1.0  0.61431  0.49024  0.36091  1.0000
  C   C860      1.0  0.53366  0.44397  0.98924  1.0000
  C   C861      1.0  0.56374  0.00424  0.41426  1.0000
  H   H1032     1.0  0.72647  0.49087  0.22404  1.0000
  H   H1033     1.0  0.73526  0.26229  0.35605  1.0000
  C   C862      1.0  0.57032  0.99275  0.40476  1.0000
  C   C863      1.0  0.51788  0.09644  0.48721  1.0000
  H   H1034     1.0  0.48958  0.34180  0.99011  1.0000
  H   H1035     1.0  0.51962  0.36182  0.98833  1.0000
  C   C864      1.0  0.57457  0.43636  0.65038  1.0000
  H   H1036     1.0  0.55505  0.44622  0.87632  1.0000
  C   C865      1.0  0.72957  0.48528  0.75874  1.0000
  H   H1037     1.0  0.53952  0.48152  0.55374  1.0000
  Fe  Fe113     1.0  0.61724  0.10982  0.50612  1.0000
  H   H1038     1.0  0.58893  0.46386  0.54215  1.0000
  S   S220      1.0  0.63568  0.12867  0.54032  1.0000
  C   C866      1.0  0.56050  0.45021  0.57116  1.0000
  C   C867      1.0  0.49431  0.21055  0.72546  1.0000
  Fe  Fe114     1.0  0.61464  0.09754  0.94030  1.0000
  S   S221      1.0  0.62660  0.10221  0.89714  1.0000
  S   S222      1.0  0.58859  0.09461  0.50986  1.0000
  H   H1039     1.0  0.53169  0.10944  0.97114  1.0000
  Fe  Fe115     1.0  0.64997  0.16130  0.70466  1.0000
  S   S223      1.0  0.65404  0.18790  0.69167  1.0000
  S   S224      1.0  0.64454  0.13825  0.67397  1.0000
  Fe  Fe116     1.0  0.65214  0.17147  0.76761  1.0000
  S   S225      1.0  0.65654  0.19909  0.75790  1.0000
  S   S226      1.0  0.64865  0.16627  0.81460  1.0000
  Fe  Fe117     1.0  0.63554  0.18649  0.72468  1.0000
  S   S227      1.0  0.61392  0.19428  0.71376  1.0000
  Fe  Fe118     1.0  0.67510  0.19842  0.72598  1.0000
  S   S228      1.0  0.69925  0.22153  0.71091  1.0000
  S   S229      1.0  0.62998  0.15921  0.73585  1.0000
  S   S230      1.0  0.67216  0.17153  0.73744  1.0000
  C   C868      1.0  0.59014  0.44688  0.66459  1.0000
  S   S231      1.0  0.52605  0.19752  0.82510  1.0000
  S   S232      1.0  0.55947  0.09988  0.96052  1.0000
  H   H1040     1.0  0.58725  0.14044  0.64070  1.0000
  S   S233      1.0  0.52563  0.19364  0.75711  1.0000
  Fe  Fe119     1.0  0.53253  0.18139  0.79395  1.0000
  S   S234      1.0  0.55713  0.17816  0.80426  1.0000
  Fe  Fe120     1.0  0.51690  0.20822  0.78840  1.0000
  S   S235      1.0  0.52715  0.23802  0.78497  1.0000
  S   S236      1.0  0.50660  0.15841  0.79456  1.0000
  S   S237      1.0  0.66645  0.47627  0.72069  1.0000
  S   S238      1.0  0.66014  0.47092  0.78803  1.0000
  S   S239      1.0  0.49904  0.06732  0.51587  1.0000
  Fe  Fe121     1.0  0.64365  0.46580  0.74824  1.0000
  S   S240      1.0  0.61822  0.44360  0.73283  1.0000
  Fe  Fe122     1.0  0.50202  0.35548  0.79796  1.0000
  S   S241      1.0  0.52006  0.34316  0.80881  1.0000
  Fe  Fe123     1.0  0.51058  0.35761  0.73451  1.0000
  S   S242      1.0  0.52965  0.34570  0.74155  1.0000
  Fe  Fe124     1.0  0.50965  0.32665  0.76903  1.0000
  S   S243      1.0  0.49870  0.29664  0.76703  1.0000
  Fe  Fe125     1.0  0.53868  0.36287  0.78082  1.0000
  S   S244      1.0  0.56563  0.37994  0.79934  1.0000
  S   S245      1.0  0.52125  0.37586  0.77216  1.0000
  C   C869      1.0  0.48819  0.12858  0.64306  1.0000
  S   S246      1.0  0.50829  0.45026  0.54896  1.0000
  C   C870      1.0  0.69893  0.47556  0.68105  1.0000
  H   H1041     1.0  0.53543  0.17451  0.93257  1.0000
  H   H1042     1.0  0.55833  0.43640  0.56814  1.0000
  C   C871      1.0  0.52567  0.45875  0.52719  1.0000
  C   C872      1.0  0.53956  0.47460  0.53452  1.0000
  C   C873      1.0  0.55357  0.48142  0.51712  1.0000
  C   C874      1.0  0.57416  0.45276  0.84475  1.0000
  S   S247      1.0  0.60845  0.11660  0.96540  1.0000
  H   H1043     1.0  0.70796  0.47660  0.69820  1.0000
  C   C875      1.0  0.59725  0.47397  0.88693  1.0000
  H   H1044     1.0  0.56671  0.02767  0.95040  1.0000
  H   H1045     1.0  0.71813  0.23032  0.76622  1.0000
  C   C876      1.0  0.50088  0.13441  0.66517  1.0000
  H   H1046     1.0  0.51251  0.04120  0.53431  1.0000
  H   H1047     1.0  0.69763  0.17961  0.60390  1.0000
  C   C877      1.0  0.58025  0.39745  0.78054  1.0000
  C   C878      1.0  0.57557  0.40149  0.75427  1.0000
  C   C879      1.0  0.58745  0.41553  0.73986  1.0000
  C   C880      1.0  0.60409  0.42574  0.75160  1.0000
  C   C881      1.0  0.60878  0.42174  0.77794  1.0000
  C   C882      1.0  0.59687  0.40768  0.79239  1.0000
  H   H1048     1.0  0.56284  0.39367  0.74488  1.0000
  H   H1049     1.0  0.58372  0.41844  0.71945  1.0000
  H   H1050     1.0  0.62165  0.42930  0.78698  1.0000
  H   H1051     1.0  0.60065  0.40454  0.81260  1.0000
  C   C883      1.0  0.51875  0.25406  0.78130  1.0000
  C   C884      1.0  0.50110  0.24972  0.77681  1.0000
  H   H1052     1.0  0.51847  0.24623  0.68978  1.0000
  C   C885      1.0  0.50693  0.28064  0.77304  1.0000
  C   C886      1.0  0.55115  0.15911  0.89986  1.0000
  H   H1053     1.0  0.59351  0.44322  0.68478  1.0000
  H   H1054     1.0  0.59085  0.44955  0.76906  1.0000
  C   C887      1.0  0.56639  0.13048  0.60918  1.0000
  C   C888      1.0  0.50298  0.99957  0.51281  1.0000
  C   C889      1.0  0.59813  0.18979  0.73887  1.0000
  C   C890      1.0  0.58198  0.18944  0.73117  1.0000
  C   C891      1.0  0.56930  0.18610  0.75108  1.0000
  C   C892      1.0  0.57287  0.18337  0.77887  1.0000
  C   C893      1.0  0.58922  0.18428  0.78669  1.0000
  C   C894      1.0  0.60177  0.18729  0.76672  1.0000
  H   H1055     1.0  0.57920  0.19156  0.70968  1.0000
  H   H1056     1.0  0.55675  0.18548  0.74487  1.0000
  H   H1057     1.0  0.59221  0.18277  0.80832  1.0000
  H   H1058     1.0  0.61438  0.18806  0.77293  1.0000
  C   C895      1.0  0.63272  0.12021  0.87458  1.0000
  C   C896      1.0  0.63615  0.11795  0.84651  1.0000
  C   C897      1.0  0.64100  0.13178  0.82781  1.0000
  C   C898      1.0  0.64282  0.14823  0.83708  1.0000
  C   C899      1.0  0.63945  0.15050  0.86517  1.0000
  C   C900      1.0  0.63428  0.13659  0.88372  1.0000
  H   H1059     1.0  0.63502  0.10536  0.83918  1.0000
  H   H1060     1.0  0.64355  0.12976  0.80636  1.0000
  H   H1061     1.0  0.64081  0.16314  0.87266  1.0000
  H   H1062     1.0  0.63178  0.13861  0.90520  1.0000
  C   C901      1.0  0.63542  0.13089  0.57753  1.0000
  C   C902      1.0  0.63031  0.11657  0.59479  1.0000
  C   C903      1.0  0.63282  0.11909  0.62421  1.0000
  C   C904      1.0  0.64008  0.13590  0.63692  1.0000
  C   C905      1.0  0.64448  0.15019  0.61969  1.0000
  C   C906      1.0  0.64242  0.14769  0.59025  1.0000
  H   H1063     1.0  0.62514  0.10358  0.58545  1.0000
  H   H1064     1.0  0.62937  0.10790  0.63720  1.0000
  H   H1065     1.0  0.64991  0.16321  0.62889  1.0000
  H   H1066     1.0  0.64656  0.15888  0.57718  1.0000
  H   H1067     1.0  0.50902  0.14800  0.70559  1.0000
  H   H1068     1.0  0.56217  0.09759  0.89776  1.0000
  C   C907      1.0  0.69170  0.16564  0.60538  1.0000
  S   S248      1.0  0.62473  0.08872  0.97865  1.0000
  C   C908      1.0  0.58539  0.44929  0.79001  1.0000
  Fe  Fe126     1.0  0.49968  0.17522  0.82410  1.0000
  H   H1069     1.0  0.57352  0.45139  0.78598  1.0000
  H   H1070     1.0  0.55639  0.13289  0.95000  1.0000
  C   C909      1.0  0.49528  0.26290  0.77258  1.0000
  C   C910      1.0  0.60302  0.47325  0.86013  1.0000
  C   C911      1.0  0.67366  0.47109  0.63924  1.0000
  H   H1071     1.0  0.55038  0.45086  0.58467  1.0000
  C   C912      1.0  0.54341  0.20151  0.68685  1.0000
  C   C913      1.0  0.57295  0.14277  0.91579  1.0000
  C   C914      1.0  0.50485  0.02758  0.52871  1.0000
  S   S249      1.0  0.50809  0.37291  0.69631  1.0000
  C   C915      1.0  0.55029  0.18584  0.88332  1.0000
  C   C916      1.0  0.71897  0.23901  0.72408  1.0000
  H   H1072     1.0  0.60431  0.46806  0.57065  1.0000
  C   C917      1.0  0.55894  0.14082  0.93169  1.0000
  C   C918      1.0  0.59738  0.46678  0.62653  1.0000
  H   H1073     1.0  0.64968  0.48764  0.65830  1.0000
  H   H1074     1.0  0.60670  0.47859  0.61807  1.0000
  C   C919      1.0  0.52809  0.16800  0.91286  1.0000
  S   S250      1.0  0.58801  0.07557  0.94221  1.0000
  H   H1075     1.0  0.56150  0.22639  0.70379  1.0000
  N   N60       1.0  0.53982  0.16755  0.89090  1.0000
  H   H1076     1.0  0.53736  0.14645  0.93706  1.0000
  H   H1077     1.0  0.49876  0.39215  0.73583  1.0000
  H   H1078     1.0  0.54209  0.19294  0.87924  1.0000
  H   H1079     1.0  0.68657  0.44770  0.68377  1.0000
  H   H1080     1.0  0.69183  0.18769  0.68148  1.0000
  S   S251      1.0  0.48989  0.18698  0.78919  1.0000
  C   C920      1.0  0.59170  0.46258  0.83819  1.0000
  C   C921      1.0  0.49139  0.38404  0.62105  1.0000
  H   H1081     1.0  0.50998  0.39761  0.65478  1.0000
  N   N61       1.0  0.59802  0.46280  0.80965  1.0000
  C   C922      1.0  0.56555  0.01680  0.96301  1.0000
  H   H1082     1.0  0.52111  0.14399  0.87075  1.0000
  C   C923      1.0  0.52576  0.44977  0.50247  1.0000
  H   H1083     1.0  0.55720  0.18681  0.86368  1.0000
  H   H1084     1.0  0.55821  0.45441  0.55005  1.0000
  H   H1085     1.0  0.62514  0.47072  0.82161  1.0000
  H   H1086     1.0  0.67121  0.13010  0.56188  1.0000
  H   H1087     1.0  0.68110  0.15009  0.68722  1.0000
  H   H1088     1.0  0.57642  0.48319  0.56316  1.0000
  C   C924      1.0  0.68517  0.15574  0.58052  1.0000
  C   C925      1.0  0.69008  0.15769  0.63169  1.0000
  C   C926      1.0  0.68660  0.45889  0.67309  1.0000
  Fe  Fe127     1.0  0.59734  0.06806  0.98221  1.0000
  S   S252      1.0  0.70676  0.47675  0.76389  1.0000
  H   H1089     1.0  0.67872  0.13198  0.65045  1.0000
  S   S253      1.0  0.49119  0.11681  0.61386  1.0000
  H   H1090     1.0  0.66426  0.44374  0.64650  1.0000
  C   C927      1.0  0.61404  0.45992  0.81066  1.0000
  H   H1091     1.0  0.63626  0.48118  0.61008  1.0000
  S   S254      1.0  0.49264  0.11029  0.53490  1.0000
  C   C928      1.0  0.53543  0.22433  0.70254  1.0000
  C   C929      1.0  0.54806  0.21823  0.69800  1.0000
  H   H1092     1.0  0.55320  0.19673  0.68382  1.0000
  H   H1093     1.0  0.52003  0.16351  0.85881  1.0000
  C   C930      1.0  0.57034  0.44094  0.62412  1.0000
  C   C931      1.0  0.59070  0.45973  0.56359  1.0000
  Fe  Fe128     1.0  0.48928  0.42440  0.53112  1.0000
  H   H1094     1.0  0.48841  0.19615  0.72214  1.0000
  C   C932      1.0  0.51763  0.21377  0.69572  1.0000
  C   C933      1.0  0.56851  0.45357  0.87170  1.0000
  H   H1095     1.0  0.53464  0.41102  0.97774  1.0000
  Fe  Fe129     1.0  0.68325  0.48376  0.76065  1.0000
  H   H1096     1.0  0.49844  0.22032  0.65689  1.0000
  H   H1097     1.0  0.49431  0.39558  0.60912  1.0000
  H   H1098     1.0  0.56580  0.42449  0.65974  1.0000
  N   N62       1.0  0.54821  0.39193  0.87610  1.0000
  C   C934      1.0  0.55690  0.40739  0.85891  1.0000
  C   C935      1.0  0.55990  0.38322  0.88034  1.0000
  C   C936      1.0  0.53268  0.37976  0.85941  1.0000
  C   C937      1.0  0.54417  0.39719  0.90370  1.0000
  C   C938      1.0  0.52747  0.38920  0.91482  1.0000
  C   C939      1.0  0.55731  0.41027  0.92086  1.0000
  C   C940      1.0  0.52417  0.39422  0.94118  1.0000
  C   C941      1.0  0.55381  0.41530  0.94711  1.0000
  C   C942      1.0  0.53729  0.40723  0.95728  1.0000
  H   H1099     1.0  0.56980  0.41641  0.86794  1.0000
  H   H1100     1.0  0.55928  0.40363  0.83754  1.0000
  H   H1101     1.0  0.54877  0.41468  0.85638  1.0000
  H   H1102     1.0  0.56299  0.37874  0.86003  1.0000
  H   H1103     1.0  0.55388  0.37156  0.89329  1.0000
  H   H1104     1.0  0.57243  0.39198  0.89097  1.0000
  H   H1105     1.0  0.52314  0.38539  0.85596  1.0000
  H   H1106     1.0  0.53606  0.37678  0.83828  1.0000
  H   H1107     1.0  0.52617  0.36700  0.86942  1.0000
  H   H1108     1.0  0.51670  0.37900  0.90360  1.0000
  H   H1109     1.0  0.57043  0.41663  0.91427  1.0000
  H   H1110     1.0  0.51130  0.38801  0.94921  1.0000
  H   H1111     1.0  0.56393  0.42549  0.95980  1.0000
  H   H1112     1.0  0.61851  0.45907  0.78931  1.0000
  C   C943      1.0  0.51059  0.23865  0.70701  1.0000
  H   H1113     1.0  0.53651  0.45902  0.95236  1.0000
  H   H1114     1.0  0.51208  0.13158  0.66411  1.0000
  C   C944      1.0  0.49662  0.37038  0.66325  1.0000
  H   H1115     1.0  0.66197  0.24486  0.69558  1.0000
  N   N63       1.0  0.67375  0.25365  0.73706  1.0000
  C   C945      1.0  0.68128  0.27208  0.72896  1.0000
  C   C946      1.0  0.68665  0.25072  0.75525  1.0000
  C   C947      1.0  0.67082  0.24270  0.71109  1.0000
  C   C948      1.0  0.65783  0.24987  0.75236  1.0000
  C   C949      1.0  0.64119  0.23774  0.74207  1.0000
  C   C950      1.0  0.65860  0.25883  0.77813  1.0000
  C   C951      1.0  0.62640  0.23479  0.75683  1.0000
  C   C952      1.0  0.64373  0.25562  0.79283  1.0000
  C   C953      1.0  0.62765  0.24360  0.78220  1.0000
  H   H1116     1.0  0.68535  0.28124  0.74745  1.0000
  H   H1117     1.0  0.69300  0.27527  0.71657  1.0000
  H   H1118     1.0  0.67177  0.27496  0.71600  1.0000
  H   H1119     1.0  0.69057  0.25915  0.77454  1.0000
  H   H1120     1.0  0.69877  0.25355  0.74425  1.0000
  H   H1121     1.0  0.68159  0.23696  0.76165  1.0000
  H   H1122     1.0  0.68310  0.24557  0.70043  1.0000
  H   H1123     1.0  0.63917  0.23025  0.72272  1.0000
  H   H1124     1.0  0.67073  0.26842  0.78709  1.0000
  H   H1125     1.0  0.61385  0.22550  0.74852  1.0000
  H   H1126     1.0  0.64464  0.26252  0.81256  1.0000
  H   H1127     1.0  0.61610  0.24108  0.79356  1.0000
  N   N64       1.0  0.54320  0.11837  0.56972  1.0000
  C   C954      1.0  0.54447  0.12770  0.54332  1.0000
  C   C955      1.0  0.53421  0.09939  0.56343  1.0000
  C   C956      1.0  0.53221  0.12314  0.58845  1.0000
  C   C957      1.0  0.56075  0.12271  0.58192  1.0000
  C   C958      1.0  0.57285  0.11916  0.56634  1.0000
  C   C959      1.0  0.58956  0.12325  0.57727  1.0000
  C   C960      1.0  0.59465  0.13087  0.60400  1.0000
  H   H1128     1.0  0.55130  0.12378  0.52712  1.0000
  H   H1129     1.0  0.53148  0.12500  0.53376  1.0000
  H   H1130     1.0  0.55160  0.14201  0.54703  1.0000
  H   H1131     1.0  0.54059  0.09497  0.54711  1.0000
  H   H1132     1.0  0.52064  0.09549  0.55541  1.0000
  H   H1133     1.0  0.53372  0.09186  0.58246  1.0000
  H   H1134     1.0  0.51917  0.11982  0.57864  1.0000
  H   H1135     1.0  0.56951  0.11321  0.54550  1.0000
  H   H1136     1.0  0.59863  0.12053  0.56491  1.0000
  H   H1137     1.0  0.60757  0.13399  0.61246  1.0000
  N   N65       1.0  0.58816  0.13579  0.80717  1.0000
  C   C961      1.0  0.59586  0.12680  0.78896  1.0000
  C   C962      1.0  0.57543  0.13939  0.78954  1.0000
  C   C963      1.0  0.60198  0.15273  0.81710  1.0000
  C   C964      1.0  0.58061  0.12514  0.83164  1.0000
  C   C965      1.0  0.59088  0.11953  0.84918  1.0000
  C   C966      1.0  0.56327  0.12042  0.83925  1.0000
  C   C967      1.0  0.58427  0.10968  0.87263  1.0000
  C   C968      1.0  0.55676  0.11054  0.86281  1.0000
  C   C969      1.0  0.56722  0.10517  0.87943  1.0000
  H   H1138     1.0  0.58635  0.11329  0.78324  1.0000
  H   H1139     1.0  0.60037  0.13374  0.76920  1.0000
  H   H1140     1.0  0.60748  0.12612  0.79907  1.0000
  H   H1141     1.0  0.56468  0.12715  0.78120  1.0000
  H   H1142     1.0  0.58150  0.14720  0.77113  1.0000
  H   H1143     1.0  0.56992  0.14720  0.80126  1.0000
  H   H1144     1.0  0.61222  0.15119  0.83005  1.0000
  H   H1145     1.0  0.60861  0.16088  0.79936  1.0000
  H   H1146     1.0  0.59676  0.16020  0.83018  1.0000
  H   H1147     1.0  0.60420  0.12275  0.84493  1.0000
  H   H1148     1.0  0.55450  0.12423  0.82745  1.0000
  H   H1149     1.0  0.59245  0.10552  0.88560  1.0000
  H   H1150     1.0  0.54355  0.10710  0.86844  1.0000
  N   N66       1.0  0.57819  0.46127  0.58299  1.0000
  H   H1151     1.0  0.61362  0.47025  0.66382  1.0000
  H   H1152     1.0  0.66782  0.11546  0.60687  1.0000
  C   C970      1.0  0.58003  0.46414  0.89273  1.0000
  C   C971      1.0  0.58173  0.45635  0.61131  1.0000
  S   S255      1.0  0.57049  0.48682  0.95798  1.0000
  C   C972      1.0  0.67399  0.45666  0.65223  1.0000
  H   H1153     1.0  0.51861  0.24264  0.72688  1.0000
  H   H1154     1.0  0.58119  0.13642  0.92188  1.0000
  H   H1155     1.0  0.51518  0.43740  0.49689  1.0000
  C   C973      1.0  0.67496  0.12947  0.60648  1.0000
  H   H1156     1.0  0.71790  0.18965  0.63914  1.0000
  H   H1157     1.0  0.51837  0.15476  0.91753  1.0000
  H   H1158     1.0  0.66361  0.46936  0.62339  1.0000
  C   C974      1.0  0.49918  0.14373  0.68879  1.0000
  H   H1159     1.0  0.54566  0.99774  0.93566  1.0000
  H   H1160     1.0  0.70043  0.16668  0.70241  1.0000
  Fe  Fe130     1.0  0.49908  0.17179  0.75944  1.0000
  C   C975      1.0  0.51665  0.08050  0.49687  1.0000
  C   C976      1.0  0.60149  0.46210  0.65272  1.0000
  H   H1161     1.0  0.70172  0.14953  0.68157  1.0000
  H   H1162     1.0  0.58182  0.43597  0.79782  1.0000
  N   N67       1.0  0.50385  0.21961  0.70101  1.0000
  S   S256      1.0  0.64165  0.49124  0.75129  1.0000
  H   H1163     1.0  0.52035  0.17521  0.90609  1.0000
  C   C977      1.0  0.53040  0.27178  0.78157  1.0000
  C   C978      1.0  0.52457  0.28497  0.77764  1.0000
  H   H1164     1.0  0.66539  0.22861  0.71569  1.0000
  H   H1165     1.0  0.52990  0.11594  0.60826  1.0000
  H   H1166     1.0  0.57223  0.48172  0.59985  1.0000
  H   H1167     1.0  0.53375  0.29847  0.77795  1.0000
  H   H1168     1.0  0.49978  0.35850  0.50976  1.0000
  C   C979      1.0  0.68592  0.48784  0.64703  1.0000
  H   H1169     1.0  0.56778  0.16719  0.86418  1.0000
  C   C980      1.0  0.50026  0.38515  0.64706  1.0000
  H   H1170     1.0  0.56453  0.44455  0.82933  1.0000
  Fe  Fe131     1.0  0.58262  0.09429  0.96952  1.0000
  C   C981      1.0  0.72522  0.24030  0.75188  1.0000
  C   C982      1.0  0.54811  0.14877  0.92395  1.0000
  C   C983      1.0  0.68137  0.13922  0.63151  1.0000
  H   H1171     1.0  0.55815  0.13363  0.62268  1.0000
  H   H1172     1.0  0.58684  0.15367  0.87926  1.0000
  H   H1173     1.0  0.68888  0.18846  0.64451  1.0000
  C   C984      1.0  0.57607  0.15248  0.89175  1.0000
  C   C985      1.0  0.53020  0.07564  0.49328  1.0000
  H   H1174     1.0  0.53699  0.15794  0.84806  1.0000
  C   C986      1.0  0.54270  0.45754  0.97162  1.0000
  H   H1175     1.0  0.53990  0.23719  0.71210  1.0000
  H   H1176     1.0  0.53787  0.13735  0.59352  1.0000
  C   C987      1.0  0.55960  0.46935  0.97922  1.0000
  S   S257      1.0  0.49583  0.40154  0.52849  1.0000
  C   C988      1.0  0.56521  0.16032  0.88356  1.0000
  H   H1177     1.0  0.57558  0.46496  0.91348  1.0000
  C   C989      1.0  0.58313  0.13448  0.61991  1.0000
  N   N68       1.0  0.69682  0.16851  0.65777  1.0000
  H   H1178     1.0  0.58943  0.44614  0.56198  1.0000
  H   H1179     1.0  0.54410  0.27537  0.78485  1.0000
  H   H1180     1.0  0.72105  0.18781  0.67559  1.0000
  C   C990      1.0  0.71548  0.18003  0.65577  1.0000
  H   H1181     1.0  0.61200  0.44770  0.82131  1.0000
  H   H1182     1.0  0.48730  0.34161  0.86679  1.0000
  H   H1183     1.0  0.55811  0.43215  0.61429  1.0000
  H   H1184     1.0  0.49191  0.23623  0.77656  1.0000
  H   H1185     1.0  0.56001  0.19311  0.90034  1.0000
  C   C991      1.0  0.52904  0.15783  0.86606  1.0000
  H   H1186     1.0  0.67328  0.17122  0.66318  1.0000
  C   C992      1.0  0.67685  0.13769  0.58107  1.0000
  C   C993      1.0  0.55359  0.99975  0.95468  1.0000
  C   C994      1.0  0.72848  0.25227  0.70594  1.0000
  C   C995      1.0  0.69496  0.15819  0.68326  1.0000
  C   C996      1.0  0.68734  0.17947  0.66187  1.0000
  C   C997      1.0  0.51288  0.01707  0.52055  1.0000
  C   C998      1.0  0.52610  0.19075  0.68036  1.0000
  C   C999      1.0  0.49150  0.21534  0.67639  1.0000
  H   H1187     1.0  0.60615  0.48248  0.90318  1.0000
  H   H1188     1.0  0.48953  0.33063  0.53702  1.0000
  C   C1000     1.0  0.58024  0.47956  0.58365  1.0000
  H   H1189     1.0  0.61641  0.48145  0.85658  1.0000
  H   H1190     1.0  0.49350  0.38979  0.77203  1.0000
  H   H1191     1.0  0.52688  0.02264  0.51993  1.0000
  H   H1192     1.0  0.73031  0.46045  0.76465  1.0000
  H   H1193     1.0  0.60696  0.48088  0.77633  1.0000
  H   H1194     1.0  0.50000  0.24284  0.71003  1.0000
  H   H1195     1.0  0.61198  0.49078  0.81062  1.0000
  C   C1001     1.0  0.60194  0.47999  0.79772  1.0000
  H   H1196     1.0  0.68602  0.16205  0.56074  1.0000
  H   H1197     1.0  0.72384  0.25154  0.68441  1.0000
  H   H1198     1.0  0.49231  0.48687  0.53434  1.0000
  H   H1199     1.0  0.59389  0.48911  0.58789  1.0000
  H   H1200     1.0  0.50009  0.18748  0.68079  1.0000
  H   H1201     1.0  0.50310  0.21366  0.74444  1.0000
  C   C1002     1.0  0.51337  0.19668  0.68494  1.0000
  S   S258      1.0  0.49005  0.33783  0.75982  1.0000
  S   S259      1.0  0.48772  0.16865  0.86722  1.0000
  H   H1202     1.0  0.52922  0.06323  0.50033  1.0000
  C   C1003     1.0  0.69907  0.49058  0.66811  1.0000
  S   S260      1.0  0.48699  0.40990  0.98583  1.0000
  H   H1203     1.0  0.59027  0.48269  0.79641  1.0000
  H   H1204     1.0  0.52242  0.17758  0.67235  1.0000
  C   C1004     1.0  0.55355  0.47263  0.49213  1.0000
  H   H1205     1.0  0.72294  0.17230  0.65122  1.0000
  H   H1206     1.0  0.48851  0.13423  0.86385  1.0000
  S   S261      1.0  0.48929  0.36829  0.82662  1.0000
  H   H1207     1.0  0.49257  0.40737  0.75328  1.0000
  H   H1208     1.0  0.50760  0.99418  0.97880  1.0000
  H   H1209     1.0  0.50721  0.09999  0.48915  1.0000
  C   C1005     1.0  0.48985  0.39340  0.75129  1.0000
  H   H1210     1.0  0.52061  0.43498  0.98337  1.0000
  C   C1006     1.0  0.57622  0.01967  0.98721  1.0000
  S   S262      1.0  0.55997  0.60231  0.46630  1.0000
  H   H1211     1.0  0.56279  0.86508  0.01608  1.0000
  H   H1212     1.0  0.56327  0.97892  0.40780  1.0000
  C   C1007     1.0  0.50595  0.87409  0.13283  1.0000
  H   H1213     1.0  0.57846  0.63837  0.47838  1.0000
  Fe  Fe132     1.0  0.51710  0.90281  0.44969  1.0000
  S   S263      1.0  0.51447  0.87903  0.42280  1.0000
  Fe  Fe133     1.0  0.51349  0.90572  0.01399  1.0000
  S   S264      1.0  0.51817  0.90101  0.06039  1.0000
  S   S265      1.0  0.51925  0.92918  0.43769  1.0000
  S   S266      1.0  0.50404  0.92631  0.00395  1.0000
  H   H1214     1.0  0.50661  0.61653  0.12716  1.0000
  H   H1215     1.0  0.64244  0.49389  0.03042  1.0000
  C   C1008     1.0  0.63276  0.50356  0.10609  1.0000
  H   H1216     1.0  0.58689  0.64928  0.08548  1.0000
  S   S267      1.0  0.50049  0.65587  0.30405  1.0000
  H   H1217     1.0  0.51512  0.82507  0.07736  1.0000
  C   C1009     1.0  0.49741  0.64514  0.33673  1.0000
  S   S268      1.0  0.50086  0.83117  0.22981  1.0000
  H   H1218     1.0  0.54810  0.55088  0.44605  1.0000
  S   S269      1.0  0.66458  0.51343  0.19021  1.0000
  Fe  Fe134     1.0  0.63025  0.52758  0.46992  1.0000
  H   H1219     1.0  0.50268  0.84783  0.38774  1.0000
  H   H1220     1.0  0.69458  0.53334  0.07305  1.0000
  S   S270      1.0  0.67817  0.50422  0.26522  1.0000
  H   H1221     1.0  0.56519  0.64984  0.03309  1.0000
  C   C1010     1.0  0.56236  0.98818  0.99496  1.0000
  S   S271      1.0  0.62094  0.49884  0.07312  1.0000
  C   C1011     1.0  0.65794  0.51271  0.36186  1.0000
  H   H1222     1.0  0.65293  0.52392  0.04976  1.0000
  C   C1012     1.0  0.49208  0.65186  0.10356  1.0000
  Fe  Fe135     1.0  0.51140  0.61568  0.01979  1.0000
  S   S272      1.0  0.51005  0.61857  0.06765  1.0000
  Fe  Fe136     1.0  0.50725  0.61542  0.45928  1.0000
  C   C1013     1.0  0.66607  0.55279  0.30885  1.0000
  S   S273      1.0  0.51499  0.59152  0.00733  1.0000
  S   S274      1.0  0.51113  0.59068  0.46067  1.0000
  Fe  Fe137     1.0  0.61726  0.51411  0.03609  1.0000
  S   S275      1.0  0.59183  0.51529  0.02608  1.0000
  H   H1223     1.0  0.55041  0.88864  0.07540  1.0000
  H   H1224     1.0  0.56596  0.51900  0.44302  1.0000
  S   S276      1.0  0.60456  0.52898  0.46389  1.0000
  S   S277      1.0  0.64958  0.53287  0.43525  1.0000
  C   C1014     1.0  0.49015  0.69807  0.30376  1.0000
  C   C1015     1.0  0.68030  0.50123  0.11939  1.0000
  H   H1225     1.0  0.66380  0.54031  0.22793  1.0000
  S   S278      1.0  0.63276  0.54149  0.02266  1.0000
  C   C1016     1.0  0.52949  0.55512  0.46900  1.0000
  C   C1017     1.0  0.53915  0.54582  0.46251  1.0000
  C   C1018     1.0  0.54840  0.99207  0.48276  1.0000
  H   H1226     1.0  0.70041  0.52713  0.12102  1.0000
  S   S279      1.0  0.49817  0.86512  0.29015  1.0000
  C   C1019     1.0  0.52326  0.83887  0.07644  1.0000
  C   C1020     1.0  0.59488  0.62434  0.03141  1.0000
  C   C1021     1.0  0.57323  0.63979  0.08114  1.0000
  C   C1022     1.0  0.55314  0.61709  0.05007  1.0000
  C   C1023     1.0  0.49144  0.85342  0.09485  1.0000
  H   H1227     1.0  0.58146  0.58716  0.44366  1.0000
  H   H1228     1.0  0.59309  0.59240  0.08952  1.0000
  H   H1229     1.0  0.58748  0.65360  0.03288  1.0000
  Fe  Fe138     1.0  0.66362  0.49386  0.22350  1.0000
  H   H1230     1.0  0.54254  0.85032  0.99955  1.0000
  C   C1024     1.0  0.50446  0.71021  0.40013  1.0000
  C   C1025     1.0  0.66031  0.52193  0.38774  1.0000
  C   C1026     1.0  0.64616  0.51977  0.40408  1.0000
  C   C1027     1.0  0.62959  0.50808  0.39435  1.0000
  H   H1231     1.0  0.49911  0.82817  0.48212  1.0000
  C   C1028     1.0  0.50967  0.84156  0.48283  1.0000
  H   H1232     1.0  0.67317  0.53096  0.39499  1.0000
  H   H1233     1.0  0.61858  0.50629  0.40659  1.0000
  S   S280      1.0  0.48784  0.78221  0.24254  1.0000
  C   C1029     1.0  0.65185  0.50927  0.15821  1.0000
  H   H1234     1.0  0.55116  0.60983  0.02973  1.0000
  H   H1235     1.0  0.52209  0.84057  0.48705  1.0000
  H   H1236     1.0  0.59714  0.57100  0.46482  1.0000
  C   C1030     1.0  0.64506  0.52024  0.11428  1.0000
  C   C1031     1.0  0.65454  0.52304  0.14015  1.0000
  C   C1032     1.0  0.60583  0.61587  0.03131  1.0000
  C   C1033     1.0  0.51235  0.88739  0.11321  1.0000
  H   H1237     1.0  0.64735  0.53096  0.10067  1.0000
  H   H1238     1.0  0.66413  0.53595  0.14608  1.0000
  C   C1034     1.0  0.48940  0.75033  0.24515  1.0000
  C   C1035     1.0  0.48982  0.68318  0.35999  1.0000
  H   H1239     1.0  0.50622  0.77006  0.17194  1.0000
  H   H1240     1.0  0.62486  0.53441  0.35190  1.0000
  C   C1036     1.0  0.49438  0.75819  0.17101  1.0000
  C   C1037     1.0  0.60533  0.60460  0.05243  1.0000
  S   S281      1.0  0.61713  0.50219  0.99356  1.0000
  H   H1241     1.0  0.65287  0.55355  0.37511  1.0000
  C   C1038     1.0  0.51027  0.63907  0.37982  1.0000
  C   C1039     1.0  0.51200  0.64676  0.35339  1.0000
  C   C1040     1.0  0.49566  0.85691  0.12376  1.0000
  H   H1242     1.0  0.52165  0.64048  0.39222  1.0000
  H   H1243     1.0  0.52477  0.65403  0.34578  1.0000
  C   C1041     1.0  0.50259  0.62999  0.09173  1.0000
  C   C1042     1.0  0.50243  0.62631  0.12039  1.0000
  H   H1244     1.0  0.49736  0.72568  0.37279  1.0000
  H   H1245     1.0  0.68266  0.49882  0.14100  1.0000
  Fe  Fe139     1.0  0.59432  0.50396  0.48654  1.0000
  C   C1043     1.0  0.50278  0.86852  0.32709  1.0000
  H   H1246     1.0  0.55667  0.89724  0.00177  1.0000
  H   H1247     1.0  0.61807  0.61464  0.47634  1.0000
  H   H1248     1.0  0.50325  0.75796  0.24555  1.0000
  H   H1249     1.0  0.69564  0.52934  0.02629  1.0000
  C   C1044     1.0  0.50971  0.87536  0.38591  1.0000
  C   C1045     1.0  0.50415  0.85840  0.37420  1.0000
  C   C1046     1.0  0.50055  0.85496  0.34506  1.0000
  C   C1047     1.0  0.52765  0.84666  0.05059  1.0000
  C   C1048     1.0  0.56198  0.58183  0.00842  1.0000
  C   C1049     1.0  0.49720  0.64274  0.08343  1.0000
  H   H1250     1.0  0.67487  0.53912  0.04581  1.0000
  C   C1050     1.0  0.66431  0.52708  0.03660  1.0000
  H   H1251     1.0  0.51602  0.90199  0.37651  1.0000
  C   C1051     1.0  0.50832  0.88387  0.08427  1.0000
  C   C1052     1.0  0.49755  0.86678  0.07529  1.0000
  H   H1252     1.0  0.66892  0.51468  0.34943  1.0000
  C   C1053     1.0  0.53582  0.50225  0.46548  1.0000
  H   H1253     1.0  0.53303  0.50397  0.00461  1.0000
  C   C1054     1.0  0.55878  0.52709  0.44725  1.0000
  H   H1254     1.0  0.49286  0.86090  0.47268  1.0000
  H   H1255     1.0  0.49757  0.66815  0.38865  1.0000
  C   C1055     1.0  0.52582  0.87042  0.00561  1.0000
  H   H1256     1.0  0.50429  0.70655  0.30522  1.0000
  H   H1257     1.0  0.62272  0.52681  0.30202  1.0000
  H   H1258     1.0  0.50738  0.74202  0.16428  1.0000
  S   S282      1.0  0.53397  0.63206  0.47820  1.0000
  H   H1259     1.0  0.68192  0.51999  0.99601  1.0000
  H   H1260     1.0  0.51856  0.87621  0.01788  1.0000
  C   C1056     1.0  0.55346  0.89171  0.02288  1.0000
  N   N69       1.0  0.54203  0.87278  0.02110  1.0000
  C   C1057     1.0  0.65206  0.55066  0.35275  1.0000
  H   H1261     1.0  0.67815  0.55797  0.29846  1.0000
  N   N70       1.0  0.64860  0.53704  0.26449  1.0000
  C   C1058     1.0  0.64133  0.51787  0.26073  1.0000
  C   C1059     1.0  0.63688  0.54331  0.24969  1.0000
  C   C1060     1.0  0.66538  0.54431  0.25057  1.0000
  C   C1061     1.0  0.65010  0.54188  0.29473  1.0000
  H   H1262     1.0  0.54268  0.87453  0.11956  1.0000
  C   C1062     1.0  0.55090  0.86426  0.00456  1.0000
  H   H1263     1.0  0.56494  0.64703  0.08174  1.0000
  C   C1063     1.0  0.62721  0.49901  0.36838  1.0000
  H   H1264     1.0  0.54953  0.60742  0.06678  1.0000
  H   H1265     1.0  0.62793  0.51119  0.26787  1.0000
  H   H1266     1.0  0.64098  0.51369  0.23838  1.0000
  H   H1267     1.0  0.64923  0.51264  0.27306  1.0000
  H   H1268     1.0  0.62353  0.53720  0.25724  1.0000
  H   H1269     1.0  0.63581  0.54021  0.22675  1.0000
  S   S283      1.0  0.53283  0.63318  0.99300  1.0000
  C   C1064     1.0  0.64132  0.50130  0.35189  1.0000
  C   C1065     1.0  0.68469  0.51730  0.01797  1.0000
  H   H1270     1.0  0.67143  0.55876  0.25161  1.0000
  H   H1271     1.0  0.59550  0.63230  0.01373  1.0000
  Fe  Fe140     1.0  0.53709  0.60686  0.48190  1.0000
  S   S284      1.0  0.59608  0.56075  0.02572  1.0000
  H   H1272     1.0  0.67926  0.56504  0.34805  1.0000
  H   H1273     1.0  0.52868  0.49571  0.48404  1.0000
  H   H1274     1.0  0.49727  0.64581  0.06155  1.0000
  H   H1275     1.0  0.66092  0.53039  0.01546  1.0000
  H   H1276     1.0  0.57136  0.63690  0.01025  1.0000
  C   C1066     1.0  0.49388  0.62978  0.39025  1.0000
  S   S285      1.0  0.48980  0.67725  0.23777  1.0000
  C   C1067     1.0  0.58313  0.62184  0.05308  1.0000
  H   H1277     1.0  0.59847  0.65769  0.48407  1.0000
  H   H1278     1.0  0.61341  0.59759  0.05167  1.0000
  H   H1279     1.0  0.52071  0.90051  0.12050  1.0000
  H   H1280     1.0  0.52268  0.83841  0.03197  1.0000
  S   S286      1.0  0.48816  0.83919  0.14721  1.0000
  H   H1281     1.0  0.61431  0.61751  0.01415  1.0000
  C   C1068     1.0  0.49133  0.70699  0.18559  1.0000
  H   H1282     1.0  0.49579  0.72939  0.32459  1.0000
  C   C1069     1.0  0.48940  0.69938  0.35430  1.0000
  H   H1283     1.0  0.56593  0.89446  0.03441  1.0000
  H   H1284     1.0  0.53122  0.56666  0.45759  1.0000
  C   C1070     1.0  0.56233  0.98747  0.48162  1.0000
  H   H1285     1.0  0.48823  0.66186  0.09681  1.0000
  H   H1286     1.0  0.68920  0.50676  0.01716  1.0000
  S   S287      1.0  0.49076  0.62038  0.42407  1.0000
  C   C1071     1.0  0.58283  0.61010  0.07410  1.0000
  H   H1287     1.0  0.54370  0.62299  0.05031  1.0000
  H   H1288     1.0  0.55105  0.58240  0.01836  1.0000
  C   C1072     1.0  0.67303  0.50808  0.06364  1.0000
  C   C1073     1.0  0.51165  0.88886  0.36798  1.0000
  H   H1289     1.0  0.50944  0.87708  0.15488  1.0000
  N   N71       1.0  0.57119  0.63043  0.05379  1.0000
  C   C1074     1.0  0.53888  0.86671  0.10024  1.0000
  C   C1075     1.0  0.53787  0.86482  0.04879  1.0000
  H   H1290     1.0  0.51021  0.72067  0.41580  1.0000
  H   H1291     1.0  0.54711  0.89918  0.03338  1.0000
  H   H1292     1.0  0.67458  0.53946  0.25995  1.0000
  C   C1076     1.0  0.52888  0.84888  0.10121  1.0000
  H   H1293     1.0  0.57381  0.60703  0.09064  1.0000
  H   H1294     1.0  0.64164  0.55765  0.25269  1.0000
  S   S288      1.0  0.49326  0.89653  0.47363  1.0000
  H   H1295     1.0  0.56132  0.97727  0.00735  1.0000
  H   H1296     1.0  0.56929  0.63085  0.09886  1.0000
  C   C1077     1.0  0.57985  0.58376  0.46541  1.0000
  H   H1297     1.0  0.53538  0.98197  0.48277  1.0000
  Fe  Fe141     1.0  0.49664  0.92338  0.46455  1.0000
  C   C1078     1.0  0.63522  0.53555  0.31105  1.0000
  H   H1298     1.0  0.55106  0.52657  0.42775  1.0000
  C   C1079     1.0  0.59380  0.60166  0.07372  1.0000
  C   C1080     1.0  0.57003  0.57174  0.01991  1.0000
  C   C1081     1.0  0.57403  0.64327  0.03155  1.0000
  C   C1082     1.0  0.54328  0.87467  0.07451  1.0000
  H   H1299     1.0  0.51043  0.84682  0.46140  1.0000
  C   C1083     1.0  0.68673  0.52062  0.08064  1.0000
  H   H1300     1.0  0.56539  0.56494  0.03896  1.0000
  Fe  Fe142     1.0  0.60707  0.54196  0.00985  1.0000
  C   C1084     1.0  0.49733  0.68064  0.38493  1.0000
  C   C1085     1.0  0.66693  0.55705  0.33745  1.0000
  H   H1301     1.0  0.49736  0.63241  0.16241  1.0000
  N   N72       1.0  0.66921  0.51229  0.03499  1.0000
  C   C1086     1.0  0.63626  0.53990  0.33960  1.0000
  H   H1302     1.0  0.49143  0.72577  0.24681  1.0000
  H   H1303     1.0  0.54305  0.49459  0.45900  1.0000
  H   H1304     1.0  0.49257  0.69451  0.18284  1.0000
  C   C1087     1.0  0.50838  0.88548  0.33881  1.0000
  H   H1305     1.0  0.59133  0.99010  0.38512  1.0000
  H   H1306     1.0  0.51019  0.89612  0.32521  1.0000
  C   C1088     1.0  0.48848  0.70887  0.13560  1.0000
  C   C1089     1.0  0.58440  0.57088  0.00756  1.0000
  H   H1307     1.0  0.52498  0.84292  0.12122  1.0000
  H   H1308     1.0  0.50468  0.71745  0.18696  1.0000
  C   C1090     1.0  0.49715  0.63530  0.14049  1.0000
  C   C1091     1.0  0.50463  0.69412  0.40497  1.0000
  H   H1309     1.0  0.56882  0.54061  0.45122  1.0000
  H   H1310     1.0  0.52615  0.50087  0.44833  1.0000
  H   H1311     1.0  0.48866  0.68441  0.30279  1.0000
  N   N73       1.0  0.54759  0.52081  0.47151  1.0000
  C   C1092     1.0  0.58870  0.57452  0.47732  1.0000
  C   C1093     1.0  0.56936  0.58911  0.48160  1.0000
  C   C1094     1.0  0.65483  0.49766  0.01969  1.0000
  C   C1095     1.0  0.69022  0.51721  0.10811  1.0000
  H   H1312     1.0  0.65243  0.50124  0.99812  1.0000
  H   H1313     1.0  0.50214  0.71864  0.13530  1.0000
  C   C1096     1.0  0.49488  0.74205  0.16685  1.0000
  C   C1097     1.0  0.53740  0.53086  0.47744  1.0000
  H   H1314     1.0  0.51048  0.69208  0.42424  1.0000
  H   H1315     1.0  0.48871  0.69598  0.13139  1.0000
  C   C1098     1.0  0.49698  0.71290  0.37520  1.0000
  H   H1316     1.0  0.49631  0.84185  0.33648  1.0000
  H   H1317     1.0  0.55988  0.53247  0.00530  1.0000
  H   H1318     1.0  0.49038  0.97410  0.46970  1.0000
  Fe  Fe143     1.0  0.53468  0.93962  0.47848  1.0000
  H   H1319     1.0  0.60217  0.63246  0.47525  1.0000
  H   H1320     1.0  0.51704  0.85653  0.00123  1.0000
  H   H1321     1.0  0.52317  0.87631  0.48450  1.0000
  C   C1099     1.0  0.49208  0.64827  0.13224  1.0000
  H   H1322     1.0  0.49434  0.86374  0.05321  1.0000
  S   S289      1.0  0.55941  0.96527  0.47983  1.0000
  C   C1100     1.0  0.63941  0.49265  0.15017  1.0000
  H   H1323     1.0  0.51059  0.51109  0.98788  1.0000
  H   H1324     1.0  0.56784  0.51582  0.49195  1.0000
  H   H1325     1.0  0.55375  0.50724  0.93777  1.0000
  C   C1101     1.0  0.50786  0.53409  0.97848  1.0000
  C   C1102     1.0  0.50421  0.90117  0.65885  1.0000
  H   H1326     1.0  0.67508  0.51418  0.86901  1.0000
  Fe  Fe144     1.0  0.51542  0.89752  0.95112  1.0000
  S   S290      1.0  0.51893  0.87792  0.92133  1.0000
  Fe  Fe145     1.0  0.51037  0.90825  0.51224  1.0000
  H   H1327     1.0  0.61342  0.60978  0.56483  1.0000
  S   S291      1.0  0.50635  0.91744  0.93740  1.0000
  S   S292      1.0  0.51179  0.93511  0.50461  1.0000
  S   S293      1.0  0.49674  0.67496  0.72513  1.0000
  Fe  Fe146     1.0  0.48728  0.90701  0.97065  1.0000
  S   S294      1.0  0.50525  0.64412  0.92862  1.0000
  C   C1103     1.0  0.49340  0.62332  0.61881  1.0000
  S   S295      1.0  0.50878  0.65539  0.79605  1.0000
  S   S296      1.0  0.50679  0.85232  0.65919  1.0000
  C   C1104     1.0  0.54117  0.54693  0.95859  1.0000
  S   S297      1.0  0.50263  0.83370  0.73437  1.0000
  H   H1328     1.0  0.68456  0.49842  0.63660  1.0000
  C   C1105     1.0  0.52413  0.65424  0.71920  1.0000
  C   C1106     1.0  0.50813  0.89615  0.68489  1.0000
  C   C1107     1.0  0.53897  0.64070  0.74587  1.0000
  C   C1108     1.0  0.55191  0.98528  0.97048  1.0000
  S   S298      1.0  0.68316  0.51034  0.76503  1.0000
  H   H1329     1.0  0.51362  0.65268  0.70342  1.0000
  C   C1109     1.0  0.48829  0.86417  0.62199  1.0000
  H   H1330     1.0  0.69543  0.51180  0.70715  1.0000
  Fe  Fe147     1.0  0.63131  0.52935  0.97928  1.0000
  C   C1110     1.0  0.50220  0.83066  0.58568  1.0000
  H   H1331     1.0  0.52752  0.83204  0.57976  1.0000
  Fe  Fe148     1.0  0.52196  0.62598  0.52063  1.0000
  S   S299      1.0  0.52680  0.64589  0.55661  1.0000
  H   H1332     1.0  0.52282  0.49374  0.97109  1.0000
  H   H1333     1.0  0.48909  0.65955  0.89107  1.0000
  S   S300      1.0  0.52772  0.60263  0.52563  1.0000
  S   S301      1.0  0.51676  0.60384  0.94199  1.0000
  Fe  Fe149     1.0  0.62403  0.51609  0.53149  1.0000
  S   S302      1.0  0.59786  0.51642  0.52927  1.0000
  S   S303      1.0  0.49085  0.61093  0.98577  1.0000
  H   H1334     1.0  0.55160  0.51572  0.51477  1.0000
  S   S304      1.0  0.60731  0.53260  0.96552  1.0000
  S   S305      1.0  0.65458  0.53188  0.95430  1.0000
  H   H1335     1.0  0.62490  0.51431  0.86093  1.0000
  S   S306      1.0  0.60035  0.56165  0.52292  1.0000
  C   C1111     1.0  0.49111  0.85527  0.49387  1.0000
  S   S307      1.0  0.63673  0.54238  0.51200  1.0000
  C   C1112     1.0  0.70842  0.51179  0.70643  1.0000
  H   H1336     1.0  0.54988  0.90164  0.75446  1.0000
  C   C1113     1.0  0.56749  0.58472  0.50974  1.0000
  C   C1114     1.0  0.57667  0.57586  0.52180  1.0000
  H   H1337     1.0  0.50143  0.82570  0.60661  1.0000
  H   H1338     1.0  0.57190  0.62917  0.55399  1.0000
  H   H1339     1.0  0.53263  0.87497  0.70466  1.0000
  H   H1340     1.0  0.55944  0.58864  0.52248  1.0000
  H   H1341     1.0  0.57567  0.57316  0.54385  1.0000
  H   H1342     1.0  0.55448  0.52774  0.92833  1.0000
  H   H1343     1.0  0.54472  0.92650  0.63939  1.0000
  H   H1344     1.0  0.51429  0.91540  0.62190  1.0000
  S   S308      1.0  0.49530  0.61112  0.50163  1.0000
  C   C1115     1.0  0.51819  0.84138  0.54404  1.0000
  C   C1116     1.0  0.64979  0.51341  0.86137  1.0000
  C   C1117     1.0  0.60217  0.62574  0.54568  1.0000
  H   H1345     1.0  0.59883  0.65540  0.56202  1.0000
  C   C1118     1.0  0.65229  0.52431  0.91866  1.0000
  C   C1119     1.0  0.63742  0.52128  0.90208  1.0000
  C   C1120     1.0  0.56859  0.59168  0.98489  1.0000
  Fe  Fe150     1.0  0.51234  0.62658  0.95768  1.0000
  C   C1121     1.0  0.53411  0.52995  0.96934  1.0000
  H   H1346     1.0  0.62693  0.52335  0.91101  1.0000
  S   S309      1.0  0.53688  0.96402  0.95810  1.0000
  C   C1122     1.0  0.53179  0.55705  0.95775  1.0000
  C   C1123     1.0  0.65684  0.52852  0.63984  1.0000
  C   C1124     1.0  0.64873  0.52483  0.61273  1.0000
  C   C1125     1.0  0.50470  0.84501  0.53188  1.0000
  Fe  Fe151     1.0  0.60985  0.54164  0.50699  1.0000
  H   H1347     1.0  0.67748  0.52412  0.91896  1.0000
  C   C1126     1.0  0.54668  0.51564  0.93923  1.0000
  C   C1127     1.0  0.64947  0.49805  0.64576  1.0000
  C   C1128     1.0  0.64114  0.50773  0.60180  1.0000
  H   H1348     1.0  0.53189  0.60852  0.71658  1.0000
  H   H1349     1.0  0.55202  0.64989  0.73957  1.0000
  H   H1350     1.0  0.51081  0.55747  0.49571  1.0000
  C   C1129     1.0  0.56116  0.52859  0.98342  1.0000
  H   H1351     1.0  0.50228  0.61450  0.58233  1.0000
  C   C1130     1.0  0.50652  0.65116  0.83257  1.0000
  Fe  Fe152     1.0  0.50176  0.58822  0.50423  1.0000
  C   C1131     1.0  0.58747  0.57086  0.50579  1.0000
  C   C1132     1.0  0.50573  0.64621  0.89145  1.0000
  C   C1133     1.0  0.51519  0.63999  0.87470  1.0000
  C   C1134     1.0  0.51576  0.64266  0.84556  1.0000
  H   H1352     1.0  0.56959  0.54052  0.97276  1.0000
  H   H1353     1.0  0.52252  0.63360  0.88431  1.0000
  H   H1354     1.0  0.52360  0.63831  0.83308  1.0000
  C   C1135     1.0  0.51381  0.64239  0.58640  1.0000
  C   C1136     1.0  0.51505  0.65670  0.60323  1.0000
  C   C1137     1.0  0.50543  0.65437  0.62755  1.0000
  H   H1355     1.0  0.49772  0.89220  0.83198  1.0000
  C   C1138     1.0  0.49454  0.63763  0.63555  1.0000
  C   C1139     1.0  0.50294  0.62565  0.59445  1.0000
  H   H1356     1.0  0.52351  0.66972  0.59740  1.0000
  H   H1357     1.0  0.52202  0.89629  0.76633  1.0000
  C   C1140     1.0  0.51606  0.53547  0.50571  1.0000
  H   H1358     1.0  0.50730  0.53175  0.52276  1.0000
  C   C1141     1.0  0.51206  0.87461  0.88514  1.0000
  C   C1142     1.0  0.50676  0.88603  0.87117  1.0000
  H   H1359     1.0  0.70857  0.50186  0.72115  1.0000
  C   C1143     1.0  0.61124  0.61532  0.54562  1.0000
  C   C1144     1.0  0.50641  0.85705  0.84134  1.0000
  C   C1145     1.0  0.51185  0.86011  0.86999  1.0000
  H   H1360     1.0  0.56455  0.62063  0.51917  1.0000
  H   H1361     1.0  0.50636  0.84586  0.83006  1.0000
  H   H1362     1.0  0.51594  0.85119  0.88048  1.0000
  C   C1146     1.0  0.50097  0.88181  0.58130  1.0000
  C   C1147     1.0  0.49672  0.98208  0.98318  1.0000
  H   H1363     1.0  0.49751  0.88692  0.69601  1.0000
  C   C1148     1.0  0.50409  0.86375  0.62957  1.0000
  C   C1149     1.0  0.51829  0.87243  0.61279  1.0000
  C   C1150     1.0  0.51676  0.88135  0.58884  1.0000
  H   H1364     1.0  0.72180  0.53520  0.66688  1.0000
  H   H1365     1.0  0.64843  0.53524  0.60028  1.0000
  H   H1366     1.0  0.53057  0.87218  0.61830  1.0000
  H   H1367     1.0  0.52783  0.88792  0.57633  1.0000
  C   C1151     1.0  0.63631  0.51613  0.87360  1.0000
  C   C1152     1.0  0.72969  0.50896  0.67737  1.0000
  C   C1153     1.0  0.53860  0.91352  0.67866  1.0000
  H   H1368     1.0  0.49093  0.89604  0.65075  1.0000
  C   C1154     1.0  0.71163  0.52224  0.65983  1.0000
  N   N74       1.0  0.52925  0.89658  0.72329  1.0000
  H   H1369     1.0  0.52015  0.91308  0.74581  1.0000
  C   C1155     1.0  0.51856  0.89937  0.74505  1.0000
  C   C1156     1.0  0.52505  0.87779  0.72098  1.0000
  C   C1157     1.0  0.52544  0.90234  0.69581  1.0000
  C   C1158     1.0  0.51692  0.83436  0.57057  1.0000
  Fe  Fe153     1.0  0.49642  0.58866  0.97138  1.0000
  C   C1159     1.0  0.50160  0.88312  0.84247  1.0000
  C   C1160     1.0  0.64183  0.49443  0.61839  1.0000
  H   H1370     1.0  0.73185  0.50050  0.69312  1.0000
  H   H1371     1.0  0.59079  0.66741  0.54026  1.0000
  Fe  Fe154     1.0  0.65923  0.49715  0.79003  1.0000
  C   C1161     1.0  0.58262  0.59038  0.97206  1.0000
  H   H1372     1.0  0.56851  0.52043  0.98443  1.0000
  S   S310      1.0  0.48726  0.78423  0.74955  1.0000
  S   S311      1.0  0.49414  0.86558  0.79130  1.0000
  C   C1162     1.0  0.49658  0.65683  0.84918  1.0000
  S   S312      1.0  0.66795  0.52055  0.69037  1.0000
  H   H1373     1.0  0.50983  0.99209  0.50599  1.0000
  C   C1163     1.0  0.65712  0.51515  0.65664  1.0000
  N   N75       1.0  0.54401  0.51919  0.96873  1.0000
  N   N76       1.0  0.50655  0.85280  0.50400  1.0000
  N   N77       1.0  0.52576  0.63765  0.72292  1.0000
  H   H1374     1.0  0.48954  0.66354  0.83967  1.0000
  H   H1375     1.0  0.71801  0.52470  0.71484  1.0000
  C   C1164     1.0  0.50887  0.62461  0.73180  1.0000
  C   C1165     1.0  0.53056  0.63107  0.69720  1.0000
  C   C1166     1.0  0.53232  0.63933  0.67111  1.0000
  C   C1167     1.0  0.53320  0.61562  0.69761  1.0000
  C   C1168     1.0  0.53646  0.63249  0.64711  1.0000
  C   C1169     1.0  0.53727  0.60886  0.67344  1.0000
  C   C1170     1.0  0.53885  0.61726  0.64823  1.0000
  N   N78       1.0  0.71196  0.50813  0.67753  1.0000
  H   H1376     1.0  0.62366  0.60298  0.52063  1.0000
  H   H1377     1.0  0.55474  0.87043  0.98399  1.0000
  H   H1378     1.0  0.53974  0.62854  0.75236  1.0000
  H   H1379     1.0  0.52080  0.65897  0.73903  1.0000
  H   H1380     1.0  0.52758  0.87275  0.74120  1.0000
  H   H1381     1.0  0.50919  0.61202  0.73678  1.0000
  H   H1382     1.0  0.50478  0.62918  0.75106  1.0000
  H   H1383     1.0  0.49857  0.62198  0.71506  1.0000
  H   H1384     1.0  0.73235  0.50489  0.65646  1.0000
  H   H1385     1.0  0.55215  0.91860  0.68478  1.0000
  H   H1386     1.0  0.53411  0.50891  0.92721  1.0000
  H   H1387     1.0  0.53028  0.65095  0.66846  1.0000
  H   H1388     1.0  0.54179  0.61191  0.62942  1.0000
  C   C1171     1.0  0.66587  0.52173  0.90644  1.0000
  H   H1389     1.0  0.61106  0.66665  0.53309  1.0000
  H   H1390     1.0  0.73378  0.51184  0.75300  1.0000
  H   H1391     1.0  0.58786  0.59792  0.95387  1.0000
  H   H1392     1.0  0.53643  0.66477  0.71276  1.0000
  H   H1393     1.0  0.49379  0.96423  0.51543  1.0000
  Fe  Fe155     1.0  0.53523  0.60861  0.97920  1.0000
  H   H1394     1.0  0.50689  0.89727  0.88237  1.0000
  H   H1395     1.0  0.48862  0.86452  0.50791  1.0000
  C   C1172     1.0  0.51738  0.91207  0.64254  1.0000
  C   C1173     1.0  0.49639  0.65458  0.87842  1.0000
  H   H1396     1.0  0.51124  0.86994  0.71479  1.0000
  C   C1174     1.0  0.51802  0.55000  0.49054  1.0000
  H   H1397     1.0  0.53754  0.63892  0.62738  1.0000
  S   S313      1.0  0.56076  0.60674  0.97193  1.0000
  S   S314      1.0  0.49506  0.88592  0.98279  1.0000
  S   S315      1.0  0.63037  0.50200  0.56799  1.0000
  C   C1175     1.0  0.59773  0.65884  0.53996  1.0000
  C   C1176     1.0  0.49519  0.96670  0.97001  1.0000
  C   C1177     1.0  0.57129  0.63288  0.53197  1.0000
  C   C1178     1.0  0.61394  0.61811  0.49578  1.0000
  H   H1398     1.0  0.52385  0.51497  0.51192  1.0000
  C   C1179     1.0  0.54764  0.90582  0.73330  1.0000
  H   H1399     1.0  0.52997  0.84425  0.53334  1.0000
  H   H1400     1.0  0.50457  0.89076  0.74164  1.0000
  C   C1180     1.0  0.52558  0.52599  0.49932  1.0000
  H   H1401     1.0  0.56420  0.49354  0.52303  1.0000
  S   S316      1.0  0.49807  0.89287  0.55133  1.0000
  S   S317      1.0  0.53499  0.91607  0.98322  1.0000
  H   H1402     1.0  0.55637  0.90296  0.71934  1.0000
  H   H1403     1.0  0.53749  0.57002  0.94953  1.0000
  C   C1181     1.0  0.60475  0.62842  0.49551  1.0000
  H   H1404     1.0  0.71374  0.52003  0.63754  1.0000
  N   N79       1.0  0.58860  0.64327  0.52120  1.0000
  H   H1405     1.0  0.51960  0.87895  0.52092  1.0000
  H   H1406     1.0  0.55173  0.92013  0.73490  1.0000
  C   C1182     1.0  0.58596  0.64945  0.49329  1.0000
  H   H1407     1.0  0.66280  0.54182  0.64793  1.0000
  C   C1183     1.0  0.61711  0.61152  0.52072  1.0000
  H   H1408     1.0  0.69914  0.52343  0.66101  1.0000
  C   C1184     1.0  0.59859  0.63259  0.52059  1.0000
  H   H1409     1.0  0.50650  0.66554  0.64012  1.0000
  C   C1185     1.0  0.66456  0.51612  0.87806  1.0000
  H   H1410     1.0  0.54331  0.49466  0.98203  1.0000
  C   C1186     1.0  0.53452  0.91823  0.65241  1.0000
  H   H1411     1.0  0.57838  0.65739  0.49444  1.0000
  H   H1412     1.0  0.53599  0.64639  0.76512  1.0000
  C   C1187     1.0  0.50136  0.86864  0.82733  1.0000
  C   C1188     1.0  0.51710  0.52380  0.97935  1.0000
  Fe  Fe156     1.0  0.48993  0.66000  0.76538  1.0000
  H   H1413     1.0  0.56292  0.64005  0.53136  1.0000
  H   H1414     1.0  0.50473  0.96690  0.95544  1.0000
  S   S318      1.0  0.64723  0.50664  0.82527  1.0000
  C   C1189     1.0  0.53530  0.50219  0.98223  1.0000
  Fe  Fe157     1.0  0.52426  0.93552  0.97156  1.0000
  Fe  Fe158     1.0  0.66524  0.50201  0.72613  1.0000
  C   C1190     1.0  0.51517  0.55064  0.96764  1.0000
  H   H1415     1.0  0.59769  0.62810  0.56548  1.0000
  C   C1191     1.0  0.48988  0.84116  0.54796  1.0000
  H   H1416     1.0  0.73424  0.51364  0.83442  1.0000
  H   H1417     1.0  0.55403  0.55256  0.95070  1.0000
  H   H1418     1.0  0.50792  0.55851  0.96688  1.0000
  H   H1419     1.0  0.53907  0.59695  0.67421  1.0000
  C   C1192     1.0  0.52144  0.87009  0.50520  1.0000
  H   H1420     1.0  0.53385  0.86942  0.51099  1.0000
  C   C1193     1.0  0.55897  0.52205  0.49630  1.0000
  H   H1421     1.0  0.60155  0.57961  0.97358  1.0000
  Fe  Fe159     1.0  0.59350  0.50615  0.98266  1.0000
  H   H1422     1.0  0.56717  0.53583  0.50266  1.0000
  C   C1194     1.0  0.59036  0.57990  0.98309  1.0000
  C   C1195     1.0  0.48869  0.83396  0.57433  1.0000
  H   H1423     1.0  0.49490  0.52922  0.98614  1.0000
  H   H1424     1.0  0.52835  0.87670  0.98493  1.0000
  Fe  Fe160     1.0  0.48947  0.83782  0.69500  1.0000
  S   S319      1.0  0.61942  0.50161  0.48973  1.0000
  H   H1425     1.0  0.49914  0.75968  0.77199  1.0000
  H   H1426     1.0  0.49170  0.72845  0.76140  1.0000
  S   S320      1.0  0.53455  0.91341  0.48885  1.0000
  C   C1196     1.0  0.48942  0.75274  0.75571  1.0000
  Fe  Fe161     1.0  0.87964  0.37440  0.46332  1.0000
  C   C1197     1.0  0.74462  0.48399  0.28420  1.0000
  S   S321      1.0  0.85858  0.35544  0.43241  1.0000
  H   H1427     1.0  0.78403  0.44308  0.21716  1.0000
  S   S322      1.0  0.90043  0.40252  0.01270  1.0000
  C   C1198     1.0  0.98277  0.39946  0.07664  1.0000
  H   H1428     1.0  0.93306  0.38683  0.10120  1.0000
  C   C1199     1.0  0.76153  0.38624  0.25890  1.0000
  Fe  Fe162     1.0  0.88160  0.37507  0.02185  1.0000
  S   S323      1.0  0.87970  0.36991  0.06923  1.0000
  S   S324      1.0  0.89770  0.40194  0.45538  1.0000
  H   H1429     1.0  0.75530  0.26626  0.31785  1.0000
  C   C1200     1.0  0.77131  0.30273  0.14313  1.0000
  S   S325      1.0  0.82182  0.47791  0.22782  1.0000
  H   H1430     1.0  0.87477  0.43764  0.42791  1.0000
  Fe  Fe163     1.0  0.82951  0.47305  0.27098  1.0000
  S   S326      1.0  0.82801  0.44798  0.28849  1.0000
  H   H1431     1.0  0.95161  0.38029  0.01178  1.0000
  C   C1201     1.0  0.96220  0.42302  0.00933  1.0000
  Fe  Fe164     1.0  0.81547  0.33281  0.20097  1.0000
  S   S327      1.0  0.78845  0.33085  0.20378  1.0000
  S   S328      1.0  0.82133  0.32810  0.15551  1.0000
  Fe  Fe165     1.0  0.82215  0.34018  0.26529  1.0000
  S   S329      1.0  0.79547  0.33878  0.27117  1.0000
  S   S330      1.0  0.84480  0.34989  0.29860  1.0000
  Fe  Fe166     1.0  0.78560  0.31487  0.24186  1.0000
  S   S331      1.0  0.75850  0.29266  0.24890  1.0000
  Fe  Fe167     1.0  0.80009  0.35441  0.23235  1.0000
  S   S332      1.0  0.79198  0.37585  0.22160  1.0000
  S   S333      1.0  0.81220  0.31531  0.23794  1.0000
  S   S334      1.0  0.82719  0.35736  0.22769  1.0000
  C   C1202     1.0  0.81879  0.42835  0.26864  1.0000
  C   C1203     1.0  0.80942  0.42693  0.24347  1.0000
  C   C1204     1.0  0.80132  0.41076  0.22900  1.0000
  C   C1205     1.0  0.80292  0.39609  0.23934  1.0000
  C   C1206     1.0  0.81280  0.39768  0.26399  1.0000
  C   C1207     1.0  0.82058  0.41375  0.27874  1.0000
  H   H1432     1.0  0.80811  0.43816  0.23554  1.0000
  H   H1433     1.0  0.79366  0.40952  0.20990  1.0000
  H   H1434     1.0  0.81412  0.38642  0.27201  1.0000
  H   H1435     1.0  0.82790  0.41482  0.29814  1.0000
  C   C1208     1.0  0.76110  0.48682  0.27483  1.0000
  C   C1209     1.0  0.84292  0.41864  0.20029  1.0000
  H   H1436     1.0  0.84000  0.45120  0.16292  1.0000
  C   C1210     1.0  0.74818  0.25832  0.22808  1.0000
  C   C1211     1.0  0.75271  0.39018  0.23710  1.0000
  C   C1212     1.0  0.84643  0.39706  0.17062  1.0000
  H   H1437     1.0  0.96335  0.47169  0.44588  1.0000
  H   H1438     1.0  0.76145  0.26212  0.22281  1.0000
  H   H1439     1.0  0.79400  0.29889  0.17973  1.0000
  H   H1440     1.0  0.88577  0.46149  0.18269  1.0000
  H   H1441     1.0  0.87113  0.46326  0.15573  1.0000
  C   C1213     1.0  0.85499  0.35462  0.39519  1.0000
  C   C1214     1.0  0.83809  0.34532  0.38348  1.0000
  C   C1215     1.0  0.83463  0.34398  0.35415  1.0000
  C   C1216     1.0  0.84810  0.35168  0.33595  1.0000
  C   C1217     1.0  0.86500  0.36098  0.34770  1.0000
  C   C1218     1.0  0.86843  0.36251  0.37703  1.0000
  H   H1442     1.0  0.82757  0.33903  0.39718  1.0000
  H   H1443     1.0  0.82159  0.33670  0.34560  1.0000
  H   H1444     1.0  0.87557  0.36689  0.33392  1.0000
  H   H1445     1.0  0.88155  0.36943  0.38549  1.0000
  C   C1219     1.0  0.86254  0.35929  0.09243  1.0000
  C   C1220     1.0  0.84659  0.34607  0.08325  1.0000
  C   C1221     1.0  0.83409  0.33694  0.10278  1.0000
  C   C1222     1.0  0.83710  0.34111  0.13173  1.0000
  C   C1223     1.0  0.85284  0.35469  0.14083  1.0000
  C   C1224     1.0  0.86550  0.36354  0.12137  1.0000
  H   H1446     1.0  0.84408  0.34248  0.06120  1.0000
  H   H1447     1.0  0.82206  0.32644  0.09537  1.0000
  H   H1448     1.0  0.85552  0.35797  0.16296  1.0000
  H   H1449     1.0  0.87778  0.37363  0.12889  1.0000
  H   H1450     1.0  0.78542  0.27111  0.13662  1.0000
  H   H1451     1.0  0.77509  0.44896  0.29235  1.0000
  H   H1452     1.0  0.76099  0.37325  0.26011  1.0000
  H   H1453     1.0  0.84298  0.38353  0.16488  1.0000
  C   C1225     1.0  0.86827  0.45616  0.40707  1.0000
  S   S335      1.0  0.81728  0.48830  0.29310  1.0000
  H   H1454     1.0  0.91149  0.35223  0.04935  1.0000
  H   H1455     1.0  0.83213  0.44545  0.19731  1.0000
  H   H1456     1.0  0.74508  0.38010  0.22169  1.0000
  H   H1457     1.0  0.87702  0.47719  0.18598  1.0000
  H   H1458     1.0  0.74852  0.24324  0.28124  1.0000
  H   H1459     1.0  0.76496  0.30756  0.15887  1.0000
  N   N80       1.0  0.77199  0.28615  0.15097  1.0000
  H   H1460     1.0  0.84590  0.46761  0.19045  1.0000
  C   C1226     1.0  0.78057  0.28849  0.17916  1.0000
  C   C1227     1.0  0.96688  0.42119  0.48684  1.0000
  C   C1228     1.0  0.75426  0.27215  0.15159  1.0000
  C   C1229     1.0  0.88176  0.32774  0.45137  1.0000
  C   C1230     1.0  0.78308  0.28260  0.13079  1.0000
  H   H1461     1.0  0.83631  0.42111  0.21745  1.0000
  H   H1462     1.0  0.96097  0.39105  0.10167  1.0000
  H   H1463     1.0  0.79614  0.29370  0.13042  1.0000
  H   H1464     1.0  0.87955  0.32916  0.42924  1.0000
  C   C1231     1.0  0.75247  0.49245  0.22889  1.0000
  H   H1465     1.0  0.79213  0.45168  0.26874  1.0000
  H   H1466     1.0  0.77357  0.29216  0.19538  1.0000
  H   H1467     1.0  0.85647  0.32429  0.46094  1.0000
  H   H1468     1.0  0.78131  0.27632  0.18585  1.0000
  H   H1469     1.0  0.86699  0.46829  0.22970  1.0000
  H   H1470     1.0  0.89480  0.48023  0.01583  1.0000
  H   H1471     1.0  0.76205  0.43693  0.20501  1.0000
  C   C1232     1.0  0.77193  0.44441  0.22161  1.0000
  H   H1472     1.0  0.96084  0.45112  0.45894  1.0000
  H   H1473     1.0  0.76417  0.30124  0.12264  1.0000
  H   H1474     1.0  0.74497  0.28603  0.18092  1.0000
  C   C1233     1.0  0.90614  0.44320  0.98911  1.0000
  C   C1234     1.0  0.76520  0.49121  0.24708  1.0000
  C   C1235     1.0  0.84357  0.45387  0.18568  1.0000
  N   N81       1.0  0.76630  0.43868  0.25021  1.0000
  N   N82       1.0  0.85978  0.40889  0.39210  1.0000
  C   C1236     1.0  0.84910  0.39586  0.37005  1.0000
  C   C1237     1.0  0.87780  0.41080  0.39057  1.0000
  C   C1238     1.0  0.85318  0.40170  0.41959  1.0000
  C   C1239     1.0  0.85952  0.42615  0.38912  1.0000
  C   C1240     1.0  0.86806  0.43967  0.40969  1.0000
  C   C1241     1.0  0.85142  0.43029  0.36563  1.0000
  C   C1242     1.0  0.88527  0.45530  0.99443  1.0000
  C   C1243     1.0  0.85171  0.44683  0.36326  1.0000
  C   C1244     1.0  0.77909  0.45157  0.27038  1.0000
  H   H1475     1.0  0.85417  0.39954  0.34885  1.0000
  H   H1476     1.0  0.84901  0.38289  0.37343  1.0000
  H   H1477     1.0  0.83536  0.39391  0.36984  1.0000
  H   H1478     1.0  0.88329  0.41614  0.37021  1.0000
  H   H1479     1.0  0.87857  0.39809  0.39276  1.0000
  H   H1480     1.0  0.88646  0.41966  0.40749  1.0000
  H   H1481     1.0  0.84007  0.40113  0.42243  1.0000
  H   H1482     1.0  0.85233  0.38829  0.42178  1.0000
  H   H1483     1.0  0.86170  0.40948  0.43753  1.0000
  H   H1484     1.0  0.74691  0.40949  0.21745  1.0000
  H   H1485     1.0  0.84483  0.42105  0.34866  1.0000
  H   H1486     1.0  0.88694  0.46479  0.47420  1.0000
  H   H1487     1.0  0.84547  0.44972  0.34513  1.0000
  C   C1245     1.0  0.86007  0.45971  0.38394  1.0000
  H   H1488     1.0  0.85156  0.44715  0.23660  1.0000
  N   N83       1.0  0.85898  0.45076  0.19325  1.0000
  C   C1246     1.0  0.86293  0.45428  0.22387  1.0000
  C   C1247     1.0  0.96497  0.39114  0.08050  1.0000
  C   C1248     1.0  0.85526  0.43246  0.18567  1.0000
  H   H1489     1.0  0.90811  0.33162  0.44705  1.0000
  C   C1249     1.0  0.92567  0.35858  0.04611  1.0000
  C   C1250     1.0  0.97906  0.43318  0.02080  1.0000
  C   C1251     1.0  0.86290  0.42774  0.16285  1.0000
  H   H1490     1.0  0.97791  0.43398  0.44905  1.0000
  H   H1491     1.0  0.91284  0.38243  0.04896  1.0000
  C   C1252     1.0  0.91503  0.47171  0.01141  1.0000
  H   H1492     1.0  0.77731  0.28057  0.10908  1.0000
  H   H1493     1.0  0.77874  0.39606  0.29510  1.0000
  C   C1253     1.0  0.92704  0.38752  0.04700  1.0000
  H   H1494     1.0  0.95115  0.42045  0.02183  1.0000
  C   C1254     1.0  0.97329  0.48825  0.02855  1.0000
  C   C1255     1.0  0.74935  0.43919  0.25400  1.0000
  H   H1495     1.0  0.87349  0.45065  0.23096  1.0000
  C   C1256     1.0  0.77155  0.39913  0.27859  1.0000
  C   C1257     1.0  0.86858  0.32499  0.46982  1.0000
  H   H1496     1.0  0.86449  0.40688  0.13821  1.0000
  C   C1258     1.0  0.76458  0.42072  0.25388  1.0000
  C   C1259     1.0  0.77310  0.41614  0.27629  1.0000
  H   H1497     1.0  0.92684  0.35912  0.02303  1.0000
  H   H1498     1.0  0.86027  0.47252  0.38195  1.0000
  H   H1499     1.0  0.78450  0.31339  0.14144  1.0000
  H   H1500     1.0  0.93144  0.34987  0.05411  1.0000
  H   H1501     1.0  0.93380  0.36574  0.10130  1.0000
  H   H1502     1.0  0.91434  0.36782  0.09109  1.0000
  C   C1260     1.0  0.92872  0.37403  0.08983  1.0000
  H   H1503     1.0  0.78154  0.42551  0.29186  1.0000
  H   H1504     1.0  0.74173  0.48094  0.30583  1.0000
  N   N84       1.0  0.93399  0.37605  0.06031  1.0000
  H   H1505     1.0  0.87218  0.43726  0.15008  1.0000
  H   H1506     1.0  0.75011  0.45252  0.25138  1.0000
  H   H1507     1.0  0.87493  0.46632  0.42297  1.0000
  H   H1508     1.0  0.82896  0.39095  0.20419  1.0000
  C   C1261     1.0  0.85855  0.41027  0.15566  1.0000
  H   H1509     1.0  0.92945  0.38879  0.02428  1.0000
  H   H1510     1.0  0.87215  0.45407  0.99212  1.0000
  C   C1262     1.0  0.87389  0.46361  0.17871  1.0000
  H   H1511     1.0  0.93296  0.40084  0.05685  1.0000
  C   C1263     1.0  0.83860  0.40125  0.19283  1.0000
  C   C1264     1.0  0.97770  0.39312  0.02699  1.0000
  C   C1265     1.0  0.95295  0.38368  0.05741  1.0000
  C   C1266     1.0  0.73969  0.24138  0.29795  1.0000
  C   C1267     1.0  0.95990  0.38491  0.03054  1.0000
  C   C1268     1.0  0.75404  0.40711  0.23470  1.0000
  H   H1512     1.0  0.73924  0.43055  0.23852  1.0000
  C   C1269     1.0  0.74905  0.25583  0.13704  1.0000
  C   C1270     1.0  0.74177  0.27433  0.16818  1.0000
  C   C1271     1.0  0.74344  0.27049  0.24109  1.0000
  C   C1272     1.0  0.95650  0.46173  0.46130  1.0000
  H   H1513     1.0  0.77448  0.45831  0.21885  1.0000
  H   H1514     1.0  0.98263  0.39447  0.00613  1.0000
  H   H1515     1.0  0.98075  0.43800  0.04229  1.0000
  S   S336      1.0  0.94517  0.41291  0.47210  1.0000
  H   H1516     1.0  0.78058  0.46500  0.26645  1.0000
  H   H1517     1.0  0.93206  0.45925  0.00498  1.0000
  S   S337      1.0  0.93152  0.49077  0.02608  1.0000
  H   H1518     1.0  0.95986  0.48077  0.03328  1.0000
  H   H1519     1.0  0.75766  0.25284  0.12422  1.0000
  C   C1273     1.0  0.89814  0.47021  0.00766  1.0000
  C   C1274     1.0  0.91900  0.45814  0.00226  1.0000
  H   H1520     1.0  0.73966  0.23191  0.21185  1.0000
  C   C1275     1.0  0.98065  0.43146  0.47032  1.0000
  H   H1521     1.0  0.74463  0.43503  0.27525  1.0000
  H   H1522     1.0  0.94246  0.45606  0.45513  1.0000
  Fe  Fe168     1.0  0.91706  0.39894  0.48602  1.0000
  C   C1276     1.0  0.89783  0.32920  0.46139  1.0000
  H   H1523     1.0  0.77066  0.48587  0.28923  1.0000
  H   H1524     1.0  0.97948  0.46621  0.03003  1.0000
  C   C1277     1.0  0.74356  0.25436  0.31864  1.0000
  S   S338      1.0  0.86130  0.37519  0.99066  1.0000
  S   S339      1.0  0.89310  0.36309  0.99028  1.0000
  C   C1278     1.0  0.98431  0.48002  0.02675  1.0000
  Fe  Fe169     1.0  0.87390  0.36528  0.95820  1.0000
  H   H1525     1.0  0.96050  0.41008  0.52727  1.0000
  S   S340      1.0  0.85446  0.34530  0.92669  1.0000
  H   H1526     1.0  0.75108  0.27650  0.70095  1.0000
  S   S341      1.0  0.90720  0.40782  0.52341  1.0000
  H   H1527     1.0  0.84831  0.33830  0.49487  1.0000
  C   C1279     1.0  0.85961  0.46029  0.52719  1.0000
  C   C1280     1.0  0.87365  0.48829  0.61742  1.0000
  Fe  Fe170     1.0  0.88842  0.37974  0.52740  1.0000
  S   S342      1.0  0.88429  0.36816  0.57119  1.0000
  S   S343      1.0  0.89240  0.39166  0.94548  1.0000
  C   C1281     1.0  0.90078  0.32791  0.48992  1.0000
  C   C1282     1.0  0.94220  0.47644  0.93809  1.0000
  H   H1528     1.0  0.92256  0.44935  0.93443  1.0000
  S   S344      1.0  0.81610  0.48155  0.78326  1.0000
  Fe  Fe171     1.0  0.83077  0.47490  0.75027  1.0000
  S   S345      1.0  0.83623  0.45133  0.74185  1.0000
  H   H1529     1.0  0.83097  0.30302  0.52467  1.0000
  H   H1530     1.0  0.84382  0.46691  0.49791  1.0000
  Fe  Fe172     1.0  0.81545  0.33686  0.69986  1.0000
  S   S346      1.0  0.78783  0.33061  0.71089  1.0000
  S   S347      1.0  0.82056  0.34166  0.65289  1.0000
  Fe  Fe173     1.0  0.82668  0.33814  0.76248  1.0000
  S   S348      1.0  0.80019  0.33224  0.77671  1.0000
  S   S349      1.0  0.85015  0.34529  0.79286  1.0000
  Fe  Fe174     1.0  0.79018  0.31173  0.74158  1.0000
  S   S350      1.0  0.77030  0.28497  0.75593  1.0000
  Fe  Fe175     1.0  0.79997  0.35129  0.74497  1.0000
  S   S351      1.0  0.78980  0.37110  0.75729  1.0000
  S   S352      1.0  0.81720  0.31667  0.72873  1.0000
  S   S353      1.0  0.82712  0.35851  0.73253  1.0000
  C   C1283     1.0  0.82283  0.42925  0.74659  1.0000
  C   C1284     1.0  0.80606  0.42356  0.75598  1.0000
  C   C1285     1.0  0.79601  0.40567  0.75932  1.0000
  C   C1286     1.0  0.80269  0.39347  0.75331  1.0000
  C   C1287     1.0  0.81956  0.39930  0.74439  1.0000
  C   C1288     1.0  0.82958  0.41709  0.74109  1.0000
  H   H1531     1.0  0.80076  0.43286  0.76032  1.0000
  H   H1532     1.0  0.78295  0.40123  0.76627  1.0000
  H   H1533     1.0  0.82493  0.39014  0.74007  1.0000
  H   H1534     1.0  0.84263  0.42146  0.73415  1.0000
  H   H1535     1.0  0.84234  0.33567  0.53060  1.0000
  C   C1289     1.0  0.87220  0.48025  0.56802  1.0000
  C   C1290     1.0  0.91588  0.46559  0.53901  1.0000
  Fe  Fe176     1.0  0.88093  0.40134  0.97921  1.0000
  C   C1291     1.0  0.75037  0.26770  0.74297  1.0000
  S   S354      1.0  0.87320  0.42293  0.96945  1.0000
  H   H1536     1.0  0.90202  0.43774  0.53716  1.0000
  H   H1537     1.0  0.89104  0.32485  0.53048  1.0000
  H   H1538     1.0  0.87297  0.33217  0.55600  1.0000
  H   H1539     1.0  0.85097  0.31881  0.56190  1.0000
  H   H1540     1.0  0.86220  0.40197  0.90640  1.0000
  C   C1292     1.0  0.85336  0.34686  0.88960  1.0000
  C   C1293     1.0  0.83725  0.33859  0.87489  1.0000
  C   C1294     1.0  0.83592  0.33881  0.84542  1.0000
  C   C1295     1.0  0.85081  0.34659  0.83015  1.0000
  C   C1296     1.0  0.86689  0.35501  0.84486  1.0000
  C   C1297     1.0  0.86815  0.35541  0.87441  1.0000
  H   H1541     1.0  0.82574  0.33173  0.88631  1.0000
  H   H1542     1.0  0.82345  0.33252  0.83454  1.0000
  H   H1543     1.0  0.87851  0.36107  0.83331  1.0000
  H   H1544     1.0  0.88065  0.36172  0.88534  1.0000
  C   C1298     1.0  0.86646  0.36126  0.59368  1.0000
  C   C1299     1.0  0.84991  0.35909  0.58446  1.0000
  C   C1300     1.0  0.83609  0.35295  0.60278  1.0000
  C   C1301     1.0  0.83860  0.34917  0.63074  1.0000
  C   C1302     1.0  0.85521  0.35163  0.64009  1.0000
  C   C1303     1.0  0.86896  0.35747  0.62161  1.0000
  H   H1545     1.0  0.84774  0.36211  0.56321  1.0000
  H   H1546     1.0  0.82334  0.35117  0.59524  1.0000
  H   H1547     1.0  0.85743  0.34881  0.66146  1.0000
  H   H1548     1.0  0.88168  0.35906  0.62906  1.0000
  C   C1304     1.0  0.97036  0.47848  0.95613  1.0000
  H   H1549     1.0  0.89977  0.47287  0.58648  1.0000
  H   H1550     1.0  0.95711  0.48957  0.51375  1.0000
  H   H1551     1.0  0.87872  0.40097  0.59018  1.0000
  H   H1552     1.0  0.87909  0.47044  0.81833  1.0000
  H   H1553     1.0  0.93716  0.48226  0.88443  1.0000
  H   H1554     1.0  0.88087  0.46088  0.60631  1.0000
  H   H1555     1.0  0.92391  0.46584  0.55716  1.0000
  C   C1305     1.0  0.74397  0.26653  0.71529  1.0000
  C   C1306     1.0  0.88927  0.44176  0.98531  1.0000
  H   H1556     1.0  0.85838  0.44892  0.51490  1.0000
  H   H1557     1.0  0.86219  0.47596  0.62105  1.0000
  N   N85       1.0  0.83453  0.39744  0.64952  1.0000
  C   C1307     1.0  0.83234  0.41235  0.66267  1.0000
  C   C1308     1.0  0.81719  0.38345  0.64199  1.0000
  C   C1309     1.0  0.84286  0.39076  0.67117  1.0000
  C   C1310     1.0  0.84448  0.40280  0.62384  1.0000
  C   C1311     1.0  0.85905  0.39929  0.61871  1.0000
  C   C1312     1.0  0.83917  0.41110  0.60233  1.0000
  C   C1313     1.0  0.86785  0.40411  0.59387  1.0000
  H   H1558     1.0  0.84508  0.42345  0.66775  1.0000
  H   H1559     1.0  0.82452  0.41715  0.64926  1.0000
  H   H1560     1.0  0.82537  0.40872  0.68251  1.0000
  H   H1561     1.0  0.80941  0.38795  0.62786  1.0000
  H   H1562     1.0  0.80955  0.37827  0.66085  1.0000
  H   H1563     1.0  0.81827  0.37227  0.63109  1.0000
  H   H1564     1.0  0.85616  0.40049  0.67732  1.0000
  H   H1565     1.0  0.83541  0.38743  0.69055  1.0000
  H   H1566     1.0  0.84346  0.37850  0.66394  1.0000
  H   H1567     1.0  0.86371  0.39243  0.63321  1.0000
  H   H1568     1.0  0.82782  0.41357  0.60416  1.0000
  N   N86       1.0  0.81352  0.28429  0.81019  1.0000
  C   C1314     1.0  0.79578  0.27061  0.81364  1.0000
  C   C1315     1.0  0.81174  0.29942  0.79812  1.0000
  C   C1316     1.0  0.82196  0.27736  0.78975  1.0000
  C   C1317     1.0  0.82421  0.28994  0.83663  1.0000
  C   C1318     1.0  0.84178  0.30217  0.83632  1.0000
  C   C1319     1.0  0.81751  0.28418  0.86327  1.0000
  C   C1320     1.0  0.85199  0.30819  0.86105  1.0000
  C   C1321     1.0  0.82783  0.29044  0.88791  1.0000
  C   C1322     1.0  0.84500  0.30245  0.88680  1.0000
  H   H1569     1.0  0.78822  0.26662  0.79321  1.0000
  H   H1570     1.0  0.79608  0.25871  0.82261  1.0000
  H   H1571     1.0  0.78816  0.27536  0.82708  1.0000
  H   H1572     1.0  0.80516  0.30486  0.81254  1.0000
  H   H1573     1.0  0.80396  0.29579  0.77803  1.0000
  H   H1574     1.0  0.82442  0.31008  0.79361  1.0000
  H   H1575     1.0  0.82464  0.26669  0.79877  1.0000
  H   H1576     1.0  0.81374  0.27217  0.77018  1.0000
  H   H1577     1.0  0.83439  0.28752  0.78298  1.0000
  H   H1578     1.0  0.84763  0.30773  0.81704  1.0000
  H   H1579     1.0  0.80428  0.27508  0.86572  1.0000
  H   H1580     1.0  0.86521  0.31795  0.86032  1.0000
  H   H1581     1.0  0.82243  0.28621  0.90810  1.0000
  H   H1582     1.0  0.85280  0.30770  0.90598  1.0000
  H   H1583     1.0  0.86914  0.41590  0.55399  1.0000
  H   H1584     1.0  0.86420  0.43767  0.81509  1.0000
  C   C1323     1.0  0.86243  0.41245  0.57340  1.0000
  C   C1324     1.0  0.90362  0.44969  0.52753  1.0000
  H   H1585     1.0  0.86123  0.43160  0.86164  1.0000
  H   H1586     1.0  0.86305  0.46882  0.79170  1.0000
  C   C1325     1.0  0.88771  0.32530  0.50862  1.0000
  C   C1326     1.0  0.86168  0.32021  0.54803  1.0000
  C   C1327     1.0  0.89110  0.47403  0.60251  1.0000
  C   C1328     1.0  0.87115  0.32382  0.49906  1.0000
  C   C1329     1.0  0.84812  0.41594  0.57763  1.0000
  H   H1587     1.0  0.76193  0.47116  0.75850  1.0000
  H   H1588     1.0  0.86964  0.43494  0.91136  1.0000
  Fe  Fe177     1.0  0.91079  0.39077  0.97980  1.0000
  H   H1589     1.0  0.76844  0.48978  0.81984  1.0000
  H   H1590     1.0  0.87114  0.46021  0.93936  1.0000
  H   H1591     1.0  0.84375  0.42211  0.56137  1.0000
  H   H1592     1.0  0.86468  0.30879  0.55119  1.0000
  H   H1593     1.0  0.74555  0.25511  0.78259  1.0000
  C   C1330     1.0  0.85330  0.48529  0.53278  1.0000
  H   H1594     1.0  0.86617  0.48240  0.82220  1.0000
  H   H1595     1.0  0.90939  0.43295  0.98147  1.0000
  H   H1596     1.0  0.89926  0.47872  0.62222  1.0000
  S   S355      1.0  0.82492  0.49037  0.71686  1.0000
  H   H1597     1.0  0.91341  0.32935  0.49766  1.0000
  C   C1331     1.0  0.93577  0.45807  0.94012  1.0000
  H   H1598     1.0  0.87639  0.45698  0.55757  1.0000
  H   H1599     1.0  0.85652  0.48067  0.86720  1.0000
  H   H1600     1.0  0.73954  0.48896  0.81663  1.0000
  C   C1332     1.0  0.90725  0.48084  0.50371  1.0000
  H   H1601     1.0  0.86424  0.34892  0.52240  1.0000
  H   H1602     1.0  0.84454  0.29402  0.50930  1.0000
  C   C1333     1.0  0.97083  0.41795  0.51422  1.0000
  C   C1334     1.0  0.86347  0.49013  0.55768  1.0000
  N   N87       1.0  0.83487  0.38524  0.90635  1.0000
  C   C1335     1.0  0.83062  0.39927  0.91788  1.0000
  C   C1336     1.0  0.82388  0.36870  0.91937  1.0000
  C   C1337     1.0  0.85311  0.38958  0.91518  1.0000
  C   C1338     1.0  0.83159  0.38334  0.87556  1.0000
  C   C1339     1.0  0.81519  0.38078  0.86360  1.0000
  C   C1340     1.0  0.84416  0.38341  0.85667  1.0000
  C   C1341     1.0  0.81167  0.37860  0.83461  1.0000
  C   C1342     1.0  0.84046  0.38114  0.82776  1.0000
  C   C1343     1.0  0.82427  0.37874  0.81677  1.0000
  H   H1603     1.0  0.83739  0.41156  0.90680  1.0000
  H   H1604     1.0  0.81655  0.39587  0.91636  1.0000
  H   H1605     1.0  0.83459  0.40214  0.94058  1.0000
  H   H1606     1.0  0.80987  0.36491  0.91503  1.0000
  H   H1607     1.0  0.82616  0.36950  0.94256  1.0000
  H   H1608     1.0  0.82675  0.35785  0.91145  1.0000
  H   H1609     1.0  0.85516  0.39108  0.93834  1.0000
  H   H1610     1.0  0.85697  0.37906  0.90914  1.0000
  H   H1611     1.0  0.80483  0.38007  0.87660  1.0000
  H   H1612     1.0  0.85680  0.38465  0.86367  1.0000
  H   H1613     1.0  0.79900  0.37642  0.82577  1.0000
  H   H1614     1.0  0.85001  0.38062  0.81379  1.0000
  H   H1615     1.0  0.82134  0.37661  0.79439  1.0000
  N   N88       1.0  0.85285  0.45476  0.82897  1.0000
  C   C1344     1.0  0.85158  0.43860  0.81442  1.0000
  C   C1345     1.0  0.83577  0.45536  0.82521  1.0000
  C   C1346     1.0  0.86586  0.46974  0.81478  1.0000
  C   C1347     1.0  0.85784  0.45588  0.85919  1.0000
  C   C1348     1.0  0.86178  0.44305  0.87268  1.0000
  C   C1349     1.0  0.85918  0.47036  0.87603  1.0000
  C   C1350     1.0  0.86662  0.44476  0.90126  1.0000
  C   C1351     1.0  0.86397  0.47190  0.90454  1.0000
  C   C1352     1.0  0.86755  0.45905  0.91718  1.0000
  H   H1616     1.0  0.84154  0.42676  0.82333  1.0000
  H   H1617     1.0  0.84780  0.43823  0.79180  1.0000
  H   H1618     1.0  0.82571  0.44485  0.83668  1.0000
  H   H1619     1.0  0.83132  0.45375  0.80270  1.0000
  H   H1620     1.0  0.83605  0.46799  0.83259  1.0000
  C   C1353     1.0  0.85141  0.47042  0.51753  1.0000
  H   H1621     1.0  0.97163  0.45443  0.96647  1.0000
  H   H1622     1.0  0.97291  0.41384  0.94535  1.0000
  N   N89       1.0  0.95990  0.46902  0.49040  1.0000
  C   C1354     1.0  0.91755  0.48116  0.52725  1.0000
  S   S356      1.0  0.86764  0.38171  0.49979  1.0000
  S   S357      1.0  0.93919  0.40045  0.96802  1.0000
  C   C1355     1.0  0.97451  0.41945  0.96633  1.0000
  H   H1623     1.0  0.86491  0.48316  0.91689  1.0000
  C   C1356     1.0  0.74083  0.25444  0.76113  1.0000
  C   C1357     1.0  0.86995  0.46510  0.55196  1.0000
  N   N90       1.0  0.88353  0.48616  0.59380  1.0000
  H   H1624     1.0  0.94110  0.43631  0.95224  1.0000
  C   C1358     1.0  0.85275  0.33671  0.51635  1.0000
  C   C1359     1.0  0.75589  0.48008  0.75718  1.0000
  C   C1360     1.0  0.95410  0.48322  0.49242  1.0000
  C   C1361     1.0  0.96354  0.46051  0.95846  1.0000
  H   H1625     1.0  0.91050  0.46284  0.90696  1.0000
  N   N91       1.0  0.85711  0.32158  0.51817  1.0000
  C   C1362     1.0  0.95992  0.48637  0.94603  1.0000
  C   C1363     1.0  0.94632  0.45033  0.95038  1.0000
  C   C1364     1.0  0.89318  0.44940  0.50417  1.0000
  C   C1365     1.0  0.91282  0.47321  0.92320  1.0000
  H   H1626     1.0  0.90747  0.46706  0.94320  1.0000
  C   C1366     1.0  0.97866  0.47584  0.49768  1.0000
  H   H1627     1.0  0.98382  0.48631  0.96228  1.0000
  N   N92       1.0  0.93146  0.48510  0.92716  1.0000
  C   C1367     1.0  0.95984  0.41557  0.98229  1.0000
  H   H1628     1.0  0.90502  0.48028  0.91620  1.0000
  H   H1629     1.0  0.97772  0.45669  0.52883  1.0000
  C   C1368     1.0  0.84150  0.30556  0.50987  1.0000
  H   H1630     1.0  0.95100  0.45975  0.53119  1.0000
  C   C1369     1.0  0.98565  0.46811  0.51781  1.0000
  C   C1370     1.0  0.73789  0.47402  0.76057  1.0000
  H   H1631     1.0  0.93498  0.45050  0.50321  1.0000
  H   H1632     1.0  0.95166  0.44338  0.50702  1.0000
  C   C1371     1.0  0.94900  0.45510  0.50889  1.0000
  S   S358      1.0  0.89953  0.37040  0.49155  1.0000
  H   H1633     1.0  0.78942  0.48775  0.84856  1.0000
  Fe  Fe178     1.0  0.88696  0.40878  0.49326  1.0000
  C   C1372     1.0  0.89497  0.46497  0.49231  1.0000
  S   S359      1.0  0.87764  0.42970  0.48991  1.0000
  H   H1634     1.0  0.88172  0.49245  0.63729  1.0000
  C   C1373     1.0  0.93774  0.49254  0.89976  1.0000
  H   H1635     1.0  0.93991  0.47833  0.48810  1.0000
  H   H1636     1.0  0.83600  0.30640  0.48882  1.0000
  Fe  Fe179     1.0  0.94448  0.55327  0.02671  1.0000
  S   S360      1.0  0.92022  0.55625  0.01302  1.0000
  S   S361      1.0  0.97015  0.57420  0.04514  1.0000
  H   H1637     1.0  0.75553  0.52699  0.26339  1.0000
  Fe  Fe180     1.0  0.84762  0.50129  0.22917  1.0000
  S   S362      1.0  0.89980  0.51368  0.00878  1.0000
  S   S363      1.0  0.89665  0.52253  0.43756  1.0000
  Fe  Fe181     1.0  0.90633  0.53459  0.04277  1.0000
  S   S364      1.0  0.88649  0.53598  0.07307  1.0000
  H   H1638     1.0  0.81413  0.54470  0.28210  1.0000
  S   S365      1.0  0.93075  0.53299  0.05797  1.0000
  C   C1374     1.0  0.77484  0.52747  0.33807  1.0000
  Fe  Fe182     1.0  0.84337  0.51083  0.29104  1.0000
  H   H1639     1.0  0.82742  0.54895  0.34116  1.0000
  S   S366      1.0  0.85330  0.52953  0.32948  1.0000
  H   H1640     1.0  0.80849  0.54642  0.35887  1.0000
  S   S367      1.0  0.83705  0.51905  0.24874  1.0000
  C   C1375     1.0  0.75074  0.52486  0.30720  1.0000
  H   H1641     1.0  0.81651  0.51642  0.33692  1.0000
  H   H1642     1.0  0.88714  0.55758  0.16642  1.0000
  C   C1376     1.0  0.86524  0.52732  0.35952  1.0000
  C   C1377     1.0  0.87067  0.51391  0.36129  1.0000
  C   C1378     1.0  0.88027  0.51278  0.38525  1.0000
  C   C1379     1.0  0.88450  0.52489  0.40795  1.0000
  C   C1380     1.0  0.87898  0.53825  0.40627  1.0000
  C   C1381     1.0  0.86947  0.53946  0.38220  1.0000
  H   H1643     1.0  0.88462  0.50252  0.38613  1.0000
  H   H1644     1.0  0.88213  0.54770  0.42343  1.0000
  H   H1645     1.0  0.86543  0.54993  0.38114  1.0000
  C   C1382     1.0  0.88091  0.52652  0.10657  1.0000
  C   C1383     1.0  0.86709  0.52774  0.12034  1.0000
  C   C1384     1.0  0.86255  0.52095  0.14721  1.0000
  C   C1385     1.0  0.87187  0.51292  0.16086  1.0000
  C   C1386     1.0  0.81374  0.54714  0.33776  1.0000
  C   C1387     1.0  0.89009  0.51830  0.12009  1.0000
  H   H1646     1.0  0.85987  0.53406  0.11018  1.0000
  H   H1647     1.0  0.85198  0.52215  0.15747  1.0000
  C   C1388     1.0  0.77827  0.52983  0.28801  1.0000
  H   H1648     1.0  0.79830  0.51483  0.35558  1.0000
  H   H1649     1.0  0.74945  0.52279  0.35176  1.0000
  H   H1650     1.0  0.90079  0.51729  0.10997  1.0000
  H   H1651     1.0  0.97941  0.53326  0.99302  1.0000
  H   H1652     1.0  0.89305  0.50556  0.15729  1.0000
  H   H1653     1.0  0.98376  0.57448  0.98931  1.0000
  C   C1389     1.0  0.76110  0.52750  0.28431  1.0000
  C   C1390     1.0  0.97944  0.50609  0.02433  1.0000
  H   H1654     1.0  0.81396  0.55905  0.32800  1.0000
  N   N93       1.0  0.93551  0.58043  0.11168  1.0000
  C   C1391     1.0  0.93787  0.59867  0.11595  1.0000
  C   C1392     1.0  0.95291  0.58074  0.10869  1.0000
  C   C1393     1.0  0.92547  0.57333  0.08494  1.0000
  C   C1394     1.0  0.92601  0.56989  0.13508  1.0000
  C   C1395     1.0  0.93289  0.56079  0.15277  1.0000
  C   C1396     1.0  0.90923  0.56845  0.14070  1.0000
  C   C1397     1.0  0.92357  0.55114  0.17488  1.0000
  C   C1398     1.0  0.90009  0.55883  0.16292  1.0000
  C   C1399     1.0  0.90725  0.55023  0.18001  1.0000
  H   H1655     1.0  0.94544  0.60707  0.09908  1.0000
  H   H1656     1.0  0.92536  0.59979  0.11576  1.0000
  H   H1657     1.0  0.94485  0.60428  0.13636  1.0000
  H   H1658     1.0  0.96136  0.58616  0.12790  1.0000
  H   H1659     1.0  0.95981  0.58902  0.09123  1.0000
  H   H1660     1.0  0.95206  0.56753  0.10353  1.0000
  H   H1661     1.0  0.91290  0.57434  0.08393  1.0000
  H   H1662     1.0  0.93269  0.58008  0.06652  1.0000
  H   H1663     1.0  0.92238  0.55930  0.08211  1.0000
  H   H1664     1.0  0.94533  0.56072  0.14978  1.0000
  H   H1665     1.0  0.90288  0.57444  0.12756  1.0000
  N   N94       1.0  0.80355  0.53143  0.31986  1.0000
  S   S368      1.0  0.86755  0.50494  0.19553  1.0000
  H   H1666     1.0  0.89989  0.54241  0.19676  1.0000
  H   H1667     1.0  0.98315  0.61088  0.42550  1.0000
  H   H1668     1.0  0.92888  0.54408  0.18790  1.0000
  C   C1400     1.0  0.75763  0.52497  0.33405  1.0000
  C   C1401     1.0  0.81283  0.53297  0.29362  1.0000
  H   H1669     1.0  0.78525  0.53112  0.26914  1.0000
  H   H1670     1.0  0.97031  0.51182  0.02595  1.0000
  H   H1671     1.0  0.82623  0.53423  0.29790  1.0000
  C   C1402     1.0  0.88560  0.51158  0.14699  1.0000
  C   C1403     1.0  0.78564  0.52970  0.31512  1.0000
  H   H1672     1.0  0.79508  0.50379  0.32207  1.0000
  H   H1673     1.0  0.86767  0.50452  0.34407  1.0000
  Fe  Fe183     1.0  0.92529  0.51382  0.02233  1.0000
  Fe  Fe184     1.0  0.90872  0.53486  0.48094  1.0000
  C   C1404     1.0  0.80329  0.51595  0.33422  1.0000
  H   H1674     1.0  0.80616  0.52127  0.27949  1.0000
  H   H1675     1.0  0.77955  0.52734  0.35928  1.0000
  S   S369      1.0  0.94078  0.53369  0.99230  1.0000
  H   H1676     1.0  0.75541  0.49581  0.20737  1.0000
  Fe  Fe185     1.0  0.81156  0.49520  0.25000  1.0000
  S   S370      1.0  0.85587  0.49509  0.27151  1.0000
  S   S371      1.0  0.78593  0.49542  0.23395  1.0000
  H   H1677     1.0  0.98607  0.53979  0.04233  1.0000
  H   H1678     1.0  0.96014  0.49352  0.47716  1.0000
  H   H1679     1.0  0.73722  0.52230  0.30399  1.0000
  H   H1680     1.0  0.98644  0.49660  0.46758  1.0000
  Fe  Fe186     1.0  0.93914  0.56092  0.51918  1.0000
  H   H1681     1.0  0.90708  0.50817  0.60774  1.0000
  S   S372      1.0  0.96261  0.58736  0.52498  1.0000
  Fe  Fe187     1.0  0.92552  0.52231  0.52762  1.0000
  H   H1682     1.0  0.91616  0.59217  0.56818  1.0000
  H   H1683     1.0  0.92518  0.58695  0.69624  1.0000
  S   S373      1.0  0.91068  0.53240  0.93206  1.0000
  Fe  Fe188     1.0  0.90346  0.54096  0.54395  1.0000
  S   S374      1.0  0.88263  0.54025  0.57377  1.0000
  H   H1684     1.0  0.84862  0.51260  0.90348  1.0000
  S   S375      1.0  0.93027  0.54472  0.55722  1.0000
  Fe  Fe189     1.0  0.84988  0.51225  0.73226  1.0000
  S   S376      1.0  0.87294  0.52745  0.70508  1.0000
  C   C1405     1.0  0.80407  0.51421  0.81503  1.0000
  C   C1406     1.0  0.92441  0.58520  0.57269  1.0000
  H   H1685     1.0  0.76523  0.52240  0.74589  1.0000
  S   S377      1.0  0.83707  0.52213  0.76468  1.0000
  N   N95       1.0  0.93405  0.59083  0.60019  1.0000
  N   N96       1.0  0.79831  0.51546  0.84351  1.0000
  S   S378      1.0  0.91226  0.55872  0.50723  1.0000
  C   C1407     1.0  0.86409  0.51546  0.86754  1.0000
  C   C1408     1.0  0.86153  0.51603  0.89645  1.0000
  C   C1409     1.0  0.87551  0.52107  0.91649  1.0000
  C   C1410     1.0  0.89235  0.52567  0.90791  1.0000
  C   C1411     1.0  0.89487  0.52493  0.87900  1.0000
  C   C1412     1.0  0.88089  0.51984  0.85897  1.0000
  H   H1686     1.0  0.87328  0.52156  0.93856  1.0000
  H   H1687     1.0  0.90782  0.52854  0.87200  1.0000
  H   H1688     1.0  0.88317  0.51951  0.83690  1.0000
  C   C1413     1.0  0.87996  0.53517  0.60990  1.0000
  C   C1414     1.0  0.89376  0.53656  0.62799  1.0000
  C   C1415     1.0  0.89126  0.53370  0.65686  1.0000
  C   C1416     1.0  0.87488  0.52900  0.66803  1.0000
  C   C1417     1.0  0.86096  0.52698  0.64974  1.0000
  C   C1418     1.0  0.86355  0.53025  0.62098  1.0000
  H   H1689     1.0  0.90653  0.54059  0.62002  1.0000
  H   H1690     1.0  0.92991  0.49912  0.89075  1.0000
  H   H1691     1.0  0.84832  0.52356  0.65794  1.0000
  H   H1692     1.0  0.85276  0.52919  0.60729  1.0000
  S   S379      1.0  0.84575  0.50853  0.84340  1.0000
  H   H1693     1.0  0.86888  0.49844  0.61377  1.0000
  C   C1419     1.0  0.94461  0.60985  0.59972  1.0000
  C   C1420     1.0  0.91941  0.58504  0.67519  1.0000
  H   H1694     1.0  0.95334  0.58330  0.58371  1.0000
  H   H1695     1.0  0.94583  0.51021  0.94843  1.0000
  Fe  Fe190     1.0  0.81212  0.49899  0.75122  1.0000
  C   C1421     1.0  0.90148  0.57763  0.67126  1.0000
  H   H1696     1.0  0.88001  0.56916  0.64134  1.0000
  C   C1422     1.0  0.94584  0.58205  0.60285  1.0000
  C   C1423     1.0  0.79774  0.50037  0.85940  1.0000
  C   C1424     1.0  0.93271  0.49940  0.94671  1.0000
  C   C1425     1.0  0.81169  0.53143  0.85763  1.0000
  H   H1697     1.0  0.81082  0.50050  0.86218  1.0000
  C   C1426     1.0  0.90432  0.57965  0.62107  1.0000
  C   C1427     1.0  0.92267  0.58673  0.62428  1.0000
  H   H1698     1.0  0.94373  0.59538  0.65624  1.0000
  H   H1699     1.0  0.89753  0.57686  0.60084  1.0000
  H   H1700     1.0  0.95308  0.61496  0.61897  1.0000
  H   H1701     1.0  0.79578  0.50170  0.80391  1.0000
  H   H1702     1.0  0.96588  0.50032  0.94440  1.0000
  C   C1428     1.0  0.89398  0.57519  0.64431  1.0000
  H   H1703     1.0  0.93328  0.58786  0.55503  1.0000
  C   C1429     1.0  0.75764  0.50882  0.74989  1.0000
  H   H1704     1.0  0.91607  0.57098  0.57177  1.0000
  H   H1705     1.0  0.92392  0.50546  0.93999  1.0000
  H   H1706     1.0  0.89359  0.51327  0.58364  1.0000
  C   C1430     1.0  0.76067  0.52858  0.84914  1.0000
  S   S380      1.0  0.89805  0.51721  0.51694  1.0000
  H   H1707     1.0  0.86486  0.50204  0.56830  1.0000
  H   H1708     1.0  0.80847  0.53301  0.87954  1.0000
  C   C1431     1.0  0.76594  0.49755  0.75163  1.0000
  C   C1432     1.0  0.78086  0.51525  0.84146  1.0000
  H   H1709     1.0  0.75825  0.53941  0.85680  1.0000
  C   C1433     1.0  0.98484  0.59118  0.52387  1.0000
  H   H1710     1.0  0.90218  0.53553  0.67080  1.0000
  C   C1434     1.0  0.75013  0.50017  0.82654  1.0000
  C   C1435     1.0  0.92990  0.58969  0.65212  1.0000
  H   H1711     1.0  0.95325  0.61335  0.58164  1.0000
  H   H1712     1.0  0.81746  0.51511  0.81561  1.0000
  H   H1713     1.0  0.81344  0.54325  0.84593  1.0000
  H   H1714     1.0  0.93624  0.61695  0.59791  1.0000
  H   H1715     1.0  0.89334  0.57351  0.68909  1.0000
  Fe  Fe191     1.0  0.84143  0.50429  0.79543  1.0000
  H   H1716     1.0  0.79271  0.50039  0.88057  1.0000
  H   H1717     1.0  0.98008  0.56497  0.51168  1.0000
  C   C1436     1.0  0.77733  0.52923  0.85167  1.0000
  Fe  Fe192     1.0  0.91538  0.53477  0.98016  1.0000
  H   H1718     1.0  0.93845  0.56794  0.60638  1.0000
  H   H1719     1.0  0.78722  0.54088  0.86147  1.0000
  H   H1720     1.0  0.95565  0.58759  0.62038  1.0000
  S   S381      1.0  0.78873  0.50607  0.74643  1.0000
  C   C1437     1.0  0.74712  0.51408  0.83659  1.0000
  S   S382      1.0  0.93625  0.53847  0.49049  1.0000
  C   C1438     1.0  0.89807  0.50314  0.58902  1.0000
  H   H1721     1.0  0.90566  0.50209  0.57126  1.0000
  C   C1439     1.0  0.76673  0.50074  0.82869  1.0000
  S   S383      1.0  0.85615  0.49646  0.76454  1.0000
  S   S384      1.0  0.93255  0.50096  0.54202  1.0000
  H   H1722     1.0  0.80381  0.52477  0.80174  1.0000
  H   H1723     1.0  0.82461  0.53102  0.85879  1.0000
  H   H1724     1.0  0.95137  0.50249  0.90152  1.0000
  C   C1440     1.0  0.73969  0.50281  0.75364  1.0000
  H   H1725     1.0  0.92916  0.49456  0.96805  1.0000
  H   H1726     1.0  0.73975  0.52230  0.68265  1.0000
  H   H1727     1.0  0.90893  0.49279  0.49389  1.0000
  H   H1728     1.0  0.84722  0.49338  0.52497  1.0000
