data_image0
_chemical_formula_structural       CSHFeS2FeSCH2SFeS2FeS2FeSFeS3CHC2H3C2H3C6H4C6H5CH2CH2CHCHCHC2HCH2CHC2H5CNHC2H2C2H4C4H3C2HNCH2C2HC2NC4H3CH3C2H2CH4CH3CHFeH4FeH2C2HCHNC5H2SHCH2CHCH2C5HCHCHCHC2HC2H2CFeHSFeSCH2SFeS2FeS2FeSFeS3CH2CHCHC3HC7H4C6H5CH2NC2H2C2N2C5HC2H7C2H2CH2CHSCH3CNH2CH2CH2C2H4SHCFeH8SHC3HCH4CH2SC2H5CHNH2SCHFeC2HC3HSC2HC2SCH2CHCHCFeHSCSC2HFeS2HSC2FeCS2HCS2HFeS2FeS2FeSFeS3FeS2FeS2FeSFeSC6H5FeHC7HC5HC7H4C6H4CH2CFeH5CNCH4CSC3H2SH2C2HCH3CH3C3HCH4CSCNHSHCH2CH2NSH4FeCHCH5CNCNH8CHCHCH2SC2H2C2H4CH2C3HC4FeSH3NH3CHC2HCH2CHNC9H9CH2C2H5CHC4HC2SC2FeH6CFe2HS3H3FeS2HCSHFeC2HNH2SHFeS2FeS2FeSFeS3FeS2FeS2FeSFeSC6H5NHC6H2C5H2C6H4C6H4C2H2CH2FeH2CHCH2CHCSCH2C2H2C4H2C2H4NH2NC9H9CHC3H2CHCHNCH4SH2CH2CHFeH3CHCHCSCHCH3CH2FeHSH3CH8CHSC2SHCH2NC8H5C2SHC3HCH4C2SCHCHSCH2NCHCHCHFeSH2CH5S2HCSFeSH4FeS2FeS2FeSFeS3H2C6H4FeCHSHNCH4C7H4C6H5C3H2CHC2HC2HCNC9H14CH3CFeHCHC2SH3CNCH3CSC2HCHC3HSFeCHCHNCH2C2H2CH2CHNCHC3HNHC2H6CH2CH7CHCH4SHFeHSFeSNH3FeS2FeS2FeSFeS3HC7H4C2HCH3CHCH2C6H4C6H4C4HCHC4H2C5HC2H3SH3CNC2H3C2HCFeH3CH4SCS2CHCHSHC2H2CHC2HC3HCH3C3SHCH3C3HNHCH3CFeH2CHCNH3CH2SH4FeHSHSCHSFeSHSFeS2FeS2FeSFeS3HCH2CH3C2H3C7H4C6H4CH2CH2CHC2SHCHCH2CHNCHCH2CH2CHC3HC5NCHCH4CH4SH2C2FeSCNC9H14CH3NC5H2CH2CH2FeHCH4CHCH2FeCSCHCFeSCH2SFeS2FeS2FeSFeS3H2C2HC2H2CH3SC6H4C6H5CH4CHSCHC2HC2HNHSH2CH4CFeHC2H2NC2H4CNC2H4CH2C3HCH2CH4C2HC2H2CHCHC3HFeC2H2SCH2SC2H3CHCHCFeHSHSHFeSHCHSHSHFeCSFeS3HCFeS2FeS2FeSFeHS2FeS2FeS2FeCFeS3C7H4NC6SH3C6H7C6H5C6H3CFeCH2C2NHC3HFeH2FeSCH3C2H2CH3SH5CHC3HCHC4H2SH2CHC3H2CH2CNC9H13C2H3SH4C2HCHCH2CSC2HCHC4HCH5SN2H2C4NC6HCSHFeH6CNCSHCHC2H2CHC2HC3HSCH2C2FeCSCSHFeSFeHCHCSH2CSFeSCHCHFeS2FeS2FeSFeS3FeS2FeS2FeHFeSCSHC6H5C6H4C6H5CHCNC6H2SC6H7C2HCH5C4H2NC5H8CNC9H14CHCH2FeC2H2CNSCHFeCHCH3C3HCHC2H3CHC3H3NSC2HCHCHCHCHC2HSH4CHCHCH2NH4SH3FeHCH4NCH3CNCH3C4H3CSFeHC2HC2SH2S2CH2CH3CH6C2HCNHC2HCFeCSHSHFeSCHCSFeS2FeS2FeSFeS3C6HCHC2NHCHC6H4C6H5CH2CHSH5CH3CH4C4NCH5CHCHCHCH4SH2C2HSHC3H2CHCH3CH3CHCHCH2NH4CHC2H2CHSH2NFeH6CH2SHC3HCH4CFe2HSHSHFeSH3SFeS2FeS2FeSFeS3C2HC3HCHCH5C6H4C6H5CSC2HC2HFeH3C2HCH2C2HCHCH4NCSHNSHCH3C3H5C3H3C4SH2C2HC2H2CHSCHCH4NHC2H7CHCH4CHCHCFeHCH2CHCH4CHNH2C2
_chemical_formula_sum              "C960 S256 H1152 Fe128 N64"
_cell_length_a       60.0589
_cell_length_b       59.8154
_cell_length_c       45.4547
_cell_angle_alpha    90.1291
_cell_angle_beta     90.9991
_cell_angle_gamma    87.61

_space_group_name_H-M_alt    "P 1"
_space_group_IT_number       1

loop_
  _space_group_symop_operation_xyz
  'x, y, z'

loop_
  _atom_site_type_symbol
  _atom_site_label
  _atom_site_symmetry_multiplicity
  _atom_site_fract_x
  _atom_site_fract_y
  _atom_site_fract_z
  _atom_site_occupancy
  C   C1        1.0  0.44703  0.18319  0.41640  1.0000
  S   S1        1.0  0.41303  0.12686  0.03464  1.0000
  H   H1        1.0  0.46168  0.14912  0.48897  1.0000
  Fe  Fe1       1.0  0.38993  0.14307  0.47694  1.0000
  S   S2        1.0  0.36467  0.06444  0.48336  1.0000
  S   S3        1.0  0.37721  0.17185  0.44728  1.0000
  Fe  Fe2       1.0  0.37839  0.14249  0.03262  1.0000
  S   S4        1.0  0.36263  0.15024  0.07702  1.0000
  C   C2        1.0  0.48357  0.18796  0.10385  1.0000
  H   H2        1.0  0.43570  0.14826  0.13491  1.0000
  H   H3        1.0  0.45286  0.18389  0.05743  1.0000
  S   S5        1.0  0.40347  0.10979  0.46108  1.0000
  Fe  Fe3       1.0  0.41139  0.25364  0.26731  1.0000
  S   S6        1.0  0.41152  0.21843  0.25075  1.0000
  S   S7        1.0  0.44412  0.26652  0.28550  1.0000
  Fe  Fe4       1.0  0.35995  0.26018  0.26046  1.0000
  S   S8        1.0  0.35732  0.22461  0.24384  1.0000
  S   S9        1.0  0.32600  0.27946  0.26610  1.0000
  Fe  Fe5       1.0  0.38204  0.21486  0.28016  1.0000
  S   S10       1.0  0.38266  0.18286  0.30773  1.0000
  Fe  Fe6       1.0  0.38703  0.23130  0.21615  1.0000
  S   S11       1.0  0.39246  0.22624  0.16674  1.0000
  S   S12       1.0  0.38289  0.24961  0.29851  1.0000
  S   S13       1.0  0.38866  0.26736  0.23100  1.0000
  C   C3        1.0  0.31196  0.30603  0.25895  1.0000
  H   H4        1.0  0.47455  0.23012  0.33114  1.0000
  C   C4        1.0  0.48458  0.12072  0.49410  1.0000
  C   C5        1.0  0.28905  0.30872  0.26497  1.0000
  H   H5        1.0  0.34036  0.32275  0.24293  1.0000
  H   H6        1.0  0.45947  0.02322  0.01567  1.0000
  H   H7        1.0  0.28039  0.29468  0.27347  1.0000
  C   C6        1.0  0.47036  0.26027  0.26923  1.0000
  C   C7        1.0  0.47200  0.25013  0.24155  1.0000
  H   H8        1.0  0.33554  0.30623  0.18650  1.0000
  H   H9        1.0  0.45700  0.24605  0.22951  1.0000
  H   H10       1.0  0.25954  0.33085  0.26434  1.0000
  C   C8        1.0  0.38050  0.17497  0.40870  1.0000
  C   C9        1.0  0.37412  0.19555  0.39544  1.0000
  C   C10       1.0  0.37502  0.19839  0.36468  1.0000
  C   C11       1.0  0.38192  0.18049  0.34670  1.0000
  C   C12       1.0  0.38830  0.15990  0.35994  1.0000
  C   C13       1.0  0.38787  0.15720  0.39076  1.0000
  H   H11       1.0  0.36826  0.20936  0.40906  1.0000
  H   H12       1.0  0.36994  0.21429  0.35485  1.0000
  H   H13       1.0  0.39364  0.14592  0.34626  1.0000
  H   H14       1.0  0.39287  0.14126  0.40052  1.0000
  C   C14       1.0  0.38372  0.20493  0.14240  1.0000
  C   C15       1.0  0.38778  0.20710  0.11215  1.0000
  C   C16       1.0  0.38160  0.19043  0.09193  1.0000
  C   C17       1.0  0.37111  0.17144  0.10173  1.0000
  C   C18       1.0  0.36682  0.16940  0.13193  1.0000
  C   C19       1.0  0.37324  0.18594  0.15222  1.0000
  H   H15       1.0  0.39582  0.22174  0.10432  1.0000
  H   H16       1.0  0.38473  0.19238  0.06872  1.0000
  H   H17       1.0  0.35857  0.15485  0.13971  1.0000
  H   H18       1.0  0.36994  0.18408  0.17539  1.0000
  H   H19       1.0  0.30822  0.21287  0.20841  1.0000
  C   C20       1.0  0.31992  0.24248  0.18779  1.0000
  H   H20       1.0  0.30249  0.14082  0.44923  1.0000
  H   H21       1.0  0.42791  0.16883  0.05912  1.0000
  C   C21       1.0  0.44113  0.19006  0.38785  1.0000
  H   H22       1.0  0.33066  0.14993  0.45173  1.0000
  H   H23       1.0  0.36073  0.12837  0.42965  1.0000
  C   C22       1.0  0.37290  0.02003  0.02190  1.0000
  H   H24       1.0  0.41824  0.17155  0.12197  1.0000
  C   C23       1.0  0.46327  0.18083  0.11560  1.0000
  H   H25       1.0  0.35560  0.10599  0.45422  1.0000
  C   C24       1.0  0.44056  0.04477  0.47844  1.0000
  H   H26       1.0  0.36412  0.29473  0.15298  1.0000
  C   C25       1.0  0.31462  0.14321  0.34153  1.0000
  C   C26       1.0  0.45702  0.19861  0.36850  1.0000
  H   H27       1.0  0.44152  0.18621  0.15375  1.0000
  C   C27       1.0  0.30957  0.11454  0.37817  1.0000
  H   H28       1.0  0.29694  0.09955  0.43476  1.0000
  H   H29       1.0  0.45112  0.13436  0.07522  1.0000
  C   C28       1.0  0.30618  0.12279  0.34955  1.0000
  H   H30       1.0  0.33873  0.24374  0.11724  1.0000
  C   C29       1.0  0.32883  0.25209  0.16215  1.0000
  C   C30       1.0  0.48742  0.11789  0.02324  1.0000
  H   H31       1.0  0.31639  0.29742  0.36135  1.0000
  H   H32       1.0  0.48553  0.10016  0.02648  1.0000
  H   H33       1.0  0.46993  0.13659  0.10604  1.0000
  H   H34       1.0  0.30323  0.28588  0.14080  1.0000
  H   H35       1.0  0.47495  0.15033  0.07189  1.0000
  C   C31       1.0  0.43959  0.17879  0.07251  1.0000
  N   N1        1.0  0.44882  0.16606  0.09819  1.0000
  H   H36       1.0  0.28116  0.31655  0.37259  1.0000
  C   C32       1.0  0.27717  0.32936  0.26010  1.0000
  C   C33       1.0  0.46499  0.01544  0.49913  1.0000
  H   H37       1.0  0.42823  0.17764  0.33249  1.0000
  H   H38       1.0  0.31308  0.28876  0.19464  1.0000
  C   C34       1.0  0.47052  0.20476  0.15851  1.0000
  C   C35       1.0  0.35881  0.27714  0.15373  1.0000
  H   H39       1.0  0.34117  0.28113  0.20679  1.0000
  H   H40       1.0  0.43452  0.17663  0.43066  1.0000
  H   H41       1.0  0.36933  0.26825  0.17074  1.0000
  H   H42       1.0  0.35776  0.01953  0.03438  1.0000
  C   C36       1.0  0.45973  0.03817  0.49432  1.0000
  C   C37       1.0  0.32630  0.15561  0.36214  1.0000
  C   C38       1.0  0.47850  0.14355  0.49455  1.0000
  C   C39       1.0  0.32138  0.28732  0.13694  1.0000
  H   H43       1.0  0.43647  0.23716  0.35147  1.0000
  H   H44       1.0  0.31727  0.25186  0.20788  1.0000
  H   H45       1.0  0.49247  0.20639  0.36675  1.0000
  C   C40       1.0  0.33175  0.23780  0.13737  1.0000
  C   C41       1.0  0.33093  0.28846  0.18829  1.0000
  H   H46       1.0  0.49407  0.23867  0.20728  1.0000
  N   N2        1.0  0.33482  0.27584  0.16053  1.0000
  C   C42       1.0  0.36526  0.01845  0.47788  1.0000
  H   H47       1.0  0.48289  0.20226  0.31838  1.0000
  H   H48       1.0  0.32477  0.30547  0.13583  1.0000
  C   C43       1.0  0.49306  0.24592  0.22900  1.0000
  C   C44       1.0  0.38254  0.04076  0.01679  1.0000
  H   H49       1.0  0.32106  0.08300  0.42223  1.0000
  C   C45       1.0  0.47921  0.20002  0.37965  1.0000
  C   C46       1.0  0.31456  0.21994  0.18843  1.0000
  N   N3        1.0  0.45035  0.20504  0.33804  1.0000
  C   C47       1.0  0.46858  0.21448  0.32088  1.0000
  C   C48       1.0  0.44274  0.18506  0.32197  1.0000
  C   C49       1.0  0.43177  0.22217  0.33858  1.0000
  C   C50       1.0  0.47754  0.02272  0.01460  1.0000
  H   H50       1.0  0.33910  0.15769  0.40580  1.0000
  H   H51       1.0  0.32495  0.28022  0.11483  1.0000
  H   H52       1.0  0.33317  0.17136  0.35576  1.0000
  C   C51       1.0  0.45702  0.18988  0.14341  1.0000
  H   H53       1.0  0.30291  0.09846  0.38274  1.0000
  H   H54       1.0  0.04951  0.32688  0.07886  1.0000
  H   H55       1.0  0.48895  0.27337  0.30595  1.0000
  C   C52       1.0  0.42985  0.15772  0.11500  1.0000
  C   C53       1.0  0.31775  0.20641  0.16376  1.0000
  H   H56       1.0  0.42702  0.22801  0.31603  1.0000
  H   H57       1.0  0.41946  0.14639  0.10149  1.0000
  C   C54       1.0  0.42659  0.02871  0.46725  1.0000
  H   H58       1.0  0.32241  0.12821  0.47496  1.0000
  H   H59       1.0  0.37492  0.05602  0.02553  1.0000
  H   H60       1.0  0.43645  0.06240  0.47497  1.0000
  H   H61       1.0  0.36316  0.26931  0.13230  1.0000
  C   C55       1.0  0.49005  0.26554  0.28452  1.0000
  H   H62       1.0  0.35683  0.10078  0.41543  1.0000
  H   H63       1.0  0.29719  0.11316  0.33335  1.0000
  H   H64       1.0  0.42398  0.18847  0.38095  1.0000
  C   C56       1.0  0.46183  0.14607  0.08750  1.0000
  H   H65       1.0  0.31232  0.14940  0.31923  1.0000
  Fe  Fe7       1.0  0.42980  0.11352  0.49574  1.0000
  H   H66       1.0  0.46515  0.21182  0.17939  1.0000
  H   H67       1.0  0.45620  0.17174  0.32105  1.0000
  H   H68       1.0  0.43026  0.19429  0.07962  1.0000
  H   H69       1.0  0.31941  0.09132  0.45953  1.0000
  Fe  Fe8       1.0  0.38384  0.09497  0.49743  1.0000
  H   H70       1.0  0.35494  0.02152  0.45846  1.0000
  H   H71       1.0  0.46285  0.21912  0.29816  1.0000
  C   C57       1.0  0.48497  0.19303  0.40827  1.0000
  C   C58       1.0  0.32621  0.21535  0.13823  1.0000
  H   H72       1.0  0.43722  0.18922  0.29903  1.0000
  C   C59       1.0  0.37285  0.03671  0.49430  1.0000
  H   H73       1.0  0.32909  0.20464  0.11924  1.0000
  N   N4        1.0  0.32671  0.11804  0.42963  1.0000
  C   C60       1.0  0.31537  0.09713  0.43663  1.0000
  C   C61       1.0  0.35100  0.11312  0.43229  1.0000
  C   C62       1.0  0.32022  0.13499  0.45222  1.0000
  C   C63       1.0  0.32152  0.12677  0.39971  1.0000
  C   C64       1.0  0.32964  0.14760  0.39080  1.0000
  H   H74       1.0  0.41636  0.21578  0.34802  1.0000
  H   H75       1.0  0.47948  0.05819  0.02118  1.0000
  S   S14       1.0  0.46468  0.10063  0.48831  1.0000
  H   H76       1.0  0.41145  0.03401  0.45538  1.0000
  C   C65       1.0  0.32277  0.32436  0.24761  1.0000
  H   H77       1.0  0.31398  0.18885  0.16452  1.0000
  H   H78       1.0  0.07824  0.32278  0.08850  1.0000
  C   C66       1.0  0.49046  0.21113  0.14649  1.0000
  H   H79       1.0  0.48964  0.17690  0.50287  1.0000
  C   C67       1.0  0.49434  0.15925  0.50216  1.0000
  H   H80       1.0  0.47052  0.05084  0.50295  1.0000
  H   H81       1.0  0.48905  0.18254  0.08235  1.0000
  C   C68       1.0  0.31212  0.31350  0.35130  1.0000
  C   C69       1.0  0.46894  0.18459  0.42654  1.0000
  C   C70       1.0  0.43169  0.00593  0.47181  1.0000
  C   C71       1.0  0.49219  0.16375  0.01475  1.0000
  C   C72       1.0  0.46989  0.13104  0.01084  1.0000
  H   H82       1.0  0.49389  0.18156  0.01214  1.0000
  C   C73       1.0  0.29182  0.32473  0.35749  1.0000
  H   H83       1.0  0.47354  0.17909  0.44860  1.0000
  C   C74       1.0  0.47218  0.15399  0.00690  1.0000
  H   H84       1.0  0.24589  0.33020  0.36763  1.0000
  C   C75       1.0  0.48880  0.04250  0.01773  1.0000
  H   H85       1.0  0.34221  0.31351  0.32626  1.0000
  C   C76       1.0  0.32679  0.32257  0.33164  1.0000
  C   C77       1.0  0.48937  0.00237  0.01006  1.0000
  H   H86       1.0  0.49638  0.13918  0.14965  1.0000
  C   C78       1.0  0.49701  0.20269  0.11925  1.0000
  C   C79       1.0  0.38270  0.99994  0.01101  1.0000
  H   H87       1.0  0.24080  0.31642  0.66753  1.0000
  H   H88       1.0  0.41506  0.15080  0.90277  1.0000
  C   C80       1.0  0.45767  0.11577  0.61182  1.0000
  Fe  Fe9       1.0  0.37646  0.14056  0.96499  1.0000
  H   H89       1.0  0.47015  0.16642  0.92937  1.0000
  S   S15       1.0  0.36061  0.14326  0.91924  1.0000
  Fe  Fe10      1.0  0.39801  0.13100  0.54263  1.0000
  S   S16       1.0  0.40507  0.14032  0.59079  1.0000
  C   C81       1.0  0.34787  0.03529  0.95166  1.0000
  H   H90       1.0  0.37187  0.07262  0.96536  1.0000
  H   H91       1.0  0.34280  0.00451  0.97484  1.0000
  S   S17       1.0  0.41100  0.12530  0.96309  1.0000
  Fe  Fe11      1.0  0.41256  0.24733  0.74346  1.0000
  S   S18       1.0  0.39803  0.21411  0.75289  1.0000
  S   S19       1.0  0.44872  0.24618  0.72883  1.0000
  Fe  Fe12      1.0  0.36609  0.27308  0.74739  1.0000
  S   S20       1.0  0.34894  0.24124  0.75676  1.0000
  S   S21       1.0  0.35014  0.30895  0.74686  1.0000
  Fe  Fe13      1.0  0.37806  0.23270  0.78756  1.0000
  S   S22       1.0  0.37719  0.22737  0.83739  1.0000
  Fe  Fe14      1.0  0.37065  0.22558  0.72113  1.0000
  S   S23       1.0  0.35629  0.20719  0.68143  1.0000
  S   S24       1.0  0.39441  0.26541  0.77968  1.0000
  S   S25       1.0  0.38606  0.25798  0.71009  1.0000
  C   C82       1.0  0.32258  0.32173  0.74735  1.0000
  H   H92       1.0  0.32894  0.28617  0.79579  1.0000
  H   H93       1.0  0.42255  0.18113  0.93825  1.0000
  C   C83       1.0  0.30336  0.30930  0.74881  1.0000
  H   H94       1.0  0.49480  0.23842  0.71576  1.0000
  C   C84       1.0  0.43188  0.18969  0.92082  1.0000
  H   H95       1.0  0.41979  0.20166  0.90992  1.0000
  C   C85       1.0  0.47316  0.25001  0.75048  1.0000
  C   C86       1.0  0.47242  0.25842  0.77923  1.0000
  C   C87       1.0  0.30636  0.30182  0.87467  1.0000
  H   H96       1.0  0.45649  0.26262  0.78900  1.0000
  C   C88       1.0  0.49401  0.24487  0.73798  1.0000
  C   C89       1.0  0.36534  0.16660  0.89645  1.0000
  C   C90       1.0  0.37212  0.18684  0.90838  1.0000
  C   C91       1.0  0.37537  0.20524  0.88988  1.0000
  C   C92       1.0  0.37242  0.20353  0.85921  1.0000
  C   C93       1.0  0.36592  0.18321  0.84718  1.0000
  C   C94       1.0  0.36218  0.16490  0.86578  1.0000
  H   H97       1.0  0.37439  0.18846  0.93193  1.0000
  H   H98       1.0  0.38019  0.22093  0.89943  1.0000
  H   H99       1.0  0.36349  0.18168  0.82362  1.0000
  H   H100      1.0  0.35685  0.14936  0.85633  1.0000
  C   C95       1.0  0.37040  0.18894  0.65632  1.0000
  C   C96       1.0  0.36146  0.18632  0.62774  1.0000
  C   C97       1.0  0.37188  0.17170  0.60727  1.0000
  C   C98       1.0  0.39122  0.15923  0.61535  1.0000
  C   C99       1.0  0.40012  0.16176  0.64398  1.0000
  C   C100      1.0  0.38984  0.17658  0.66433  1.0000
  H   H101      1.0  0.34631  0.19565  0.62141  1.0000
  H   H102      1.0  0.36477  0.16988  0.58541  1.0000
  H   H103      1.0  0.41494  0.15204  0.65059  1.0000
  H   H104      1.0  0.39663  0.17808  0.68641  1.0000
  H   H105      1.0  0.46518  0.10377  0.62821  1.0000
  C   C101      1.0  0.30715  0.32049  0.82753  1.0000
  H   H106      1.0  0.18438  0.31095  0.59947  1.0000
  H   H107      1.0  0.41147  0.17105  0.87439  1.0000
  N   N5        1.0  0.33896  0.29338  0.84058  1.0000
  C   C102      1.0  0.48396  0.10470  0.57507  1.0000
  C   C103      1.0  0.47713  0.18231  0.87181  1.0000
  H   H108      1.0  0.30485  0.29122  0.74837  1.0000
  H   H109      1.0  0.49170  0.26892  0.81701  1.0000
  C   C104      1.0  0.31771  0.30541  0.84797  1.0000
  C   C105      1.0  0.35560  0.30939  0.83084  1.0000
  N   N6        1.0  0.44212  0.17342  0.89984  1.0000
  N   N7        1.0  0.35506  0.07021  0.92314  1.0000
  C   C106      1.0  0.35872  0.07867  0.89296  1.0000
  C   C107      1.0  0.33468  0.08206  0.93437  1.0000
  C   C108      1.0  0.37434  0.07640  0.94173  1.0000
  C   C109      1.0  0.35279  0.04566  0.92459  1.0000
  C   C110      1.0  0.35625  0.03130  0.89993  1.0000
  H   H110      1.0  0.48470  0.21870  0.92062  1.0000
  C   C111      1.0  0.42425  0.16029  0.88610  1.0000
  C   C112      1.0  0.49278  0.14048  0.63799  1.0000
  H   H111      1.0  0.46177  0.19468  0.55257  1.0000
  H   H112      1.0  0.34478  0.07450  0.87773  1.0000
  H   H113      1.0  0.35973  0.09727  0.89267  1.0000
  H   H114      1.0  0.37475  0.07190  0.88398  1.0000
  H   H115      1.0  0.31955  0.07688  0.92209  1.0000
  H   H116      1.0  0.33558  0.10060  0.93225  1.0000
  H   H117      1.0  0.33213  0.07893  0.95813  1.0000
  C   C113      1.0  0.45248  0.21213  0.83543  1.0000
  C   C114      1.0  0.28213  0.32029  0.75137  1.0000
  H   H118      1.0  0.42712  0.02197  0.97746  1.0000
  H   H119      1.0  0.45465  0.12329  0.00429  1.0000
  C   C115      1.0  0.46322  0.13997  0.57098  1.0000
  H   H120      1.0  0.42416  0.20432  0.86016  1.0000
  H   H121      1.0  0.43537  0.19112  0.66477  1.0000
  C   C116      1.0  0.45387  0.18552  0.87671  1.0000
  H   H122      1.0  0.35811  0.32264  0.84764  1.0000
  S   S26       1.0  0.36593  0.11666  0.00016  1.0000
  C   C117      1.0  0.41389  0.22329  0.63101  1.0000
  H   H123      1.0  0.36563  0.27238  0.85956  1.0000
  H   H124      1.0  0.32190  0.26548  0.82220  1.0000
  H   H125      1.0  0.42380  0.21424  0.68576  1.0000
  C   C118      1.0  0.43737  0.20902  0.67043  1.0000
  N   N8        1.0  0.43692  0.22312  0.64358  1.0000
  H   H126      1.0  0.33880  0.26624  0.87194  1.0000
  H   H127      1.0  0.37206  0.30084  0.82648  1.0000
  C   C119      1.0  0.44191  0.20093  0.85791  1.0000
  H   H128      1.0  0.35075  0.31778  0.80976  1.0000
  H   H129      1.0  0.43117  0.14810  0.86977  1.0000
  C   C120      1.0  0.34921  0.28036  0.86553  1.0000
  H   H130      1.0  0.31281  0.29035  0.89134  1.0000
  H   H131      1.0  0.45010  0.13163  0.55784  1.0000
  C   C121      1.0  0.45686  0.15760  0.91719  1.0000
  C   C122      1.0  0.44911  0.20749  0.59377  1.0000
  H   H132      1.0  0.45312  0.21027  0.68343  1.0000
  H   H133      1.0  0.45486  0.15420  0.58281  1.0000
  H   H134      1.0  0.35016  0.26749  0.81075  1.0000
  H   H135      1.0  0.35217  0.29123  0.88497  1.0000
  S   S27       1.0  0.38536  0.16752  0.99728  1.0000
  H   H136      1.0  0.36032  0.03751  0.87851  1.0000
  C   C123      1.0  0.33477  0.27748  0.81629  1.0000
  Fe  Fe15      1.0  0.41915  0.15030  0.99751  1.0000
  H   H137      1.0  0.46464  0.14434  0.90305  1.0000
  H   H138      1.0  0.47059  0.09537  0.56372  1.0000
  H   H139      1.0  0.42857  0.25360  0.66724  1.0000
  H   H140      1.0  0.47921  0.13610  0.65180  1.0000
  H   H141      1.0  0.26752  0.31041  0.75301  1.0000
  H   H142      1.0  0.45761  0.24760  0.66457  1.0000
  H   H143      1.0  0.37733  0.09459  0.94028  1.0000
  H   H144      1.0  0.48208  0.21828  0.65382  1.0000
  S   S28       1.0  0.41150  0.09634  0.53093  1.0000
  H   H145      1.0  0.41191  0.23464  0.61172  1.0000
  C   C124      1.0  0.46594  0.19982  0.57484  1.0000
  C   C125      1.0  0.28593  0.31298  0.88045  1.0000
  C   C126      1.0  0.44154  0.24643  0.65224  1.0000
  H   H146      1.0  0.39209  0.04631  0.53228  1.0000
  C   C127      1.0  0.47696  0.21316  0.63197  1.0000
  H   H147      1.0  0.44213  0.25752  0.63268  1.0000
  H   H148      1.0  0.44477  0.19958  0.93218  1.0000
  H   H149      1.0  0.20677  0.31281  0.64476  1.0000
  H   H150      1.0  0.38991  0.06703  0.93519  1.0000
  C   C128      1.0  0.45416  0.21454  0.62299  1.0000
  H   H151      1.0  0.44864  0.12969  0.62352  1.0000
  H   H152      1.0  0.44748  0.14885  0.93434  1.0000
  S   S29       1.0  0.44949  0.17064  0.99413  1.0000
  C   C129      1.0  0.38614  0.03247  0.51941  1.0000
  C   C130      1.0  0.49361  0.20535  0.61290  1.0000
  H   H153      1.0  0.44290  0.22357  0.82108  1.0000
  H   H154      1.0  0.44447  0.10692  0.59941  1.0000
  H   H155      1.0  0.43229  0.20775  0.58492  1.0000
  H   H156      1.0  0.40915  0.20623  0.62423  1.0000
  H   H157      1.0  0.27750  0.31002  0.90089  1.0000
  C   C131      1.0  0.40222  0.04158  0.00088  1.0000
  H   H158      1.0  0.40126  0.22918  0.64734  1.0000
  N   N9        1.0  0.47474  0.12421  0.59184  1.0000
  H   H159      1.0  0.34573  0.04496  0.97160  1.0000
  H   H160      1.0  0.48771  0.17107  0.88498  1.0000
  S   S30       1.0  0.41545  0.06710  0.99435  1.0000
  C   C132      1.0  0.49241  0.26200  0.79503  1.0000
  H   H161      1.0  0.49366  0.09286  0.58971  1.0000
  Fe  Fe16      1.0  0.40137  0.10290  0.99999  1.0000
  C   C133      1.0  0.41199  0.02152  0.98997  1.0000
  C   C134      1.0  0.49297  0.13572  0.60730  1.0000
  H   H162      1.0  0.47486  0.14699  0.55510  1.0000
  C   C135      1.0  0.48754  0.19365  0.84928  1.0000
  C   C136      1.0  0.28672  0.33148  0.83344  1.0000
  C   C137      1.0  0.48813  0.19872  0.58438  1.0000
  H   H163      1.0  0.40093  0.00728  0.54839  1.0000
  S   S31       1.0  0.36825  0.12836  0.51165  1.0000
  C   C138      1.0  0.47524  0.20845  0.83107  1.0000
  C   C139      1.0  0.27614  0.32777  0.85988  1.0000
  H   H164      1.0  0.48331  0.21697  0.81336  1.0000
  C   C140      1.0  0.34634  0.01210  0.95385  1.0000
  C   C141      1.0  0.35491  0.00806  0.90250  1.0000
  S   S32       1.0  0.41830  0.14813  0.50898  1.0000
  C   C142      1.0  0.39114  0.01028  0.52850  1.0000
  H   H165      1.0  0.31446  0.32371  0.80655  1.0000
  H   H166      1.0  0.47985  0.01123  0.51203  1.0000
  C   C143      1.0  0.20410  0.32795  0.63203  1.0000
  H   H167      1.0  0.49519  0.10965  0.55734  1.0000
  C   C144      1.0  0.19128  0.32668  0.60612  1.0000
  H   H168      1.0  0.20576  0.32512  0.69250  1.0000
  C   C145      1.0  0.40229  0.00082  0.99492  1.0000
  Fe  Fe17      1.0  0.11806  0.40536  0.04428  1.0000
  H   H169      1.0  0.19364  0.56915  0.09086  1.0000
  S   S33       1.0  0.14053  0.38562  0.07677  1.0000
  C   C146      1.0  0.20202  0.47274  0.17581  1.0000
  S   S34       1.0  0.07398  0.44040  0.47884  1.0000
  C   C147      1.0  0.16881  0.45174  0.13455  1.0000
  C   C148      1.0  0.17171  0.49400  0.19721  1.0000
  H   H170      1.0  0.11262  0.42699  0.28847  1.0000
  Fe  Fe18      1.0  0.10775  0.42291  0.47572  1.0000
  S   S35       1.0  0.12297  0.43129  0.43147  1.0000
  S   S36       1.0  0.08417  0.42132  0.05202  1.0000
  H   H171      1.0  0.21161  0.47465  0.19689  1.0000
  S   S37       1.0  0.02819  0.40039  0.48075  1.0000
  C   C149      1.0  0.02465  0.62962  0.48100  1.0000
  C   C150      1.0  0.15372  0.56753  0.06595  1.0000
  Fe  Fe19      1.0  0.12389  0.62725  0.45595  1.0000
  C   C151      1.0  0.19330  0.57154  0.06657  1.0000
  S   S38       1.0  0.12574  0.63711  0.40760  1.0000
  S   S39       1.0  0.15319  0.61448  0.48305  1.0000
  H   H172      1.0  0.00016  0.64621  0.45229  1.0000
  C   C152      1.0  0.17403  0.56643  0.02066  1.0000
  S   S40       1.0  0.16837  0.63098  0.04846  1.0000
  S   S41       1.0  0.10345  0.59733  0.46449  1.0000
  H   H173      1.0  0.13888  0.56053  0.05490  1.0000
  Fe  Fe20      1.0  0.21788  0.43913  0.26474  1.0000
  S   S42       1.0  0.18592  0.42385  0.27746  1.0000
  S   S43       1.0  0.20962  0.47681  0.26546  1.0000
  Fe  Fe21      1.0  0.24010  0.39196  0.25533  1.0000
  S   S44       1.0  0.20877  0.37439  0.26639  1.0000
  S   S45       1.0  0.27428  0.37487  0.24450  1.0000
  Fe  Fe22      1.0  0.19068  0.40100  0.23876  1.0000
  S   S46       1.0  0.15726  0.39989  0.21419  1.0000
  Fe  Fe23      1.0  0.20611  0.39901  0.30398  1.0000
  S   S47       1.0  0.19793  0.38639  0.34977  1.0000
  S   S48       1.0  0.22192  0.41715  0.22469  1.0000
  S   S49       1.0  0.23817  0.41550  0.29449  1.0000
  Fe  Fe24      1.0  0.21876  0.63370  0.28290  1.0000
  S   S50       1.0  0.25471  0.62728  0.27082  1.0000
  S   S51       1.0  0.21463  0.63694  0.33251  1.0000
  Fe  Fe25      1.0  0.20378  0.63409  0.21772  1.0000
  S   S52       1.0  0.23862  0.62760  0.20191  1.0000
  S   S53       1.0  0.17303  0.63964  0.18812  1.0000
  Fe  Fe26      1.0  0.24106  0.60221  0.23878  1.0000
  S   S54       1.0  0.25704  0.56715  0.23391  1.0000
  Fe  Fe27      1.0  0.24888  0.65345  0.23557  1.0000
  S   S55       1.0  0.20559  0.60735  0.25269  1.0000
  C   C153      1.0  0.24368  0.54206  0.24244  1.0000
  C   C154      1.0  0.25564  0.52138  0.24040  1.0000
  C   C155      1.0  0.24558  0.50114  0.24722  1.0000
  C   C156      1.0  0.22344  0.50146  0.25628  1.0000
  C   C157      1.0  0.21145  0.52211  0.25812  1.0000
  C   C158      1.0  0.22145  0.54226  0.25115  1.0000
  H   H174      1.0  0.27284  0.52103  0.23363  1.0000
  H   H175      1.0  0.25503  0.48540  0.24570  1.0000
  H   H176      1.0  0.19427  0.52254  0.26493  1.0000
  H   H177      1.0  0.21193  0.55793  0.25230  1.0000
  H   H178      1.0  0.12321  0.36922  0.39666  1.0000
  Fe  Fe28      1.0  0.09697  0.45032  0.02726  1.0000
  H   H179      1.0  0.31959  0.35916  0.23463  1.0000
  C   C159      1.0  0.18962  0.63725  0.35277  1.0000
  C   C160      1.0  0.16860  0.63772  0.33902  1.0000
  C   C161      1.0  0.14921  0.63775  0.35613  1.0000
  C   C162      1.0  0.15063  0.63693  0.38706  1.0000
  C   C163      1.0  0.17169  0.63622  0.40074  1.0000
  C   C164      1.0  0.19105  0.63659  0.38368  1.0000
  C   C165      1.0  0.31091  0.34507  0.24296  1.0000
  H   H180      1.0  0.03271  0.42246  0.11960  1.0000
  C   C166      1.0  0.16871  0.63126  0.08748  1.0000
  C   C167      1.0  0.18928  0.62805  0.10245  1.0000
  C   C168      1.0  0.19067  0.62926  0.13334  1.0000
  C   C169      1.0  0.17163  0.63469  0.14959  1.0000
  C   C170      1.0  0.15095  0.63731  0.13467  1.0000
  H   H181      1.0  0.20635  0.53297  0.08480  1.0000
  C   C171      1.0  0.06131  0.52762  0.46703  1.0000
  C   C172      1.0  0.14459  0.41881  0.41000  1.0000
  C   C173      1.0  0.14934  0.42861  0.38282  1.0000
  C   C174      1.0  0.16587  0.41911  0.36446  1.0000
  C   C175      1.0  0.17772  0.39950  0.37293  1.0000
  C   C176      1.0  0.17313  0.38974  0.40020  1.0000
  C   C177      1.0  0.15672  0.39939  0.41874  1.0000
  H   H182      1.0  0.14013  0.44369  0.37596  1.0000
  H   H183      1.0  0.16950  0.42703  0.34385  1.0000
  H   H184      1.0  0.18224  0.37460  0.40701  1.0000
  H   H185      1.0  0.15327  0.39170  0.43960  1.0000
  C   C178      1.0  0.14567  0.39189  0.11439  1.0000
  C   C179      1.0  0.12977  0.40321  0.13168  1.0000
  C   C180      1.0  0.13372  0.40590  0.16214  1.0000
  C   C181      1.0  0.15382  0.39787  0.17543  1.0000
  C   C182      1.0  0.17010  0.38744  0.15791  1.0000
  C   C183      1.0  0.16587  0.38417  0.12765  1.0000
  H   H186      1.0  0.11421  0.40937  0.12176  1.0000
  H   H187      1.0  0.12106  0.41407  0.17549  1.0000
  H   H188      1.0  0.18558  0.38105  0.16785  1.0000
  H   H189      1.0  0.17824  0.37533  0.11446  1.0000
  C   C184      1.0  0.01541  0.51666  0.46252  1.0000
  H   H190      1.0  0.13654  0.50479  0.47751  1.0000
  H   H191      1.0  0.07438  0.37340  0.04000  1.0000
  C   C185      1.0  0.03111  0.40693  0.10757  1.0000
  Fe  Fe29      1.0  0.13170  0.58620  0.49419  1.0000
  H   H192      1.0  0.20649  0.48656  0.16097  1.0000
  H   H193      1.0  0.09201  0.53212  0.05108  1.0000
  H   H194      1.0  0.00689  0.53993  0.01498  1.0000
  H   H195      1.0  0.10315  0.35247  0.09078  1.0000
  H   H196      1.0  0.20727  0.57608  0.30134  1.0000
  C   C186      1.0  0.08874  0.36421  0.09554  1.0000
  N   N10       1.0  0.04439  0.54557  0.47423  1.0000
  C   C187      1.0  0.04987  0.39273  0.10307  1.0000
  H   H197      1.0  0.13299  0.63836  0.34536  1.0000
  H   H198      1.0  0.14261  0.55003  0.42713  1.0000
  H   H199      1.0  0.17546  0.59347  0.36951  1.0000
  H   H200      1.0  0.06015  0.51282  0.48168  1.0000
  C   C188      1.0  0.08531  0.40382  0.36179  1.0000
  S   S56       1.0  0.21354  0.66107  0.24954  1.0000
  C   C189      1.0  0.14943  0.63532  0.10377  1.0000
  C   C190      1.0  0.25072  0.34759  0.37251  1.0000
  C   C191      1.0  0.10956  0.38364  0.27585  1.0000
  H   H201      1.0  0.15441  0.45244  0.20248  1.0000
  H   H202      1.0  0.03807  0.55696  0.03715  1.0000
  S   S57       1.0  0.09188  0.48453  0.04674  1.0000
  H   H203      1.0  0.19392  0.52238  0.37279  1.0000
  H   H204      1.0  0.14519  0.36244  0.30008  1.0000
  C   C192      1.0  0.09460  0.40398  0.33378  1.0000
  C   C193      1.0  0.28558  0.34549  0.34381  1.0000
  H   H205      1.0  0.17376  0.58498  0.01817  1.0000
  C   C194      1.0  0.15689  0.44905  0.10815  1.0000
  H   H206      1.0  0.08880  0.39177  0.40628  1.0000
  H   H207      1.0  0.20723  0.63622  0.39457  1.0000
  H   H208      1.0  0.02785  0.50335  0.45934  1.0000
  C   C195      1.0  0.14975  0.48781  0.14167  1.0000
  H   H209      1.0  0.18097  0.56428  0.30931  1.0000
  H   H210      1.0  0.18105  0.49484  0.21857  1.0000
  H   H211      1.0  0.14759  0.58773  0.40667  1.0000
  C   C196      1.0  0.04855  0.56509  0.45524  1.0000
  C   C197      1.0  0.16546  0.47112  0.15233  1.0000
  C   C198      1.0  0.14124  0.46544  0.09876  1.0000
  H   H212      1.0  0.16721  0.63826  0.31527  1.0000
  C   C199      1.0  0.17269  0.45400  0.19998  1.0000
  H   H213      1.0  0.08597  0.41400  0.31709  1.0000
  H   H214      1.0  0.15252  0.48766  0.02925  1.0000
  H   H215      1.0  0.01885  0.35020  0.48025  1.0000
  H   H216      1.0  0.15949  0.43397  0.09508  1.0000
  C   C200      1.0  0.00104  0.34782  0.47939  1.0000
  S   S58       1.0  0.11164  0.60457  0.02089  1.0000
  C   C201      1.0  0.12522  0.53249  0.50453  1.0000
  N   N11       1.0  0.26359  0.35707  0.34818  1.0000
  H   H217      1.0  0.27301  0.39045  0.33613  1.0000
  S   S59       1.0  0.13145  0.43546  0.02283  1.0000
  H   H218      1.0  0.33251  0.34973  0.30233  1.0000
  C   C202      1.0  0.00274  0.63506  0.47087  1.0000
  H   H219      1.0  0.19151  0.58993  0.06306  1.0000
  H   H220      1.0  0.06543  0.39816  0.11226  1.0000
  C   C203      1.0  0.02107  0.53885  0.47004  1.0000
  H   H221      1.0  0.07864  0.53336  0.47021  1.0000
  H   H222      1.0  0.01193  0.62328  0.04147  1.0000
  N   N12       1.0  0.17481  0.55965  0.05211  1.0000
  S   S60       1.0  0.05467  0.63128  0.01772  1.0000
  H   H223      1.0  0.06444  0.56655  0.02608  1.0000
  H   H224      1.0  0.10869  0.47922  0.49592  1.0000
  H   H225      1.0  0.03874  0.63650  0.47020  1.0000
  H   H226      1.0  0.15912  0.38726  0.31180  1.0000
  Fe  Fe30      1.0  0.06213  0.40932  0.49977  1.0000
  C   C204      1.0  0.16426  0.49781  0.04117  1.0000
  H   H227      1.0  0.23472  0.35735  0.37603  1.0000
  C   C205      1.0  0.25016  0.35519  0.32075  1.0000
  H   H228      1.0  0.29689  0.36918  0.31121  1.0000
  H   H229      1.0  0.17943  0.43780  0.19118  1.0000
  H   H230      1.0  0.15371  0.49503  0.20270  1.0000
  H   H231      1.0  0.17597  0.50917  0.18471  1.0000
  H   H232      1.0  0.05758  0.34978  0.03596  1.0000
  C   C206      1.0  0.00285  0.40035  0.50021  1.0000
  N   N13       1.0  0.17765  0.47313  0.18080  1.0000
  C   C207      1.0  0.12488  0.51052  0.49409  1.0000
  N   N14       1.0  0.12483  0.39310  0.29816  1.0000
  H   H233      1.0  0.04375  0.56182  0.43191  1.0000
  H   H234      1.0  0.18034  0.43824  0.14121  1.0000
  H   H235      1.0  0.14609  0.50317  0.15344  1.0000
  H   H236      1.0  0.04065  0.58563  0.02675  1.0000
  H   H237      1.0  0.20429  0.62486  0.09006  1.0000
  H   H238      1.0  0.18023  0.45566  0.22240  1.0000
  H   H239      1.0  0.08716  0.36496  0.11987  1.0000
  H   H240      1.0  0.20827  0.45671  0.16591  1.0000
  C   C208      1.0  0.12842  0.41678  0.29053  1.0000
  H   H241      1.0  0.12562  0.49750  0.10760  1.0000
  C   C209      1.0  0.09914  0.52721  0.03022  1.0000
  H   H242      1.0  0.15882  0.56099  0.00882  1.0000
  C   C210      1.0  0.02694  0.36770  0.07499  1.0000
  H   H243      1.0  0.09331  0.39319  0.27439  1.0000
  H   H244      1.0  0.15343  0.56267  0.08956  1.0000
  S   S61       1.0  0.14454  0.55061  0.49072  1.0000
  C   C211      1.0  0.28808  0.34787  0.24951  1.0000
  C   C212      1.0  0.19428  0.52393  0.07214  1.0000
  H   H245      1.0  0.13897  0.42482  0.30758  1.0000
  H   H246      1.0  0.20973  0.56612  0.05743  1.0000
  C   C213      1.0  0.16221  0.52113  0.03957  1.0000
  C   C214      1.0  0.04832  0.37258  0.08655  1.0000
  H   H247      1.0  0.14031  0.36942  0.34892  1.0000
  H   H248      1.0  0.24994  0.38989  0.35977  1.0000
  H   H249      1.0  0.27757  0.38329  0.37423  1.0000
  H   H250      1.0  0.10608  0.36597  0.28114  1.0000
  C   C215      1.0  0.17731  0.53496  0.05460  1.0000
  H   H251      1.0  0.02599  0.43215  0.02909  1.0000
  H   H252      1.0  0.21417  0.66045  0.16559  1.0000
  C   C216      1.0  0.07184  0.35639  0.04873  1.0000
  C   C217      1.0  0.26625  0.38115  0.35488  1.0000
  C   C218      1.0  0.01516  0.40140  0.01008  1.0000
  H   H253      1.0  0.20658  0.62641  0.14447  1.0000
  C   C219      1.0  0.10633  0.54348  0.01088  1.0000
  C   C220      1.0  0.14667  0.38064  0.29598  1.0000
  C   C221      1.0  0.11507  0.37862  0.37884  1.0000
  C   C222      1.0  0.09561  0.39128  0.38432  1.0000
  Fe  Fe31      1.0  0.13871  0.62884  0.01668  1.0000
  S   S62       1.0  0.09533  0.39066  0.49375  1.0000
  H   H254      1.0  0.10466  0.56078  0.01688  1.0000
  H   H255      1.0  0.18299  0.46941  0.05887  1.0000
  H   H256      1.0  0.02456  0.35319  0.06128  1.0000
  N   N15       1.0  0.06783  0.35729  0.08080  1.0000
  H   H257      1.0  0.15387  0.38208  0.27367  1.0000
  H   H258      1.0  0.17304  0.63571  0.42450  1.0000
  H   H259      1.0  0.16588  0.51776  0.40990  1.0000
  C   C223      1.0  0.13783  0.48484  0.11529  1.0000
  H   H260      1.0  0.00609  0.57193  0.47945  1.0000
  C   C224      1.0  0.18136  0.48752  0.05794  1.0000
  C   C225      1.0  0.32128  0.34297  0.31815  1.0000
  H   H261      1.0  0.13609  0.64136  0.14704  1.0000
  C   C226      1.0  0.12475  0.37894  0.35109  1.0000
  H   H262      1.0  0.13170  0.46314  0.07858  1.0000
  H   H263      1.0  0.13349  0.63783  0.09255  1.0000
  C   C227      1.0  0.11487  0.39188  0.32769  1.0000
  H   H264      1.0  0.11684  0.38388  0.25341  1.0000
  N   N16       1.0  0.20496  0.56269  0.34509  1.0000
  C   C228      1.0  0.22175  0.57740  0.35825  1.0000
  C   C229      1.0  0.21691  0.54193  0.33474  1.0000
  C   C230      1.0  0.19478  0.57400  0.31880  1.0000
  C   C231      1.0  0.18760  0.55863  0.36702  1.0000
  C   C232      1.0  0.18426  0.53715  0.37922  1.0000
  C   C233      1.0  0.17381  0.57668  0.37751  1.0000
  C   C234      1.0  0.16812  0.53420  0.40060  1.0000
  C   C235      1.0  0.15777  0.57355  0.39885  1.0000
  C   C236      1.0  0.15495  0.55235  0.41039  1.0000
  H   H265      1.0  0.23506  0.58108  0.34239  1.0000
  H   H266      1.0  0.21427  0.59389  0.36502  1.0000
  H   H267      1.0  0.22977  0.56965  0.37821  1.0000
  H   H268      1.0  0.22631  0.53323  0.35298  1.0000
  H   H269      1.0  0.22945  0.54555  0.31774  1.0000
  H   H270      1.0  0.20521  0.53013  0.32440  1.0000
  H   H271      1.0  0.18804  0.59118  0.32368  1.0000
  H   H272      1.0  0.05973  0.52213  0.44371  1.0000
  H   H273      1.0  0.07026  0.41379  0.36632  1.0000
  C   C237      1.0  0.04621  0.56808  0.02142  1.0000
  H   H274      1.0  0.13682  0.41822  0.26898  1.0000
  H   H275      1.0  0.06642  0.56928  0.45577  1.0000
  C   C238      1.0  0.10920  0.49599  0.50467  1.0000
  C   C239      1.0  0.01189  0.42194  0.02447  1.0000
  H   H276      1.0  0.20943  0.49242  0.08674  1.0000
  H   H277      1.0  0.03937  0.58062  0.46247  1.0000
  H   H278      1.0  0.09375  0.38078  0.08754  1.0000
  H   H279      1.0  0.25793  0.36358  0.30192  1.0000
  H   H280      1.0  0.15139  0.58612  0.06487  1.0000
  C   C240      1.0  0.19623  0.50054  0.07358  1.0000
  H   H281      1.0  0.18875  0.55937  0.00873  1.0000
  C   C241      1.0  0.00310  0.55474  0.47381  1.0000
  C   C242      1.0  0.10107  0.50461  0.02252  1.0000
  C   C243      1.0  0.00906  0.62961  0.01940  1.0000
  C   C244      1.0  0.04814  0.55202  0.50537  1.0000
  H   H282      1.0  0.99792  0.35581  0.43354  1.0000
  C   C245      1.0  0.30089  0.35414  0.32373  1.0000
  C   C246      1.0  0.01036  0.40147  0.09612  1.0000
  S   S63       1.0  0.10821  0.64730  0.49324  1.0000
  C   C247      1.0  0.00828  0.38184  0.08001  1.0000
  C   C248      1.0  0.02816  0.61595  0.50570  1.0000
  Fe  Fe32      1.0  0.08999  0.61599  0.50365  1.0000
  H   H283      1.0  0.08691  0.34579  0.04331  1.0000
  H   H284      1.0  0.26030  0.34784  0.39368  1.0000
  H   H285      1.0  0.23321  0.36303  0.32308  1.0000
  H   H286      1.0  0.14871  0.52826  0.02629  1.0000
  H   H287      1.0  0.24822  0.33737  0.31452  1.0000
  H   H288      1.0  0.05911  0.33464  0.11497  1.0000
  C   C249      1.0  0.06345  0.33443  0.09124  1.0000
  Fe  Fe33      1.0  0.07475  0.40896  0.00691  1.0000
  Fe  Fe34      1.0  0.10474  0.40490  0.53856  1.0000
  H   H289      1.0  0.09736  0.45726  0.58127  1.0000
  S   S64       1.0  0.12073  0.38552  0.57741  1.0000
  S   S65       1.0  0.12514  0.55737  0.95994  1.0000
  S   S66       1.0  0.08545  0.43939  0.98236  1.0000
  H   H290      1.0  0.07947  0.47171  0.64010  1.0000
  H   H291      1.0  0.15708  0.48495  0.80747  1.0000
  H   H292      1.0  0.03141  0.48379  0.51785  1.0000
  Fe  Fe35      1.0  0.11939  0.42165  0.97944  1.0000
  S   S67       1.0  0.14700  0.42342  0.94523  1.0000
  S   S68       1.0  0.07039  0.42066  0.54559  1.0000
  H   H293      1.0  0.16618  0.47809  0.88992  1.0000
  C   C250      1.0  0.16148  0.65818  0.86187  1.0000
  S   S69       1.0  0.11734  0.60251  0.53434  1.0000
  H   H294      1.0  0.16847  0.45735  0.81563  1.0000
  Fe  Fe36      1.0  0.12537  0.63955  0.95236  1.0000
  C   C251      1.0  0.11759  0.51457  0.97631  1.0000
  C   C252      1.0  0.19574  0.36594  0.59746  1.0000
  H   H295      1.0  0.21408  0.38390  0.62897  1.0000
  N   N17       1.0  0.26404  0.66513  0.84105  1.0000
  H   H296      1.0  0.10656  0.62794  0.75020  1.0000
  H   H297      1.0  0.25680  0.63017  0.83685  1.0000
  S   S70       1.0  0.09674  0.61636  0.95203  1.0000
  H   H298      1.0  0.16171  0.51566  0.88597  1.0000
  Fe  Fe37      1.0  0.22617  0.44243  0.76404  1.0000
  S   S71       1.0  0.19040  0.44220  0.74949  1.0000
  S   S72       1.0  0.23711  0.47568  0.78298  1.0000
  Fe  Fe38      1.0  0.23332  0.39115  0.75607  1.0000
  S   S73       1.0  0.19722  0.38826  0.74157  1.0000
  S   S74       1.0  0.25233  0.35656  0.75671  1.0000
  Fe  Fe39      1.0  0.20209  0.41863  0.71388  1.0000
  S   S75       1.0  0.19317  0.42536  0.66543  1.0000
  Fe  Fe40      1.0  0.18858  0.41204  0.77869  1.0000
  S   S76       1.0  0.15723  0.40983  0.80629  1.0000
  S   S77       1.0  0.23852  0.42075  0.72645  1.0000
  S   S78       1.0  0.22394  0.41307  0.79514  1.0000
  Fe  Fe41      1.0  0.21986  0.62535  0.78065  1.0000
  S   S79       1.0  0.25580  0.62113  0.76739  1.0000
  S   S80       1.0  0.21158  0.61789  0.82821  1.0000
  Fe  Fe42      1.0  0.20361  0.63268  0.71647  1.0000
  S   S81       1.0  0.23830  0.62963  0.69906  1.0000
  S   S82       1.0  0.17094  0.63195  0.69037  1.0000
  Fe  Fe43      1.0  0.24262  0.60019  0.73013  1.0000
  S   S83       1.0  0.25315  0.56579  0.71266  1.0000
  Fe  Fe44      1.0  0.24842  0.65107  0.73795  1.0000
  S   S84       1.0  0.20762  0.60245  0.74551  1.0000
  C   C253      1.0  0.24742  0.54105  0.73222  1.0000
  C   C254      1.0  0.24550  0.52074  0.71684  1.0000
  C   C255      1.0  0.24169  0.50068  0.73191  1.0000
  C   C256      1.0  0.24058  0.50060  0.76264  1.0000
  C   C257      1.0  0.24280  0.52086  0.77798  1.0000
  C   C258      1.0  0.24573  0.54105  0.76286  1.0000
  H   H299      1.0  0.24719  0.52044  0.69320  1.0000
  H   H300      1.0  0.24030  0.48517  0.71985  1.0000
  H   H301      1.0  0.24255  0.52090  0.80176  1.0000
  H   H302      1.0  0.24757  0.55645  0.77502  1.0000
  H   H303      1.0  0.99833  0.65344  0.94118  1.0000
  N   N18       1.0  0.13905  0.62344  0.77079  1.0000
  H   H304      1.0  0.99910  0.34115  0.52558  1.0000
  C   C259      1.0  0.19051  0.62993  0.85080  1.0000
  C   C260      1.0  0.18584  0.61912  0.87722  1.0000
  C   C261      1.0  0.16888  0.62754  0.89563  1.0000
  C   C262      1.0  0.15648  0.64705  0.88805  1.0000
  C   C263      1.0  0.32005  0.34528  0.74789  1.0000
  C   C264      1.0  0.17852  0.64974  0.84339  1.0000
  H   H305      1.0  0.19526  0.60401  0.88346  1.0000
  H   H306      1.0  0.16529  0.61874  0.91553  1.0000
  C   C265      1.0  0.16257  0.64461  0.59079  1.0000
  C   C266      1.0  0.14672  0.63299  0.60617  1.0000
  C   C267      1.0  0.14952  0.62927  0.63665  1.0000
  C   C268      1.0  0.16839  0.63671  0.65194  1.0000
  C   C269      1.0  0.18449  0.64788  0.63648  1.0000
  H   H307      1.0  0.13208  0.62729  0.59467  1.0000
  H   H308      1.0  0.13695  0.62064  0.64840  1.0000
  C   C270      1.0  0.14931  0.41808  0.90679  1.0000
  C   C271      1.0  0.17068  0.41681  0.89441  1.0000
  C   C272      1.0  0.17345  0.41368  0.86386  1.0000
  C   C273      1.0  0.15481  0.41216  0.84518  1.0000
  C   C274      1.0  0.13346  0.41324  0.85757  1.0000
  C   C275      1.0  0.13069  0.41612  0.88817  1.0000
  H   H309      1.0  0.18521  0.41820  0.90860  1.0000
  H   H310      1.0  0.18998  0.41255  0.85477  1.0000
  H   H311      1.0  0.11892  0.41197  0.84337  1.0000
  H   H312      1.0  0.11417  0.41709  0.89730  1.0000
  C   C276      1.0  0.14148  0.39605  0.60149  1.0000
  C   C277      1.0  0.15548  0.41279  0.59259  1.0000
  C   C278      1.0  0.17147  0.42109  0.61232  1.0000
  C   C279      1.0  0.17351  0.41309  0.64134  1.0000
  C   C280      1.0  0.15982  0.39607  0.65020  1.0000
  C   C281      1.0  0.14400  0.38749  0.63024  1.0000
  H   H313      1.0  0.15404  0.41930  0.57042  1.0000
  H   H314      1.0  0.18223  0.43397  0.60506  1.0000
  H   H315      1.0  0.16129  0.38962  0.67239  1.0000
  H   H316      1.0  0.13342  0.37437  0.63726  1.0000
  C   C282      1.0  0.20841  0.36747  0.62344  1.0000
  C   C283      1.0  0.24507  0.33421  0.67005  1.0000
  H   H317      1.0  0.10096  0.43930  0.65751  1.0000
  H   H318      1.0  0.99891  0.37234  0.99357  1.0000
  C   C284      1.0  0.10569  0.62942  0.84155  1.0000
  H   H319      1.0  0.21841  0.38466  0.67931  1.0000
  H   H320      1.0  0.13006  0.59063  0.75646  1.0000
  Fe  Fe45      1.0  0.13649  0.63206  0.52125  1.0000
  H   H321      1.0  0.12484  0.50959  0.95554  1.0000
  H   H322      1.0  0.29732  0.37434  0.75084  1.0000
  C   C285      1.0  0.17490  0.54498  0.86861  1.0000
  H   H323      1.0  0.17660  0.34486  0.56927  1.0000
  C   C286      1.0  0.14445  0.60174  0.75598  1.0000
  H   H324      1.0  0.01791  0.39301  0.54256  1.0000
  H   H325      1.0  0.29713  0.66480  0.88358  1.0000
  C   C287      1.0  0.00118  0.55294  0.99986  1.0000
  H   H326      1.0  0.21937  0.53453  0.64082  1.0000
  C   C288      1.0  0.18145  0.65201  0.60612  1.0000
  S   S85       1.0  0.21279  0.65607  0.75334  1.0000
  C   C289      1.0  0.00125  0.64661  0.96297  1.0000
  H   H327      1.0  0.05180  0.59469  0.97609  1.0000
  H   H328      1.0  0.31219  0.66486  0.74199  1.0000
  C   C290      1.0  0.15952  0.63629  0.77305  1.0000
  C   C291      1.0  0.16123  0.47575  0.86642  1.0000
  H   H329      1.0  0.18249  0.65868  0.82366  1.0000
  H   H330      1.0  0.20298  0.50815  0.80852  1.0000
  C   C292      1.0  0.13529  0.60151  0.84910  1.0000
  C   C293      1.0  0.21030  0.34287  0.69423  1.0000
  C   C294      1.0  0.29880  0.35626  0.75018  1.0000
  C   C295      1.0  0.09467  0.52518  0.53686  1.0000
  H   H331      1.0  0.11614  0.48875  0.57607  1.0000
  H   H332      1.0  0.17291  0.62715  0.78594  1.0000
  C   C296      1.0  0.20005  0.47181  0.85454  1.0000
  C   C297      1.0  0.23271  0.37234  0.67737  1.0000
  H   H333      1.0  0.19054  0.57233  0.84745  1.0000
  H   H334      1.0  0.10302  0.64494  0.79988  1.0000
  H   H335      1.0  0.08326  0.53079  0.55376  1.0000
  H   H336      1.0  0.15833  0.45760  0.86408  1.0000
  N   N19       1.0  0.22505  0.34962  0.67025  1.0000
  H   H337      1.0  0.28210  0.63802  0.81978  1.0000
  H   H338      1.0  0.15618  0.65268  0.78411  1.0000
  N   N20       1.0  0.21523  0.57046  0.63455  1.0000
  C   C298      1.0  0.21108  0.54956  0.65081  1.0000
  C   C299      1.0  0.23957  0.57221  0.63078  1.0000
  C   C300      1.0  0.20738  0.58950  0.65331  1.0000
  C   C301      1.0  0.20423  0.57012  0.60514  1.0000
  C   C302      1.0  0.19014  0.58809  0.59443  1.0000
  C   C303      1.0  0.20835  0.55187  0.58564  1.0000
  C   C304      1.0  0.18071  0.58766  0.56612  1.0000
  C   C305      1.0  0.19872  0.55156  0.55739  1.0000
  C   C306      1.0  0.18501  0.56948  0.54765  1.0000
  H   H339      1.0  0.21773  0.55015  0.67385  1.0000
  H   H340      1.0  0.24710  0.55753  0.61901  1.0000
  H   H341      1.0  0.24856  0.57324  0.65233  1.0000
  H   H342      1.0  0.24327  0.58747  0.61807  1.0000
  H   H343      1.0  0.18902  0.58960  0.65636  1.0000
  H   H344      1.0  0.21522  0.58870  0.67570  1.0000
  H   H345      1.0  0.21176  0.60591  0.64399  1.0000
  H   H346      1.0  0.18630  0.60285  0.60732  1.0000
  H   H347      1.0  0.21939  0.53790  0.59189  1.0000
  C   C307      1.0  0.01648  0.56638  0.98523  1.0000
  H   H348      1.0  0.26023  0.33626  0.86426  1.0000
  C   C308      1.0  0.00961  0.60724  0.51951  1.0000
  C   C309      1.0  0.11231  0.63235  0.81249  1.0000
  C   C310      1.0  0.17215  0.47549  0.81598  1.0000
  H   H349      1.0  0.15916  0.59263  0.76602  1.0000
  H   H350      1.0  0.21358  0.47569  0.83911  1.0000
  C   C311      1.0  0.14236  0.60461  0.82031  1.0000
  H   H351      1.0  0.11038  0.55668  0.53418  1.0000
  C   C312      1.0  0.05457  0.57652  0.97136  1.0000
  H   H352      1.0  0.23514  0.65902  0.86707  1.0000
  N   N21       1.0  0.17852  0.48317  0.84598  1.0000
  C   C313      1.0  0.00242  0.39563  0.53030  1.0000
  H   H353      1.0  0.01747  0.59510  0.95520  1.0000
  H   H354      1.0  0.20787  0.54845  0.80908  1.0000
  H   H355      1.0  0.20206  0.53755  0.54270  1.0000
  H   H356      1.0  0.05108  0.57346  0.94762  1.0000
  S   S86       1.0  0.05513  0.60962  0.52084  1.0000
  H   H357      1.0  0.15575  0.46146  0.64958  1.0000
  H   H358      1.0  0.14486  0.48461  0.86203  1.0000
  C   C314      1.0  0.17160  0.52194  0.86842  1.0000
  H   H359      1.0  0.16763  0.55544  0.88579  1.0000
  H   H360      1.0  0.19221  0.38073  0.58413  1.0000
  C   C315      1.0  0.10350  0.44759  0.60072  1.0000
  H   H361      1.0  0.15749  0.59563  0.81389  1.0000
  Fe  Fe46      1.0  0.12070  0.59282  0.97574  1.0000
  H   H362      1.0  0.18486  0.50280  0.58588  1.0000
  H   H363      1.0  0.04644  0.53754  0.52038  1.0000
  H   H364      1.0  0.01209  0.39263  0.90695  1.0000
  C   C316      1.0  0.11003  0.53985  0.52579  1.0000
  H   H365      1.0  0.18573  0.47711  0.79989  1.0000
  C   C317      1.0  0.18113  0.50771  0.84640  1.0000
  H   H366      1.0  0.08932  0.43768  0.60803  1.0000
  C   C318      1.0  0.09423  0.50328  0.52621  1.0000
  S   S87       1.0  0.07535  0.48493  0.54051  1.0000
  C   C319      1.0  0.13080  0.61980  0.80086  1.0000
  H   H367      1.0  0.24427  0.37839  0.66055  1.0000
  C   C320      1.0  0.19445  0.51798  0.82520  1.0000
  H   H368      1.0  0.03724  0.64736  0.96023  1.0000
  H   H369      1.0  0.12902  0.63741  0.72846  1.0000
  H   H370      1.0  0.33471  0.35515  0.74683  1.0000
  C   C321      1.0  0.02335  0.64311  0.97368  1.0000
  H   H371      1.0  0.11204  0.48075  0.98965  1.0000
  H   H372      1.0  0.20557  0.47695  0.87696  1.0000
  Fe  Fe47      1.0  0.08434  0.45040  0.52395  1.0000
  H   H373      1.0  0.09206  0.63967  0.85043  1.0000
  S   S88       1.0  0.14963  0.61481  0.97308  1.0000
  H   H374      1.0  0.14892  0.60408  0.73250  1.0000
  H   H375      1.0  0.18769  0.47977  0.63130  1.0000
  H   H376      1.0  0.17788  0.56946  0.52559  1.0000
  C   C322      1.0  0.00537  0.46055  0.52185  1.0000
  H   H377      1.0  0.25983  0.66302  0.88825  1.0000
  H   H378      1.0  0.16626  0.63982  0.75100  1.0000
  H   H379      1.0  0.19291  0.54678  0.65194  1.0000
  H   H380      1.0  0.02458  0.42201  0.94094  1.0000
  H   H381      1.0  0.01213  0.59679  0.53877  1.0000
  H   H382      1.0  0.08925  0.48938  0.61200  1.0000
  H   H383      1.0  0.14885  0.50710  0.55866  1.0000
  H   H384      1.0  0.11658  0.43556  0.59281  1.0000
  C   C323      1.0  0.19752  0.54104  0.82548  1.0000
  H   H385      1.0  0.14460  0.59018  0.86377  1.0000
  S   S89       1.0  0.15939  0.65047  0.55269  1.0000
  C   C324      1.0  0.00691  0.41939  0.93785  1.0000
  C   C325      1.0  0.18777  0.55452  0.84712  1.0000
  S   S90       1.0  0.11921  0.43581  0.52002  1.0000
  H   H386      1.0  0.19889  0.45327  0.85447  1.0000
  C   C326      1.0  0.04731  0.53878  0.98457  1.0000
  H   H387      1.0  0.23401  0.65997  0.81544  1.0000
  H   H388      1.0  0.01813  0.63979  0.58952  1.0000
  N   N22       1.0  0.11220  0.46207  0.62447  1.0000
  C   C327      1.0  0.11625  0.44779  0.65089  1.0000
  C   C328      1.0  0.09469  0.47934  0.63166  1.0000
  C   C329      1.0  0.13236  0.47313  0.61447  1.0000
  C   C330      1.0  0.13140  0.48651  0.58872  1.0000
  C   C331      1.0  0.15318  0.47138  0.62988  1.0000
  C   C332      1.0  0.15009  0.49715  0.57865  1.0000
  C   C333      1.0  0.17186  0.48198  0.61957  1.0000
  C   C334      1.0  0.17033  0.49481  0.59399  1.0000
  H   H389      1.0  0.12178  0.45769  0.67023  1.0000
  H   H390      1.0  0.12905  0.43424  0.64658  1.0000
  H   H391      1.0  0.10082  0.49116  0.64862  1.0000
  H   H392      1.0  0.17017  0.60167  0.55826  1.0000
  H   H393      1.0  0.11234  0.61233  0.88254  1.0000
  C   C335      1.0  0.21280  0.34847  0.64174  1.0000
  C   C336      1.0  0.11707  0.61397  0.85975  1.0000
  S   S91       1.0  0.13450  0.65767  0.91043  1.0000
  H   H394      1.0  0.19376  0.66105  0.59440  1.0000
  C   C337      1.0  0.27126  0.64116  0.83914  1.0000
  C   C338      1.0  0.00728  0.58353  0.96649  1.0000
  C   C339      1.0  0.02736  0.63488  0.00217  1.0000
  H   H395      1.0  0.28081  0.63529  0.85899  1.0000
  C   C340      1.0  0.12284  0.63615  0.75142  1.0000
  H   H396      1.0  0.19453  0.35337  0.69413  1.0000
  H   H397      1.0  0.04111  0.53340  0.96255  1.0000
  H   H398      1.0  0.24197  0.37265  0.69879  1.0000
  H   H399      1.0  0.00764  0.51649  0.53289  1.0000
  C   C341      1.0  0.18697  0.34570  0.58900  1.0000
  C   C342      1.0  0.11555  0.53721  0.98393  1.0000
  S   S92       1.0  0.04199  0.39147  0.99848  1.0000
  C   C343      1.0  0.00072  0.50005  0.53181  1.0000
  H   H400      1.0  0.07274  0.57285  0.97515  1.0000
  C   C344      1.0  0.11033  0.49825  0.99560  1.0000
  H   H401      1.0  0.25631  0.33836  0.65180  1.0000
  S   S93       1.0  0.10800  0.39021  0.00080  1.0000
  C   C345      1.0  0.27964  0.34384  0.75219  1.0000
  H   H402      1.0  0.21842  0.34464  0.71629  1.0000
  H   H403      1.0  0.19901  0.65382  0.64798  1.0000
  N   N23       1.0  0.04077  0.56261  0.99035  1.0000
  C   C346      1.0  0.00763  0.64903  0.57374  1.0000
  H   H404      1.0  0.12012  0.65377  0.75886  1.0000
  C   C347      1.0  0.99982  0.40272  0.91886  1.0000
  H   H405      1.0  0.06570  0.53577  0.98491  1.0000
  C   C348      1.0  0.01415  0.48169  0.52334  1.0000
  H   H406      1.0  0.01595  0.44627  0.51529  1.0000
  Fe  Fe48      1.0  0.08914  0.62999  0.99703  1.0000
  S   S94       1.0  0.11596  0.65563  0.99592  1.0000
  H   H407      1.0  0.04094  0.52723  0.00129  1.0000
  H   H408      1.0  0.03537  0.65834  0.54774  1.0000
  C   C349      1.0  0.01742  0.65958  0.55027  1.0000
  H   H409      1.0  0.27894  0.34278  0.81724  1.0000
  H   H410      1.0  0.06509  0.55857  0.50899  1.0000
  H   H411      1.0  0.03627  0.56558  0.51257  1.0000
  H   H412      1.0  0.25489  0.33524  0.69108  1.0000
  H   H413      1.0  0.13671  0.69244  0.12360  1.0000
  S   S95       1.0  0.39780  0.92057  0.45640  1.0000
  S   S96       1.0  0.45908  0.89878  0.45531  1.0000
  H   H414      1.0  0.36447  0.98237  0.47401  1.0000
  C   C350      1.0  0.37071  0.99621  0.48660  1.0000
  S   S97       1.0  0.38625  0.85972  0.05019  1.0000
  Fe  Fe49      1.0  0.37805  0.89001  0.46437  1.0000
  S   S98       1.0  0.35679  0.87583  0.42741  1.0000
  H   H415      1.0  0.45888  0.91997  0.02766  1.0000
  H   H416      1.0  0.41958  0.83890  0.16155  1.0000
  H   H417      1.0  0.48222  0.83845  0.15566  1.0000
  H   H418      1.0  0.23231  0.72834  0.30451  1.0000
  Fe  Fe50      1.0  0.37986  0.81611  0.21455  1.0000
  S   S99       1.0  0.39001  0.78097  0.20087  1.0000
  S   S100      1.0  0.36983  0.84733  0.18773  1.0000
  Fe  Fe51      1.0  0.39488  0.80830  0.27896  1.0000
  S   S101      1.0  0.40655  0.77276  0.26968  1.0000
  S   S102      1.0  0.40604  0.82703  0.32006  1.0000
  Fe  Fe52      1.0  0.42118  0.78584  0.22832  1.0000
  S   S103      1.0  0.45555  0.78057  0.20810  1.0000
  Fe  Fe53      1.0  0.37417  0.77021  0.24335  1.0000
  S   S104      1.0  0.35588  0.73753  0.25185  1.0000
  S   S105      1.0  0.41171  0.82127  0.23927  1.0000
  S   S106      1.0  0.36187  0.80537  0.25532  1.0000
  H   H419      1.0  0.48342  0.81256  0.13525  1.0000
  H   H420      1.0  0.24457  0.68579  0.36447  1.0000
  C   C351      1.0  0.33083  0.72346  0.24284  1.0000
  C   C352      1.0  0.32844  0.70146  0.25314  1.0000
  C   C353      1.0  0.30884  0.68974  0.24730  1.0000
  C   C354      1.0  0.29112  0.69992  0.23116  1.0000
  C   C355      1.0  0.29347  0.72192  0.22090  1.0000
  C   C356      1.0  0.31313  0.73359  0.22663  1.0000
  H   H421      1.0  0.34194  0.69339  0.26574  1.0000
  H   H422      1.0  0.48474  0.95093  0.48651  1.0000
  H   H423      1.0  0.44003  0.78158  0.34894  1.0000
  H   H424      1.0  0.31455  0.75048  0.21861  1.0000
  Fe  Fe54      1.0  0.38889  0.93068  0.50264  1.0000
  C   C357      1.0  0.48114  0.78055  0.22829  1.0000
  H   H425      1.0  0.27995  0.73010  0.20850  1.0000
  S   S107      1.0  0.36945  0.97436  0.01713  1.0000
  H   H426      1.0  0.46666  0.77635  0.27070  1.0000
  N   N24       1.0  0.46731  0.80337  0.35762  1.0000
  C   C358      1.0  0.27020  0.71428  0.33104  1.0000
  H   H427      1.0  0.44413  0.85306  0.17381  1.0000
  H   H428      1.0  0.47261  0.82145  0.08925  1.0000
  H   H429      1.0  0.44646  0.78570  0.38721  1.0000
  H   H430      1.0  0.42469  0.89083  0.08727  1.0000
  C   C359      1.0  0.23817  0.71116  0.29805  1.0000
  C   C360      1.0  0.37048  0.86117  0.39837  1.0000
  C   C361      1.0  0.39372  0.86046  0.39637  1.0000
  C   C362      1.0  0.40417  0.84987  0.37229  1.0000
  C   C363      1.0  0.39161  0.83956  0.35008  1.0000
  C   C364      1.0  0.36838  0.83987  0.35228  1.0000
  C   C365      1.0  0.35788  0.85077  0.37624  1.0000
  H   H431      1.0  0.40363  0.86856  0.41305  1.0000
  H   H432      1.0  0.42210  0.85000  0.37071  1.0000
  H   H433      1.0  0.35849  0.83178  0.33561  1.0000
  H   H434      1.0  0.33990  0.85122  0.37763  1.0000
  C   C366      1.0  0.37451  0.85058  0.14947  1.0000
  C   C367      1.0  0.37956  0.83223  0.13129  1.0000
  C   C368      1.0  0.38311  0.83542  0.10103  1.0000
  C   C369      1.0  0.38179  0.85696  0.08856  1.0000
  C   C370      1.0  0.37691  0.87535  0.10676  1.0000
  C   C371      1.0  0.37319  0.87213  0.13702  1.0000
  H   H435      1.0  0.38042  0.81554  0.14048  1.0000
  H   H436      1.0  0.38678  0.82108  0.08713  1.0000
  H   H437      1.0  0.37575  0.89201  0.09747  1.0000
  H   H438      1.0  0.36919  0.88645  0.15082  1.0000
  H   H439      1.0  0.21597  0.70162  0.20370  1.0000
  C   C372      1.0  0.44977  0.84251  0.11521  1.0000
  C   C373      1.0  0.46257  0.83682  0.09006  1.0000
  C   C374      1.0  0.44251  0.95916  0.47709  1.0000
  H   H440      1.0  0.16419  0.69651  0.16255  1.0000
  H   H441      1.0  0.27153  0.66976  0.32835  1.0000
  C   C375      1.0  0.44016  0.80606  0.13253  1.0000
  H   H442      1.0  0.42528  0.86791  0.13112  1.0000
  C   C376      1.0  0.19933  0.68977  0.10434  1.0000
  C   C377      1.0  0.46222  0.82808  0.40306  1.0000
  H   H443      1.0  0.29466  0.73955  0.39074  1.0000
  C   C378      1.0  0.48111  0.90300  0.48017  1.0000
  C   C379      1.0  0.43624  0.86256  0.11364  1.0000
  H   H444      1.0  0.22199  0.68530  0.33884  1.0000
  C   C380      1.0  0.47516  0.91354  0.02134  1.0000
  N   N25       1.0  0.37210  0.88296  0.27411  1.0000
  C   C381      1.0  0.35954  0.86215  0.27377  1.0000
  C   C382      1.0  0.36047  0.89953  0.25434  1.0000
  C   C383      1.0  0.39431  0.87744  0.26148  1.0000
  C   C384      1.0  0.37323  0.89198  0.30448  1.0000
  C   C385      1.0  0.39371  0.89496  0.31996  1.0000
  C   C386      1.0  0.35335  0.89793  0.31963  1.0000
  C   C387      1.0  0.39407  0.90341  0.34869  1.0000
  C   C388      1.0  0.35393  0.90609  0.34848  1.0000
  C   C389      1.0  0.37424  0.90887  0.36294  1.0000
  H   H445      1.0  0.34212  0.86483  0.28117  1.0000
  H   H446      1.0  0.35850  0.85486  0.25122  1.0000
  H   H447      1.0  0.36775  0.84930  0.28846  1.0000
  H   H448      1.0  0.34285  0.90296  0.26056  1.0000
  H   H449      1.0  0.36000  0.89345  0.23109  1.0000
  H   H450      1.0  0.36896  0.91572  0.25472  1.0000
  H   H451      1.0  0.40363  0.86435  0.27474  1.0000
  H   H452      1.0  0.39283  0.87060  0.23871  1.0000
  H   H453      1.0  0.40453  0.89248  0.26010  1.0000
  H   H454      1.0  0.40969  0.89036  0.31075  1.0000
  H   H455      1.0  0.33716  0.89586  0.30952  1.0000
  H   H456      1.0  0.40979  0.90491  0.36049  1.0000
  H   H457      1.0  0.33857  0.90969  0.36012  1.0000
  H   H458      1.0  0.37458  0.91446  0.38567  1.0000
  C   C390      1.0  0.43772  0.83673  0.16654  1.0000
  H   H459      1.0  0.45377  0.82913  0.32879  1.0000
  H   H460      1.0  0.26318  0.71701  0.37828  1.0000
  H   H461      1.0  0.21655  0.68820  0.09791  1.0000
  C   C391      1.0  0.29206  0.73433  0.36812  1.0000
  Fe  Fe55      1.0  0.38955  0.89080  0.02150  1.0000
  H   H462      1.0  0.48295  0.97378  0.46094  1.0000
  C   C392      1.0  0.28571  0.72094  0.30990  1.0000
  H   H463      1.0  0.43908  0.82526  0.18584  1.0000
  C   C393      1.0  0.43574  0.87601  0.08847  1.0000
  C   C394      1.0  0.46201  0.85046  0.06507  1.0000
  S   S108      1.0  0.26531  0.68661  0.22434  1.0000
  H   H464      1.0  0.28408  0.71606  0.28714  1.0000
  H   H465      1.0  0.45697  0.80217  0.31185  1.0000
  H   H466      1.0  0.32110  0.75040  0.35265  1.0000
  C   C395      1.0  0.46473  0.81365  0.32802  1.0000
  N   N26       1.0  0.21109  0.69555  0.15717  1.0000
  C   C396      1.0  0.45127  0.99857  0.48771  1.0000
  H   H467      1.0  0.31558  0.73841  0.30106  1.0000
  H   H468      1.0  0.23239  0.66957  0.13767  1.0000
  H   H469      1.0  0.24773  0.71247  0.27742  1.0000
  C   C397      1.0  0.15423  0.69220  0.11820  1.0000
  S   S109      1.0  0.41080  0.92075  0.02764  1.0000
  C   C398      1.0  0.18308  0.68719  0.08233  1.0000
  C   C399      1.0  0.47511  0.82033  0.37881  1.0000
  H   H470      1.0  0.48093  0.81822  0.31874  1.0000
  C   C400      1.0  0.27393  0.72135  0.36057  1.0000
  H   H471      1.0  0.47806  0.77085  0.34114  1.0000
  C   C401      1.0  0.49603  0.83012  0.37500  1.0000
  C   C402      1.0  0.16059  0.68848  0.08923  1.0000
  C   C403      1.0  0.30698  0.74049  0.34673  1.0000
  H   H472      1.0  0.21614  0.73002  0.14687  1.0000
  S   S110      1.0  0.40667  0.86860  0.48225  1.0000
  Fe  Fe56      1.0  0.42565  0.89958  0.47677  1.0000
  C   C404      1.0  0.17034  0.69456  0.14048  1.0000
  H   H473      1.0  0.44594  0.82204  0.40762  1.0000
  C   C405      1.0  0.30382  0.73378  0.31768  1.0000
  H   H474      1.0  0.43936  0.79444  0.15159  1.0000
  N   N27       1.0  0.45021  0.82742  0.14103  1.0000
  C   C406      1.0  0.20226  0.70018  0.18701  1.0000
  H   H475      1.0  0.47428  0.81284  0.17198  1.0000
  H   H476      1.0  0.23877  0.71632  0.16738  1.0000
  C   C407      1.0  0.47356  0.82270  0.15123  1.0000
  C   C408      1.0  0.22465  0.67434  0.15890  1.0000
  H   H477      1.0  0.44973  0.79698  0.11522  1.0000
  H   H478      1.0  0.42282  0.80903  0.12393  1.0000
  C   C409      1.0  0.48385  0.78427  0.35616  1.0000
  H   H479      1.0  0.23850  0.67530  0.17538  1.0000
  H   H480      1.0  0.42493  0.96098  0.48433  1.0000
  C   C410      1.0  0.44558  0.79412  0.36539  1.0000
  H   H481      1.0  0.48983  0.91779  0.06453  1.0000
  N   N28       1.0  0.45712  0.97462  0.49327  1.0000
  C   C411      1.0  0.23606  0.69561  0.34644  1.0000
  H   H482      1.0  0.19203  0.71611  0.18754  1.0000
  C   C412      1.0  0.48194  0.77824  0.25889  1.0000
  C   C413      1.0  0.48040  0.96913  0.48431  1.0000
  C   C414      1.0  0.44851  0.86995  0.06424  1.0000
  H   H483      1.0  0.49297  0.97759  0.49810  1.0000
  N   N29       1.0  0.25153  0.70015  0.32216  1.0000
  H   H484      1.0  0.22327  0.70152  0.29205  1.0000
  C   C415      1.0  0.22589  0.71391  0.14977  1.0000
  C   C416      1.0  0.19348  0.69354  0.13416  1.0000
  H   H485      1.0  0.22846  0.71136  0.35559  1.0000
  H   H486      1.0  0.44770  0.94134  0.48110  1.0000
  H   H487      1.0  0.23524  0.71052  0.12927  1.0000
  H   H488      1.0  0.27067  0.67995  0.29118  1.0000
  H   H489      1.0  0.43206  0.80739  0.36576  1.0000
  H   H490      1.0  0.18789  0.68345  0.05989  1.0000
  C   C417      1.0  0.26064  0.67829  0.31137  1.0000
  H   H491      1.0  0.47157  0.84570  0.04585  1.0000
  H   H492      1.0  0.14809  0.68579  0.07221  1.0000
  C   C418      1.0  0.49267  0.91230  0.04216  1.0000
  H   H493      1.0  0.19195  0.68632  0.19471  1.0000
  H   H494      1.0  0.44307  0.96180  0.45289  1.0000
  H   H495      1.0  0.41982  0.99450  0.46301  1.0000
  H   H496      1.0  0.44747  0.88008  0.04447  1.0000
  H   H497      1.0  0.48698  0.77674  0.37830  1.0000
  H   H498      1.0  0.45976  0.85045  0.44033  1.0000
  H   H499      1.0  0.30746  0.67288  0.25541  1.0000
  C   C419      1.0  0.46997  0.84447  0.42220  1.0000
  H   H500      1.0  0.47952  0.98775  0.00776  1.0000
  C   C420      1.0  0.49062  0.85357  0.41795  1.0000
  H   H501      1.0  0.32418  0.83520  0.01309  1.0000
  H   H502      1.0  0.49638  0.86640  0.43280  1.0000
  H   H503      1.0  0.24706  0.66686  0.30573  1.0000
  H   H504      1.0  0.34285  0.76113  0.70471  1.0000
  S   S111      1.0  0.39763  0.93385  0.95783  1.0000
  H   H505      1.0  0.41743  0.89718  0.63490  1.0000
  Fe  Fe57      1.0  0.39704  0.88231  0.52673  1.0000
  H   H506      1.0  0.32587  0.87160  0.94921  1.0000
  S   S112      1.0  0.40577  0.86262  0.56877  1.0000
  Fe  Fe58      1.0  0.37810  0.90265  0.95666  1.0000
  S   S113      1.0  0.35931  0.89228  0.91511  1.0000
  N   N30       1.0  0.33690  0.84040  0.96962  1.0000
  H   H507      1.0  0.36050  0.78207  0.64806  1.0000
  H   H508      1.0  0.01176  0.67839  0.51055  1.0000
  H   H509      1.0  0.35721  0.79329  0.87134  1.0000
  Fe  Fe59      1.0  0.37549  0.81031  0.71926  1.0000
  S   S114      1.0  0.39254  0.77804  0.70549  1.0000
  S   S115      1.0  0.35679  0.83155  0.68444  1.0000
  Fe  Fe60      1.0  0.38941  0.80376  0.78413  1.0000
  S   S116      1.0  0.40733  0.77083  0.77391  1.0000
  S   S117      1.0  0.39550  0.81312  0.83222  1.0000
  Fe  Fe61      1.0  0.42088  0.78852  0.73500  1.0000
  S   S118      1.0  0.45613  0.79227  0.71815  1.0000
  Fe  Fe62      1.0  0.37703  0.76335  0.74574  1.0000
  S   S119      1.0  0.36250  0.72813  0.74522  1.0000
  S   S120      1.0  0.40445  0.82175  0.74645  1.0000
  S   S121      1.0  0.35838  0.79528  0.75829  1.0000
  H   H510      1.0  0.31595  0.77536  0.70386  1.0000
  C   C421      1.0  0.38044  0.95178  0.61369  1.0000
  C   C422      1.0  0.33546  0.71645  0.74413  1.0000
  C   C423      1.0  0.31567  0.72969  0.74280  1.0000
  C   C424      1.0  0.29480  0.71961  0.74054  1.0000
  C   C425      1.0  0.29324  0.69615  0.74007  1.0000
  C   C426      1.0  0.31297  0.68290  0.74219  1.0000
  C   C427      1.0  0.33387  0.69299  0.74405  1.0000
  H   H511      1.0  0.31640  0.74769  0.74352  1.0000
  H   H512      1.0  0.27971  0.73011  0.73912  1.0000
  H   H513      1.0  0.46448  0.88383  0.91030  1.0000
  H   H514      1.0  0.43794  0.97405  0.53267  1.0000
  C   C428      1.0  0.48356  0.77013  0.75966  1.0000
  C   C429      1.0  0.48189  0.78507  0.73602  1.0000
  H   H515      1.0  0.44341  0.80536  0.83743  1.0000
  C   C430      1.0  0.35711  0.80866  0.94348  1.0000
  H   H516      1.0  0.46877  0.76246  0.76747  1.0000
  H   H517      1.0  0.24567  0.68665  0.87079  1.0000
  H   H518      1.0  0.34045  0.79011  0.69575  1.0000
  C   C431      1.0  0.39858  0.88667  0.67070  1.0000
  H   H519      1.0  0.32704  0.80306  0.64805  1.0000
  C   C432      1.0  0.38421  0.91418  0.63423  1.0000
  H   H520      1.0  0.34939  0.98047  0.93155  1.0000
  H   H521      1.0  0.35474  0.86093  0.00034  1.0000
  C   C433      1.0  0.37028  0.87104  0.89147  1.0000
  C   C434      1.0  0.38697  0.85567  0.90117  1.0000
  C   C435      1.0  0.39445  0.83819  0.88260  1.0000
  C   C436      1.0  0.38566  0.83602  0.85393  1.0000
  C   C437      1.0  0.36921  0.85157  0.84394  1.0000
  C   C438      1.0  0.36141  0.86888  0.86278  1.0000
  H   H522      1.0  0.39391  0.85699  0.92314  1.0000
  H   H523      1.0  0.40710  0.82619  0.89059  1.0000
  H   H524      1.0  0.36224  0.85006  0.82195  1.0000
  H   H525      1.0  0.34843  0.88065  0.85511  1.0000
  C   C439      1.0  0.37009  0.83900  0.65148  1.0000
  C   C440      1.0  0.35793  0.85109  0.62957  1.0000
  C   C441      1.0  0.36834  0.85806  0.60371  1.0000
  C   C442      1.0  0.39110  0.85319  0.59972  1.0000
  C   C443      1.0  0.40309  0.84081  0.62147  1.0000
  C   C444      1.0  0.39266  0.83365  0.64711  1.0000
  H   H526      1.0  0.34045  0.85530  0.63274  1.0000
  H   H527      1.0  0.35877  0.86725  0.58703  1.0000
  H   H528      1.0  0.42066  0.83686  0.61857  1.0000
  H   H529      1.0  0.40225  0.82436  0.66375  1.0000
  C   C445      1.0  0.29965  0.67640  0.86587  1.0000
  C   C446      1.0  0.31776  0.74703  0.65884  1.0000
  C   C447      1.0  0.34167  0.82731  0.94256  1.0000
  C   C448      1.0  0.37826  0.88765  0.68502  1.0000
  H   H530      1.0  0.46678  0.97988  0.53869  1.0000
  C   C449      1.0  0.00407  0.67089  0.52933  1.0000
  H   H531      1.0  0.32489  0.69179  0.67890  1.0000
  C   C450      1.0  0.33230  0.77394  0.69271  1.0000
  C   C451      1.0  0.24901  0.67031  0.81544  1.0000
  C   C452      1.0  0.29550  0.74589  0.64784  1.0000
  C   C453      1.0  0.28435  0.72580  0.64816  1.0000
  H   H532      1.0  0.28617  0.76035  0.63937  1.0000
  H   H533      1.0  0.37635  0.90221  0.57794  1.0000
  C   C454      1.0  0.36080  0.90150  0.67426  1.0000
  C   C455      1.0  0.47752  0.90315  0.51046  1.0000
  C   C456      1.0  0.32365  0.70319  0.84425  1.0000
  C   C457      1.0  0.31735  0.78755  0.64661  1.0000
  C   C458      1.0  0.31683  0.70684  0.66971  1.0000
  H   H534      1.0  0.33019  0.82543  0.86824  1.0000
  C   C459      1.0  0.44743  0.85029  0.85437  1.0000
  C   C460      1.0  0.29494  0.70636  0.65926  1.0000
  H   H535      1.0  0.31230  0.71750  0.80316  1.0000
  H   H536      1.0  0.37579  0.87698  0.70387  1.0000
  H   H537      1.0  0.36316  0.75378  0.65962  1.0000
  S   S122      1.0  0.38884  0.96454  0.52614  1.0000
  H   H538      1.0  0.34464  0.72646  0.67951  1.0000
  H   H539      1.0  0.41490  0.91003  0.58850  1.0000
  H   H540      1.0  0.30121  0.79177  0.65737  1.0000
  C   C461      1.0  0.35248  0.80229  0.89118  1.0000
  N   N31       1.0  0.32946  0.76829  0.66118  1.0000
  C   C462      1.0  0.32808  0.72683  0.66972  1.0000
  C   C463      1.0  0.40972  0.92719  0.59609  1.0000
  H   H541      1.0  0.35048  0.76033  0.62440  1.0000
  H   H542      1.0  0.45870  0.85052  0.78776  1.0000
  H   H543      1.0  0.34128  0.81259  0.99989  1.0000
  C   C464      1.0  0.48622  0.86350  0.88297  1.0000
  C   C465      1.0  0.46089  0.80363  0.82969  1.0000
  H   H544      1.0  0.43659  0.83332  0.79949  1.0000
  C   C466      1.0  0.46555  0.87211  0.89203  1.0000
  Fe  Fe63      1.0  0.42342  0.91272  0.98234  1.0000
  H   H545      1.0  0.35792  0.99732  0.88361  1.0000
  H   H546      1.0  0.49151  0.90967  0.55345  1.0000
  H   H547      1.0  0.34898  0.68250  0.74521  1.0000
  C   C467      1.0  0.35180  0.76593  0.64770  1.0000
  H   H548      1.0  0.34944  0.92464  0.64136  1.0000
  H   H549      1.0  0.37280  0.93005  0.56352  1.0000
  H   H550      1.0  0.34483  0.90165  0.68502  1.0000
  H   H551      1.0  0.31432  0.78420  0.62281  1.0000
  S   S123      1.0  0.40501  0.88126  0.97820  1.0000
  C   C468      1.0  0.38337  0.99203  0.51227  1.0000
  S   S124      1.0  0.26622  0.68460  0.73702  1.0000
  S   S125      1.0  0.36110  0.91052  0.99952  1.0000
  C   C469      1.0  0.45464  0.83329  0.79438  1.0000
  H   H552      1.0  0.45916  0.95197  0.53015  1.0000
  C   C470      1.0  0.33723  0.82043  0.88949  1.0000
  H   H553      1.0  0.37080  0.83756  0.98698  1.0000
  S   S126      1.0  0.41852  0.91177  0.52207  1.0000
  H   H554      1.0  0.33102  0.68603  0.88490  1.0000
  C   C471      1.0  0.48766  0.84835  0.85946  1.0000
  C   C472      1.0  0.44620  0.86550  0.87778  1.0000
  H   H555      1.0  0.33893  0.71225  0.84468  1.0000
  H   H556      1.0  0.32073  0.84733  0.91138  1.0000
  C   C473      1.0  0.28903  0.69427  0.81966  1.0000
  H   H557      1.0  0.46179  0.89846  0.51889  1.0000
  C   C474      1.0  0.49192  0.82113  0.80794  1.0000
  C   C475      1.0  0.31916  0.68841  0.86681  1.0000
  H   H558      1.0  0.43189  0.84529  0.84460  1.0000
  C   C476      1.0  0.35765  0.85032  0.98051  1.0000
  C   C477      1.0  0.30860  0.70615  0.82083  1.0000
  C   C478      1.0  0.49450  0.90909  0.53006  1.0000
  H   H559      1.0  0.31351  0.81699  0.98496  1.0000
  C   C479      1.0  0.45520  0.96995  0.52511  1.0000
  H   H560      1.0  0.40991  0.98555  0.98622  1.0000
  H   H561      1.0  0.36563  0.80377  0.96373  1.0000
  H   H562      1.0  0.47129  0.79678  0.84834  1.0000
  C   C480      1.0  0.46821  0.84152  0.84410  1.0000
  C   C481      1.0  0.28399  0.67890  0.84221  1.0000
  C   C482      1.0  0.36365  0.91458  0.64925  1.0000
  S   S127      1.0  0.36650  0.90162  0.50959  1.0000
  H   H563      1.0  0.39036  0.95818  0.63258  1.0000
  C   C483      1.0  0.33191  0.83292  0.91465  1.0000
  H   H564      1.0  0.26724  0.72533  0.64026  1.0000
  H   H565      1.0  0.24289  0.68813  0.81544  1.0000
  H   H566      1.0  0.42191  0.93273  0.61302  1.0000
  C   C484      1.0  0.40158  0.89954  0.64554  1.0000
  C   C485      1.0  0.32003  0.85904  0.96514  1.0000
  C   C486      1.0  0.32858  0.82561  0.99280  1.0000
  H   H567      1.0  0.15211  0.67339  0.85594  1.0000
  N   N32       1.0  0.38667  0.92796  0.60751  1.0000
  H   H568      1.0  0.41179  0.87514  0.67849  1.0000
  C   C487      1.0  0.25069  0.66865  0.86798  1.0000
  H   H569      1.0  0.38328  0.96266  0.59429  1.0000
  H   H570      1.0  0.41117  0.93833  0.57665  1.0000
  H   H571      1.0  0.37471  0.78264  0.91914  1.0000
  C   C488      1.0  0.37176  0.91984  0.58386  1.0000
  Fe  Fe64      1.0  0.38344  0.94009  0.00259  1.0000
  H   H572      1.0  0.35399  0.92045  0.59025  1.0000
  H   H573      1.0  0.36250  0.95443  0.61875  1.0000
  C   C489      1.0  0.36241  0.79641  0.91812  1.0000
  H   H574      1.0  0.30382  0.85284  0.95710  1.0000
  C   C490      1.0  0.47910  0.90749  0.99209  1.0000
  N   N33       1.0  0.46907  0.82525  0.81944  1.0000
  H   H575      1.0  0.45648  0.82225  0.77466  1.0000
  H   H576      1.0  0.43012  0.87212  0.88507  1.0000
  H   H577      1.0  0.49192  0.81026  0.78809  1.0000
  C   C491      1.0  0.35004  0.99850  0.92942  1.0000
  H   H578      1.0  0.28605  0.69098  0.66030  1.0000
  H   H579      1.0  0.46108  0.79088  0.81176  1.0000
  S   S128      1.0  0.45815  0.91058  0.96515  1.0000
  H   H580      1.0  0.36464  0.86097  0.96324  1.0000
  H   H581      1.0  0.27836  0.69723  0.80056  1.0000
  H   H582      1.0  0.31680  0.86848  0.98590  1.0000
  H   H583      1.0  0.25750  0.66678  0.79427  1.0000
  Fe  Fe65      1.0  0.60124  0.15105  0.04661  1.0000
  H   H584      1.0  0.64876  0.00527  0.43414  1.0000
  S   S129      1.0  0.60772  0.18258  0.07322  1.0000
  H   H585      1.0  0.78442  0.31592  0.38977  1.0000
  S   S130      1.0  0.57798  0.12946  0.48170  1.0000
  C   C492      1.0  0.52147  0.16079  0.16645  1.0000
  H   H586      1.0  0.58245  0.08338  0.40994  1.0000
  S   S131      1.0  0.62465  0.14943  0.43427  1.0000
  Fe  Fe66      1.0  0.56251  0.12160  0.03328  1.0000
  S   S132      1.0  0.52893  0.11090  0.04709  1.0000
  H   H587      1.0  0.58447  0.18224  0.20943  1.0000
  S   S133      1.0  0.59207  0.11748  0.06373  1.0000
  Fe  Fe67      1.0  0.60482  0.23647  0.29988  1.0000
  S   S134      1.0  0.58830  0.26881  0.28337  1.0000
  S   S135      1.0  0.60264  0.23305  0.34971  1.0000
  Fe  Fe68      1.0  0.61759  0.22255  0.23742  1.0000
  S   S136      1.0  0.60234  0.25387  0.21765  1.0000
  S   S137      1.0  0.63310  0.19506  0.20887  1.0000
  Fe  Fe69      1.0  0.61887  0.27169  0.25556  1.0000
  S   S138      1.0  0.63545  0.30533  0.24803  1.0000
  Fe  Fe70      1.0  0.57350  0.24799  0.24745  1.0000
  S   S139      1.0  0.53870  0.24652  0.22649  1.0000
  S   S140      1.0  0.63604  0.24047  0.27375  1.0000
  S   S141      1.0  0.58816  0.21559  0.26542  1.0000
  H   H588      1.0  0.58367  0.08631  0.44961  1.0000
  C   C493      1.0  0.51274  0.25141  0.24409  1.0000
  H   H589      1.0  0.90181  0.33118  0.50180  1.0000
  H   H590      1.0  0.61887  0.08170  0.47618  1.0000
  C   C494      1.0  0.69972  0.31600  0.27629  1.0000
  H   H591      1.0  0.78399  0.32391  0.34089  1.0000
  H   H592      1.0  0.50201  0.19405  0.41638  1.0000
  H   H593      1.0  0.55066  0.14953  0.09200  1.0000
  C   C495      1.0  0.66175  0.31737  0.25598  1.0000
  C   C496      1.0  0.51190  0.14702  0.14520  1.0000
  H   H594      1.0  0.65360  0.28737  0.33331  1.0000
  H   H595      1.0  0.56868  0.20572  0.15253  1.0000
  H   H596      1.0  0.52615  0.26535  0.28399  1.0000
  C   C497      1.0  0.61321  0.00519  0.43703  1.0000
  C   C498      1.0  0.61753  0.17239  0.41062  1.0000
  C   C499      1.0  0.62403  0.17152  0.38101  1.0000
  C   C500      1.0  0.61915  0.18967  0.36180  1.0000
  C   C501      1.0  0.60799  0.20905  0.37219  1.0000
  C   C502      1.0  0.60145  0.20987  0.40176  1.0000
  C   C503      1.0  0.60602  0.19161  0.42081  1.0000
  H   H597      1.0  0.63300  0.15678  0.37291  1.0000
  H   H598      1.0  0.62440  0.18882  0.33918  1.0000
  H   H599      1.0  0.59284  0.22475  0.41007  1.0000
  H   H600      1.0  0.60094  0.19254  0.44352  1.0000
  C   C504      1.0  0.61431  0.18511  0.11118  1.0000
  C   C505      1.0  0.62430  0.16753  0.12757  1.0000
  C   C506      1.0  0.63028  0.17087  0.15737  1.0000
  C   C507      1.0  0.62556  0.19150  0.17131  1.0000
  C   C508      1.0  0.61517  0.20891  0.15502  1.0000
  C   C509      1.0  0.60999  0.20584  0.12501  1.0000
  H   H601      1.0  0.62793  0.15155  0.11710  1.0000
  H   H602      1.0  0.63841  0.15731  0.16975  1.0000
  H   H603      1.0  0.61153  0.22489  0.16531  1.0000
  H   H604      1.0  0.60246  0.21959  0.11240  1.0000
  C   C510      1.0  0.63084  0.30957  0.37535  1.0000
  H   H605      1.0  0.65245  0.32799  0.33190  1.0000
  H   H606      1.0  0.64458  0.07756  0.40285  1.0000
  C   C511      1.0  0.58820  0.29102  0.35540  1.0000
  H   H607      1.0  0.54254  0.21623  0.16643  1.0000
  H   H608      1.0  0.54963  0.19827  0.22777  1.0000
  C   C512      1.0  0.50662  0.11364  0.50013  1.0000
  H   H609      1.0  0.51515  0.13209  0.10216  1.0000
  C   C513      1.0  0.51197  0.04209  0.01636  1.0000
  C   C514      1.0  0.50985  0.15051  0.02686  1.0000
  S   S142      1.0  0.62134  0.13654  0.00890  1.0000
  H   H610      1.0  0.52440  0.19713  0.20686  1.0000
  C   C515      1.0  0.56416  0.32014  0.31764  1.0000
  H   H611      1.0  0.80581  0.31847  0.43581  1.0000
  C   C516      1.0  0.62344  0.00288  0.02007  1.0000
  H   H612      1.0  0.53539  0.30213  0.32962  1.0000
  H   H613      1.0  0.90597  0.32104  0.45230  1.0000
  C   C517      1.0  0.61402  0.05245  0.43162  1.0000
  H   H614      1.0  0.93333  0.30789  0.45722  1.0000
  N   N34       1.0  0.62454  0.30823  0.34367  1.0000
  C   C518      1.0  0.67916  0.30578  0.27109  1.0000
  H   H615      1.0  0.50065  0.22297  0.15805  1.0000
  C   C519      1.0  0.63087  0.02425  0.02791  1.0000
  H   H616      1.0  0.64533  0.02557  0.04223  1.0000
  H   H617      1.0  0.53748  0.17187  0.22280  1.0000
  C   C520      1.0  0.63386  0.03868  0.43085  1.0000
  H   H618      1.0  0.58607  0.16991  0.17376  1.0000
  H   H619      1.0  0.74969  0.31668  0.36697  1.0000
  C   C521      1.0  0.63338  0.01542  0.43358  1.0000
  H   H620      1.0  0.57789  0.05046  0.43779  1.0000
  C   C522      1.0  0.51305  0.00133  0.00852  1.0000
  C   C523      1.0  0.59999  0.30741  0.34021  1.0000
  C   C524      1.0  0.59344  0.01816  0.43796  1.0000
  H   H621      1.0  0.59425  0.10741  0.42669  1.0000
  C   C525      1.0  0.59284  0.08894  0.42885  1.0000
  C   C526      1.0  0.92415  0.32416  0.45301  1.0000
  C   C527      1.0  0.59372  0.04145  0.43551  1.0000
  C   C528      1.0  0.58723  0.32198  0.32108  1.0000
  C   C529      1.0  0.50746  0.12756  0.03105  1.0000
  N   N35       1.0  0.61508  0.07710  0.42960  1.0000
  C   C530      1.0  0.56519  0.28927  0.35169  1.0000
  H   H622      1.0  0.67689  0.28891  0.27865  1.0000
  C   C531      1.0  0.51116  0.26099  0.27214  1.0000
  H   H623      1.0  0.64998  0.04586  0.42908  1.0000
  H   H624      1.0  0.59677  0.27882  0.36952  1.0000
  H   H625      1.0  0.71306  0.30677  0.28780  1.0000
  H   H626      1.0  0.51247  0.16311  0.18664  1.0000
  C   C532      1.0  0.63403  0.32765  0.32870  1.0000
  H   H627      1.0  0.56735  0.21687  0.18877  1.0000
  H   H628      1.0  0.64472  0.07804  0.45740  1.0000
  H   H629      1.0  0.52067  0.05757  0.01893  1.0000
  H   H630      1.0  0.62688  0.10200  0.39995  1.0000
  S   S143      1.0  0.63048  0.07049  0.02598  1.0000
  H   H631      1.0  0.62950  0.27218  0.34196  1.0000
  H   H632      1.0  0.55679  0.27612  0.36293  1.0000
  C   C533      1.0  0.55318  0.30381  0.33286  1.0000
  C   C534      1.0  0.55227  0.16650  0.13392  1.0000
  Fe  Fe71      1.0  0.60921  0.10299  0.02377  1.0000
  S   S144      1.0  0.57018  0.15596  0.01848  1.0000
  C   C535      1.0  0.62753  0.08552  0.45546  1.0000
  N   N36       1.0  0.67195  0.26629  0.18280  1.0000
  C   C536      1.0  0.68500  0.28670  0.18672  1.0000
  C   C537      1.0  0.64895  0.27361  0.17372  1.0000
  C   C538      1.0  0.67122  0.25508  0.21186  1.0000
  C   C539      1.0  0.68123  0.25047  0.16061  1.0000
  C   C540      1.0  0.69997  0.25509  0.14323  1.0000
  C   C541      1.0  0.67104  0.22983  0.15532  1.0000
  C   C542      1.0  0.70773  0.23992  0.12185  1.0000
  C   C543      1.0  0.67881  0.21486  0.13383  1.0000
  C   C544      1.0  0.69713  0.21989  0.11710  1.0000
  H   H633      1.0  0.68531  0.29669  0.16611  1.0000
  H   H634      1.0  0.67757  0.29814  0.20363  1.0000
  H   H635      1.0  0.70241  0.28248  0.19424  1.0000
  H   H636      1.0  0.64871  0.28178  0.15173  1.0000
  H   H637      1.0  0.64138  0.28579  0.18965  1.0000
  H   H638      1.0  0.63764  0.25939  0.17226  1.0000
  H   H639      1.0  0.66531  0.26686  0.22934  1.0000
  H   H640      1.0  0.65965  0.24103  0.21191  1.0000
  H   H641      1.0  0.68800  0.24815  0.21870  1.0000
  H   H642      1.0  0.70890  0.27029  0.14563  1.0000
  H   H643      1.0  0.65685  0.22514  0.16774  1.0000
  H   H644      1.0  0.72202  0.24373  0.10876  1.0000
  H   H645      1.0  0.67046  0.19930  0.13013  1.0000
  H   H646      1.0  0.70308  0.20824  0.10040  1.0000
  C   C545      1.0  0.62680  0.08343  0.40254  1.0000
  H   H647      1.0  0.61862  0.07643  0.38261  1.0000
  H   H648      1.0  0.52501  0.15818  0.03376  1.0000
  H   H649      1.0  0.62908  0.10398  0.45444  1.0000
  N   N37       1.0  0.55357  0.18424  0.18424  1.0000
  C   C546      1.0  0.55822  0.20663  0.17236  1.0000
  C   C547      1.0  0.54056  0.18788  0.21148  1.0000
  C   C548      1.0  0.57496  0.17257  0.19279  1.0000
  C   C549      1.0  0.54215  0.17081  0.16154  1.0000
  C   C550      1.0  0.63511  0.28759  0.33111  1.0000
  H   H650      1.0  0.63123  0.32695  0.30444  1.0000
  H   H651      1.0  0.57792  0.01015  0.44199  1.0000
  C   C551      1.0  0.54243  0.15288  0.11276  1.0000
  H   H652      1.0  0.64902  0.31189  0.37862  1.0000
  H   H653      1.0  0.62166  0.32378  0.38624  1.0000
  C   C552      1.0  0.52238  0.14304  0.11846  1.0000
  H   H654      1.0  0.57223  0.15577  0.20223  1.0000
  H   H655      1.0  0.92822  0.32975  0.43051  1.0000
  Fe  Fe72      1.0  0.61060  0.14609  0.48042  1.0000
  H   H656      1.0  0.51244  0.20783  0.10976  1.0000
  C   C553      1.0  0.61979  0.04389  0.01727  1.0000
  H   H657      1.0  0.56820  0.17317  0.12861  1.0000
  H   H658      1.0  0.62727  0.29403  0.38751  1.0000
  H   H659      1.0  0.51140  0.09598  0.49985  1.0000
  H   H660      1.0  0.63093  0.28611  0.30729  1.0000
  C   C554      1.0  0.52397  0.02186  0.01169  1.0000
  H   H661      1.0  0.54191  0.02245  0.01047  1.0000
  C   C555      1.0  0.78488  0.33202  0.40051  1.0000
  H   H662      1.0  0.55479  0.33115  0.30258  1.0000
  H   H663      1.0  0.73379  0.33295  0.34057  1.0000
  Fe  Fe73      1.0  0.61384  0.14746  0.54802  1.0000
  C   C556      1.0  0.65933  0.12899  0.87161  1.0000
  S   S145      1.0  0.63403  0.15864  0.58784  1.0000
  C   C557      1.0  0.52236  0.12925  0.50797  1.0000
  H   H664      1.0  0.54335  0.15837  0.59283  1.0000
  C   C558      1.0  0.51158  0.14287  0.59148  1.0000
  Fe  Fe74      1.0  0.58934  0.13919  0.98210  1.0000
  S   S146      1.0  0.58072  0.14796  0.93420  1.0000
  C   C559      1.0  0.51656  0.22637  0.90293  1.0000
  H   H665      1.0  0.55963  0.26692  0.86567  1.0000
  H   H666      1.0  0.66693  0.10962  0.90989  1.0000
  S   S147      1.0  0.58164  0.13029  0.55355  1.0000
  Fe  Fe75      1.0  0.61370  0.22369  0.80075  1.0000
  S   S148      1.0  0.60381  0.25992  0.80894  1.0000
  S   S149      1.0  0.63087  0.20423  0.83857  1.0000
  Fe  Fe76      1.0  0.59724  0.22568  0.73653  1.0000
  S   S150      1.0  0.58616  0.26185  0.74131  1.0000
  S   S151      1.0  0.58564  0.21151  0.69245  1.0000
  Fe  Fe77      1.0  0.61910  0.26669  0.76487  1.0000
  S   S152      1.0  0.63736  0.29746  0.74813  1.0000
  Fe  Fe78      1.0  0.57214  0.25187  0.78436  1.0000
  S   S153      1.0  0.53805  0.26205  0.80272  1.0000
  S   S154      1.0  0.63088  0.23073  0.75791  1.0000
  S   S155      1.0  0.58128  0.21540  0.77874  1.0000
  H   H667      1.0  0.59134  0.10006  0.92294  1.0000
  H   H668      1.0  0.66447  0.27490  0.65439  1.0000
  C   C560      1.0  0.51395  0.24821  0.75387  1.0000
  C   C561      1.0  0.54010  0.22286  0.90456  1.0000
  H   H669      1.0  0.52986  0.24430  0.74386  1.0000
  C   C562      1.0  0.64326  0.13594  0.85077  1.0000
  C   C563      1.0  0.53443  0.19570  0.94405  1.0000
  H   H670      1.0  0.54139  0.18336  0.95955  1.0000
  H   H671      1.0  0.65884  0.07407  0.92380  1.0000
  C   C564      1.0  0.67832  0.30362  0.77750  1.0000
  H   H672      1.0  0.92782  0.31714  0.51137  1.0000
  H   H673      1.0  0.64184  0.25876  0.70808  1.0000
  H   H674      1.0  0.67581  0.28795  0.78854  1.0000
  S   S156      1.0  0.62676  0.12249  0.51418  1.0000
  C   C565      1.0  0.59531  0.16343  0.90808  1.0000
  C   C566      1.0  0.61623  0.17190  0.91420  1.0000
  C   C567      1.0  0.62704  0.18419  0.89260  1.0000
  C   C568      1.0  0.61695  0.18833  0.86486  1.0000
  C   C569      1.0  0.59615  0.17961  0.85866  1.0000
  C   C570      1.0  0.58537  0.16729  0.88020  1.0000
  H   H675      1.0  0.62412  0.16899  0.93551  1.0000
  H   H676      1.0  0.64324  0.19070  0.89747  1.0000
  H   H677      1.0  0.58849  0.18222  0.83716  1.0000
  H   H678      1.0  0.56927  0.16061  0.87519  1.0000
  C   C571      1.0  0.62033  0.17236  0.61753  1.0000
  C   C572      1.0  0.59758  0.17833  0.61587  1.0000
  C   C573      1.0  0.58734  0.19023  0.63911  1.0000
  C   C574      1.0  0.59962  0.19608  0.66440  1.0000
  C   C575      1.0  0.62231  0.18983  0.66630  1.0000
  C   C576      1.0  0.63263  0.17814  0.64286  1.0000
  H   H679      1.0  0.58798  0.17414  0.59642  1.0000
  H   H680      1.0  0.56986  0.19517  0.63732  1.0000
  H   H681      1.0  0.63192  0.19394  0.68575  1.0000
  H   H682      1.0  0.65022  0.17355  0.64431  1.0000
  H   H683      1.0  0.53583  0.22490  0.84481  1.0000
  C   C577      1.0  0.54775  0.25804  0.87969  1.0000
  H   H684      1.0  0.54265  0.16518  0.64660  1.0000
  H   H685      1.0  0.53151  0.26052  0.86782  1.0000
  H   H686      1.0  0.59332  0.22740  0.58542  1.0000
  H   H687      1.0  0.58065  0.24048  0.91544  1.0000
  C   C578      1.0  0.60121  0.04190  0.99859  1.0000
  H   H688      1.0  0.56462  0.22934  0.83864  1.0000
  S   S157      1.0  0.57880  0.10491  0.99477  1.0000
  C   C579      1.0  0.64086  0.07080  0.92094  1.0000
  H   H689      1.0  0.58898  0.24266  0.87772  1.0000
  C   C580      1.0  0.57848  0.23327  0.89304  1.0000
  C   C581      1.0  0.62182  0.12806  0.85213  1.0000
  H   H690      1.0  0.62789  0.20926  0.56665  1.0000
  C   C582      1.0  0.55284  0.22264  0.85476  1.0000
  C   C583      1.0  0.50258  0.21546  0.92204  1.0000
  H   H691      1.0  0.56611  0.20213  0.92751  1.0000
  N   N38       1.0  0.55463  0.23403  0.88358  1.0000
  H   H692      1.0  0.50871  0.23730  0.88657  1.0000
  S   S158      1.0  0.58221  0.07089  0.51447  1.0000
  H   H693      1.0  0.64727  0.14785  0.83386  1.0000
  H   H694      1.0  0.60930  0.13387  0.83612  1.0000
  C   C584      1.0  0.54859  0.20678  0.92538  1.0000
  H   H695      1.0  0.54676  0.26686  0.90123  1.0000
  H   H696      1.0  0.55654  0.20437  0.85683  1.0000
  H   H697      1.0  0.66392  0.21553  0.59143  1.0000
  H   H698      1.0  0.59399  0.25117  0.62859  1.0000
  C   C585      1.0  0.58314  0.02489  0.51244  1.0000
  Fe  Fe79      1.0  0.59324  0.10715  0.51707  1.0000
  H   H699      1.0  0.58593  0.21602  0.89301  1.0000
  C   C586      1.0  0.52922  0.15335  0.60552  1.0000
  C   C587      1.0  0.59611  0.04396  0.51342  1.0000
  H   H700      1.0  0.63874  0.06165  0.89979  1.0000
  H   H701      1.0  0.59254  0.05676  0.99014  1.0000
  N   N39       1.0  0.63173  0.26262  0.66263  1.0000
  C   C588      1.0  0.60992  0.27288  0.67158  1.0000
  C   C589      1.0  0.64046  0.24871  0.68751  1.0000
  H   H702      1.0  0.74483  0.32508  0.91416  1.0000
  H   H703      1.0  0.53906  0.12347  0.51410  1.0000
  H   H704      1.0  0.64856  0.10700  0.95324  1.0000
  H   H705      1.0  0.76502  0.32655  0.96080  1.0000
  C   C590      1.0  0.51626  0.15204  0.50898  1.0000
  N   N40       1.0  0.62660  0.09166  0.92138  1.0000
  C   C591      1.0  0.51326  0.25701  0.78237  1.0000
  C   C592      1.0  0.51150  0.20019  0.94262  1.0000
  H   H706      1.0  0.60244  0.28393  0.65409  1.0000
  H   H707      1.0  0.63674  0.05930  0.93920  1.0000
  H   H708      1.0  0.62924  0.23477  0.69182  1.0000
  H   H709      1.0  0.65732  0.24115  0.68348  1.0000
  C   C593      1.0  0.63034  0.24863  0.63575  1.0000
  H   H710      1.0  0.50524  0.19082  0.84570  1.0000
  H   H711      1.0  0.62116  0.11990  0.94971  1.0000
  C   C594      1.0  0.69789  0.31546  0.78326  1.0000
  C   C595      1.0  0.60916  0.23089  0.59591  1.0000
  C   C596      1.0  0.63212  0.10629  0.89649  1.0000
  H   H712      1.0  0.64730  0.01720  0.50928  1.0000
  C   C597      1.0  0.65396  0.11428  0.89404  1.0000
  H   H713      1.0  0.59944  0.07419  0.94017  1.0000
  H   H714      1.0  0.61162  0.28340  0.69175  1.0000
  C   C598      1.0  0.61615  0.11360  0.87470  1.0000
  H   H715      1.0  0.59874  0.07563  0.90088  1.0000
  H   H716      1.0  0.77633  0.31968  0.84494  1.0000
  H   H717      1.0  0.58034  0.01942  0.97479  1.0000
  H   H718      1.0  0.67593  0.13538  0.87060  1.0000
  C   C599      1.0  0.64705  0.28109  0.65803  1.0000
  C   C600      1.0  0.59422  0.02061  0.99006  1.0000
  H   H719      1.0  0.51025  0.15434  0.67532  1.0000
  C   C601      1.0  0.64989  0.23803  0.62411  1.0000
  C   C602      1.0  0.63071  0.10354  0.94944  1.0000
  H   H720      1.0  0.66599  0.23989  0.63455  1.0000
  H   H721      1.0  0.62570  0.09362  0.96879  1.0000
  C   C603      1.0  0.62864  0.22066  0.58522  1.0000
  H   H722      1.0  0.64158  0.29147  0.63873  1.0000
  C   C604      1.0  0.52879  0.15728  0.63571  1.0000
  H   H723      1.0  0.59899  0.10895  0.87502  1.0000
  C   C605      1.0  0.51053  0.15106  0.65185  1.0000
  C   C606      1.0  0.60984  0.24457  0.62090  1.0000
  C   C607      1.0  0.60299  0.08513  0.92113  1.0000
  H   H724      1.0  0.59791  0.25984  0.67705  1.0000
  Fe  Fe80      1.0  0.56944  0.15360  0.51779  1.0000
  C   C608      1.0  0.64895  0.22419  0.59931  1.0000
  C   C609      1.0  0.66222  0.31194  0.75723  1.0000
  H   H725      1.0  0.56518  0.02693  0.51308  1.0000
  H   H726      1.0  0.64775  0.29234  0.67767  1.0000
  S   S159      1.0  0.53581  0.17129  0.52002  1.0000
  C   C610      1.0  0.66608  0.33233  0.74301  1.0000
  H   H727      1.0  0.71022  0.30858  0.79870  1.0000
  H   H728      1.0  0.73852  0.31562  0.86557  1.0000
  S   S160      1.0  0.60084  0.17229  0.51403  1.0000
  C   C611      1.0  0.60521  0.00095  0.00076  1.0000
  C   C612      1.0  0.59314  0.00317  0.51038  1.0000
  H   H729      1.0  0.51093  0.20456  0.62022  1.0000
  H   H730      1.0  0.51273  0.14042  0.56802  1.0000
  H   H731      1.0  0.50114  0.19278  0.56959  1.0000
  C   C613      1.0  0.62935  0.01928  0.51026  1.0000
  H   H732      1.0  0.62965  0.05535  0.51405  1.0000
  C   C614      1.0  0.61935  0.04099  0.51272  1.0000
  H   H733      1.0  0.50066  0.19162  0.95730  1.0000
  C   C615      1.0  0.61634  0.00024  0.50893  1.0000
  Fe  Fe81      1.0  0.88894  0.62885  0.03557  1.0000
  H   H734      1.0  0.72560  0.60395  0.28959  1.0000
  S   S161      1.0  0.87875  0.64056  0.08152  1.0000
  H   H735      1.0  0.84430  0.64675  0.03598  1.0000
  S   S162      1.0  0.90692  0.60092  0.44561  1.0000
  H   H736      1.0  0.83863  0.58415  0.35938  1.0000
  Fe  Fe82      1.0  0.87547  0.61583  0.46451  1.0000
  S   S163      1.0  0.84465  0.62678  0.43735  1.0000
  H   H737      1.0  0.74293  0.36977  0.32733  1.0000
  C   C616      1.0  0.81140  0.62445  0.01031  1.0000
  H   H738      1.0  0.83847  0.52119  0.42100  1.0000
  S   S164      1.0  0.92302  0.61267  0.02875  1.0000
  H   H739      1.0  0.68816  0.36637  0.24389  1.0000
  S   S165      1.0  0.88213  0.43123  0.06090  1.0000
  H   H740      1.0  0.76799  0.38738  0.39591  1.0000
  Fe  Fe83      1.0  0.86386  0.39556  0.48520  1.0000
  C   C617      1.0  0.85863  0.53807  0.08475  1.0000
  S   S166      1.0  0.85839  0.38035  0.43993  1.0000
  Fe  Fe84      1.0  0.86384  0.40049  0.04857  1.0000
  S   S167      1.0  0.84229  0.38040  0.07879  1.0000
  S   S168      1.0  0.88960  0.42124  0.49423  1.0000
  S   S169      1.0  0.94480  0.42705  0.03781  1.0000
  H   H741      1.0  0.92231  0.54926  0.10779  1.0000
  C   C618      1.0  0.77754  0.65492  0.10240  1.0000
  Fe  Fe85      1.0  0.77716  0.41304  0.30375  1.0000
  S   S170      1.0  0.74072  0.41498  0.29068  1.0000
  S   S171      1.0  0.78605  0.42380  0.35054  1.0000
  Fe  Fe86      1.0  0.79147  0.40084  0.24053  1.0000
  S   S172      1.0  0.75605  0.40123  0.22359  1.0000
  S   S173      1.0  0.82380  0.39910  0.21477  1.0000
  Fe  Fe87      1.0  0.75193  0.43314  0.25038  1.0000
  S   S174      1.0  0.73853  0.46535  0.22827  1.0000
  Fe  Fe88      1.0  0.74780  0.38288  0.26548  1.0000
  H   H742      1.0  0.89409  0.47847  0.02990  1.0000
  S   S175      1.0  0.78749  0.43328  0.26532  1.0000
  S   S176      1.0  0.78410  0.38041  0.28059  1.0000
  Fe  Fe89      1.0  0.80490  0.62540  0.26940  1.0000
  S   S177      1.0  0.77085  0.62313  0.28762  1.0000
  S   S178      1.0  0.83645  0.62950  0.29715  1.0000
  Fe  Fe90      1.0  0.78796  0.61924  0.20615  1.0000
  S   S179      1.0  0.75208  0.61669  0.22044  1.0000
  S   S180      1.0  0.79563  0.61295  0.15753  1.0000
  Fe  Fe91      1.0  0.75871  0.64588  0.25053  1.0000
  C   C619      1.0  0.91851  0.36266  0.46789  1.0000
  Fe  Fe92      1.0  0.76675  0.59433  0.25628  1.0000
  S   S181      1.0  0.75248  0.56376  0.27771  1.0000
  S   S182      1.0  0.79360  0.64988  0.23386  1.0000
  S   S183      1.0  0.80184  0.59510  0.24044  1.0000
  C   C620      1.0  0.79852  0.35358  0.44168  1.0000
  C   C621      1.0  0.74484  0.49236  0.24170  1.0000
  C   C622      1.0  0.74269  0.51087  0.22265  1.0000
  C   C623      1.0  0.74641  0.53272  0.23292  1.0000
  C   C624      1.0  0.75163  0.53635  0.26263  1.0000
  C   C625      1.0  0.75395  0.51782  0.28161  1.0000
  C   C626      1.0  0.75098  0.49591  0.27113  1.0000
  H   H743      1.0  0.73778  0.50834  0.19992  1.0000
  H   H744      1.0  0.74426  0.54681  0.21813  1.0000
  H   H745      1.0  0.75769  0.52043  0.30470  1.0000
  H   H746      1.0  0.75257  0.48185  0.28609  1.0000
  N   N41       1.0  0.84947  0.55057  0.39870  1.0000
  C   C627      1.0  0.83660  0.38710  0.11609  1.0000
  C   C628      1.0  0.81748  0.37886  0.12909  1.0000
  C   C629      1.0  0.81287  0.38302  0.15899  1.0000
  C   C630      1.0  0.82774  0.39490  0.17644  1.0000
  C   C631      1.0  0.84680  0.40321  0.16340  1.0000
  C   C632      1.0  0.85103  0.39967  0.13330  1.0000
  S   S184      1.0  0.84408  0.41685  0.01138  1.0000
  H   H747      1.0  0.83470  0.58268  0.41122  1.0000
  H   H748      1.0  0.85851  0.41226  0.17672  1.0000
  H   H749      1.0  0.86584  0.40601  0.12364  1.0000
  C   C633      1.0  0.83900  0.39308  0.41460  1.0000
  C   C634      1.0  0.82673  0.41265  0.42180  1.0000
  C   C635      1.0  0.81086  0.42197  0.40169  1.0000
  C   C636      1.0  0.80722  0.41200  0.37409  1.0000
  C   C637      1.0  0.81973  0.39262  0.36664  1.0000
  C   C638      1.0  0.83550  0.38316  0.38689  1.0000
  H   H750      1.0  0.82928  0.42048  0.44300  1.0000
  H   H751      1.0  0.80123  0.43694  0.40763  1.0000
  H   H752      1.0  0.81718  0.38487  0.34541  1.0000
  H   H753      1.0  0.84496  0.36806  0.38110  1.0000
  H   H754      1.0  0.86577  0.65121  0.14066  1.0000
  H   H755      1.0  0.71291  0.58549  0.24652  1.0000
  H   H756      1.0  0.99218  0.37800  0.07050  1.0000
  C   C639      1.0  0.96200  0.40156  0.49868  1.0000
  C   C640      1.0  0.85950  0.62747  0.34993  1.0000
  C   C641      1.0  0.84281  0.62733  0.39834  1.0000
  C   C642      1.0  0.82163  0.62830  0.38455  1.0000
  C   C643      1.0  0.81937  0.62857  0.35363  1.0000
  C   C644      1.0  0.83833  0.62837  0.33613  1.0000
  H   H757      1.0  0.81536  0.58282  0.31499  1.0000
  H   H758      1.0  0.80389  0.51361  0.33031  1.0000
  H   H759      1.0  0.80688  0.62866  0.39790  1.0000
  H   H760      1.0  0.80298  0.62893  0.34341  1.0000
  H   H761      1.0  0.79760  0.54779  0.30034  1.0000
  C   C645      1.0  0.85618  0.63173  0.10290  1.0000
  C   C646      1.0  0.84053  0.61711  0.09174  1.0000
  C   C647      1.0  0.82219  0.61151  0.10881  1.0000
  C   C648      1.0  0.81961  0.61986  0.13758  1.0000
  C   C649      1.0  0.83564  0.63393  0.14911  1.0000
  C   C650      1.0  0.85370  0.63996  0.13174  1.0000
  H   H762      1.0  0.84236  0.61036  0.06985  1.0000
  H   H763      1.0  0.80985  0.60070  0.09962  1.0000
  H   H764      1.0  0.83388  0.64052  0.17117  1.0000
  C   C651      1.0  0.77388  0.35128  0.38791  1.0000
  Fe  Fe93      1.0  0.92492  0.61798  0.48269  1.0000
  C   C652      1.0  0.85945  0.52231  0.00903  1.0000
  H   H765      1.0  0.78887  0.38850  0.44172  1.0000
  H   H766      1.0  0.90463  0.53304  0.08566  1.0000
  C   C653      1.0  0.89141  0.57495  0.07651  1.0000
  C   C654      1.0  0.67673  0.64890  0.27293  1.0000
  N   N42       1.0  0.88838  0.56278  0.10438  1.0000
  H   H767      1.0  0.62090  0.63126  0.23758  1.0000
  C   C655      1.0  0.79929  0.65135  0.04750  1.0000
  C   C656      1.0  0.89051  0.49832  0.47195  1.0000
  C   C657      1.0  0.95413  0.34335  0.47762  1.0000
  H   H768      1.0  0.95868  0.52269  0.45964  1.0000
  Fe  Fe94      1.0  0.90813  0.41937  0.02813  1.0000
  H   H769      1.0  0.92139  0.37542  0.48522  1.0000
  H   H770      1.0  0.96673  0.54582  0.00703  1.0000
  Fe  Fe95      1.0  0.90294  0.57362  0.47836  1.0000
  S   S185      1.0  0.95692  0.63559  0.47308  1.0000
  C   C658      1.0  0.80819  0.54813  0.31992  1.0000
  H   H771      1.0  0.75080  0.63803  0.08128  1.0000
  H   H772      1.0  0.91109  0.58367  0.12823  1.0000
  H   H773      1.0  0.90186  0.53266  0.12503  1.0000
  C   C659      1.0  0.84904  0.56323  0.12480  1.0000
  C   C660      1.0  0.87136  0.55998  0.39214  1.0000
  H   H774      1.0  0.82990  0.44660  0.06184  1.0000
  H   H775      1.0  0.87815  0.62606  0.39114  1.0000
  C   C661      1.0  0.97593  0.52707  0.46268  1.0000
  H   H776      1.0  0.87427  0.62731  0.33661  1.0000
  H   H777      1.0  0.73172  0.33949  0.37918  1.0000
  H   H778      1.0  0.87984  0.58990  0.07487  1.0000
  S   S186      1.0  0.87049  0.60292  0.01063  1.0000
  H   H779      1.0  0.80477  0.66442  0.31441  1.0000
  H   H780      1.0  0.93307  0.48313  0.50207  1.0000
  H   H781      1.0  0.98274  0.40713  0.46126  1.0000
  H   H782      1.0  0.70331  0.61048  0.22732  1.0000
  H   H783      1.0  0.76491  0.38374  0.34526  1.0000
  C   C662      1.0  0.80928  0.66200  0.07216  1.0000
  H   H784      1.0  0.88826  0.56434  0.05692  1.0000
  C   C663      1.0  0.79845  0.66370  0.09910  1.0000
  C   C664      1.0  0.98255  0.40349  0.48456  1.0000
  C   C665      1.0  0.85401  0.52860  0.41327  1.0000
  H   H785      1.0  0.81925  0.61385  0.02800  1.0000
  C   C666      1.0  0.83158  0.56841  0.35363  1.0000
  H   H786      1.0  0.89132  0.57025  0.15072  1.0000
  C   C667      1.0  0.77743  0.34121  0.33646  1.0000
  C   C668      1.0  0.89793  0.53303  0.01047  1.0000
  C   C669      1.0  0.97498  0.39571  0.01306  1.0000
  C   C670      1.0  0.86542  0.55464  0.10504  1.0000
  H   H787      1.0  0.65039  0.60279  0.24789  1.0000
  H   H788      1.0  0.68479  0.58827  0.23351  1.0000
  S   S187      1.0  0.72980  0.34983  0.27380  1.0000
  H   H789      1.0  0.82724  0.51378  0.37440  1.0000
  H   H790      1.0  0.81502  0.56273  0.13910  1.0000
  C   C671      1.0  0.77538  0.37169  0.40383  1.0000
  H   H791      1.0  0.65203  0.34852  0.23463  1.0000
  C   C672      1.0  0.76705  0.64491  0.07852  1.0000
  C   C673      1.0  0.98418  0.62653  0.48487  1.0000
  C   C674      1.0  0.88881  0.49515  0.02285  1.0000
  H   H792      1.0  0.88300  0.59401  0.12776  1.0000
  H   H793      1.0  0.94660  0.40416  0.48631  1.0000
  C   C675      1.0  0.89358  0.57827  0.12895  1.0000
  H   H794      1.0  0.79200  0.35207  0.33493  1.0000
  H   H795      1.0  0.92444  0.36940  0.44681  1.0000
  C   C676      1.0  0.70330  0.33795  0.26653  1.0000
  N   N43       1.0  0.79778  0.45926  0.17112  1.0000
  C   C677      1.0  0.78551  0.48124  0.17317  1.0000
  C   C678      1.0  0.78240  0.44197  0.18060  1.0000
  C   C679      1.0  0.81689  0.45895  0.19227  1.0000
  C   C680      1.0  0.80606  0.45571  0.14089  1.0000
  C   C681      1.0  0.82087  0.47089  0.12853  1.0000
  C   C682      1.0  0.80019  0.43714  0.12317  1.0000
  C   C683      1.0  0.82932  0.46760  0.10028  1.0000
  C   C684      1.0  0.80870  0.43409  0.09495  1.0000
  C   C685      1.0  0.82320  0.44925  0.08358  1.0000
  H   H796      1.0  0.77863  0.48403  0.19557  1.0000
  H   H797      1.0  0.79623  0.49549  0.16882  1.0000
  H   H798      1.0  0.77118  0.48224  0.15729  1.0000
  H   H799      1.0  0.76711  0.44180  0.16645  1.0000
  H   H800      1.0  0.77669  0.44501  0.20341  1.0000
  H   H801      1.0  0.79067  0.42500  0.18075  1.0000
  H   H802      1.0  0.82801  0.47304  0.18889  1.0000
  H   H803      1.0  0.81129  0.45999  0.21550  1.0000
  H   H804      1.0  0.82723  0.44317  0.19021  1.0000
  H   H805      1.0  0.82629  0.48522  0.14078  1.0000
  H   H806      1.0  0.78947  0.42438  0.13074  1.0000
  H   H807      1.0  0.84090  0.47907  0.09123  1.0000
  H   H808      1.0  0.80458  0.41946  0.08208  1.0000
  C   C686      1.0  0.82734  0.55555  0.12417  1.0000
  C   C687      1.0  0.82529  0.52928  0.36231  1.0000
  H   H809      1.0  0.82126  0.55909  0.42569  1.0000
  H   H810      1.0  0.86985  0.57784  0.38541  1.0000
  H   H811      1.0  0.80439  0.53352  0.10330  1.0000
  S   S188      1.0  0.90920  0.53838  0.46281  1.0000
  H   H812      1.0  0.90014  0.36126  0.46521  1.0000
  H   H813      1.0  0.88277  0.55957  0.41177  1.0000
  H   H814      1.0  0.87988  0.55040  0.37425  1.0000
  H   H815      1.0  0.84767  0.56728  0.44078  1.0000
  C   C688      1.0  0.90492  0.54360  0.10585  1.0000
  C   C689      1.0  0.83377  0.65608  0.01936  1.0000
  H   H816      1.0  0.89827  0.49295  0.45167  1.0000
  C   C690      1.0  0.86175  0.62671  0.38085  1.0000
  H   H817      1.0  0.73950  0.37869  0.36446  1.0000
  C   C691      1.0  0.68583  0.34953  0.25157  1.0000
  H   H818      1.0  0.98797  0.44539  0.04373  1.0000
  H   H819      1.0  0.87002  0.53099  0.06877  1.0000
  C   C692      1.0  0.98916  0.35103  0.45307  1.0000
  S   S189      1.0  0.87019  0.58705  0.49520  1.0000
  C   C693      1.0  0.98092  0.54891  0.47013  1.0000
  C   C694      1.0  0.87787  0.48343  0.48775  1.0000
  H   H820      1.0  0.80628  0.36905  0.11598  1.0000
  C   C695      1.0  0.82129  0.53923  0.10396  1.0000
  H   H821      1.0  0.87577  0.46669  0.47955  1.0000
  C   C696      1.0  0.96674  0.34062  0.50427  1.0000
  C   C697      1.0  0.83691  0.53051  0.08426  1.0000
  C   C698      1.0  0.78745  0.37265  0.43036  1.0000
  C   C699      1.0  0.75187  0.37143  0.34881  1.0000
  H   H822      1.0  0.85235  0.57624  0.14061  1.0000
  C   C700      1.0  0.81814  0.56784  0.32823  1.0000
  H   H823      1.0  0.90869  0.58077  0.07462  1.0000
  H   H824      1.0  0.92212  0.50708  0.02329  1.0000
  H   H825      1.0  0.83218  0.51799  0.06821  1.0000
  H   H826      1.0  0.86487  0.53022  0.43320  1.0000
  H   H827      1.0  0.95757  0.35194  0.43126  1.0000
  S   S190      1.0  0.84650  0.48049  0.02299  1.0000
  N   N44       1.0  0.81054  0.64845  0.01890  1.0000
  N   N45       1.0  0.76184  0.34968  0.35929  1.0000
  H   H828      1.0  0.79825  0.37637  0.16875  1.0000
  H   H829      1.0  0.86283  0.51653  0.39835  1.0000
  C   C701      1.0  0.99028  0.42940  0.03277  1.0000
  C   C702      1.0  0.81176  0.52890  0.33689  1.0000
  C   C703      1.0  0.83777  0.56550  0.42002  1.0000
  C   C704      1.0  0.83567  0.54918  0.37144  1.0000
  N   N46       1.0  0.69211  0.60847  0.27186  1.0000
  C   C705      1.0  0.71255  0.61742  0.28548  1.0000
  C   C706      1.0  0.68419  0.59104  0.29190  1.0000
  C   C707      1.0  0.69850  0.59773  0.24360  1.0000
  C   C708      1.0  0.67419  0.62584  0.26642  1.0000
  C   C709      1.0  0.65350  0.61994  0.25362  1.0000
  C   C710      1.0  0.90465  0.51136  0.01920  1.0000
  H   H830      1.0  0.98917  0.49397  0.45319  1.0000
  C   C711      1.0  0.77762  0.64329  0.05136  1.0000
  S   S191      1.0  0.89356  0.63573  0.49927  1.0000
  H   H831      1.0  0.70912  0.62541  0.30715  1.0000
  Fe  Fe96      1.0  0.86401  0.44662  0.02202  1.0000
  H   H832      1.0  0.72007  0.62991  0.27094  1.0000
  H   H833      1.0  0.67859  0.59854  0.31310  1.0000
  H   H834      1.0  0.69764  0.57809  0.29700  1.0000
  H   H835      1.0  0.67008  0.58190  0.28225  1.0000
  H   H836      1.0  0.97318  0.62870  0.02217  1.0000
  H   H837      1.0  0.96750  0.56147  0.47278  1.0000
  C   C712      1.0  0.89313  0.52007  0.48242  1.0000
  N   N47       1.0  0.92969  0.34090  0.47589  1.0000
  C   C713      1.0  0.86623  0.50063  0.01779  1.0000
  S   S192      1.0  0.89113  0.38706  0.01860  1.0000
  H   H838      1.0  0.76881  0.63536  0.03353  1.0000
  C   C714      1.0  0.74349  0.33398  0.36169  1.0000
  H   H839      1.0  0.76967  0.65547  0.12371  1.0000
  C   C715      1.0  0.97163  0.41648  0.02690  1.0000
  C   C716      1.0  0.66528  0.33931  0.24637  1.0000
  H   H840      1.0  0.80849  0.35468  0.46174  1.0000
  H   H841      1.0  0.76918  0.34077  0.31429  1.0000
  C   C717      1.0  0.98702  0.63273  0.00852  1.0000
  H   H842      1.0  0.96102  0.38520  0.00934  1.0000
  C   C718      1.0  0.96606  0.34887  0.45209  1.0000
  C   C719      1.0  0.63651  0.63609  0.24758  1.0000
  H   H843      1.0  0.69187  0.65520  0.28235  1.0000
  C   C720      1.0  0.79711  0.33325  0.42691  1.0000
  C   C721      1.0  0.99312  0.51098  0.45891  1.0000
  C   C722      1.0  0.63960  0.65853  0.25412  1.0000
  H   H844      1.0  0.59467  0.33463  0.30800  1.0000
  S   S193      1.0  0.91802  0.55314  0.00760  1.0000
  C   C723      1.0  0.65960  0.66487  0.26686  1.0000
  H   H845      1.0  0.62671  0.34379  0.33706  1.0000
  H   H846      1.0  0.99591  0.41270  0.09909  1.0000
  C   C724      1.0  0.92009  0.33345  0.50397  1.0000
  C   C725      1.0  0.98986  0.34272  0.50492  1.0000
  Fe  Fe97      1.0  0.89048  0.60562  0.52854  1.0000
  C   C726      1.0  0.80843  0.56304  0.55940  1.0000
  S   S194      1.0  0.88659  0.60522  0.57859  1.0000
  C   C727      1.0  0.70170  0.33592  0.76915  1.0000
  S   S195      1.0  0.90807  0.60666  0.95879  1.0000
  H   H847      1.0  0.97755  0.44077  0.52755  1.0000
  Fe  Fe98      1.0  0.87559  0.62410  0.97045  1.0000
  S   S196      1.0  0.84619  0.63494  0.94049  1.0000
  Fe  Fe99      1.0  0.90466  0.58823  0.00119  1.0000
  H   H848      1.0  0.77530  0.56675  0.57503  1.0000
  C   C728      1.0  0.96972  0.57304  0.97692  1.0000
  H   H849      1.0  0.93938  0.44376  0.51965  1.0000
  C   C729      1.0  0.97029  0.66115  0.55541  1.0000
  S   S197      1.0  0.87732  0.41597  0.56445  1.0000
  H   H850      1.0  0.92453  0.43981  0.94274  1.0000
  H   H851      1.0  0.68083  0.59225  0.75086  1.0000
  C   C730      1.0  0.96160  0.39578  0.52847  1.0000
  S   S198      1.0  0.86900  0.39330  0.93546  1.0000
  Fe  Fe100     1.0  0.85226  0.39121  0.55061  1.0000
  S   S199      1.0  0.82680  0.37588  0.57990  1.0000
  C   C731      1.0  0.69911  0.63270  0.79655  1.0000
  H   H852      1.0  0.91254  0.38754  0.90654  1.0000
  C   C732      1.0  0.86794  0.49033  0.51403  1.0000
  H   H853      1.0  0.90511  0.42410  0.92255  1.0000
  Fe  Fe101     1.0  0.77666  0.41152  0.80681  1.0000
  S   S200      1.0  0.74008  0.41364  0.79516  1.0000
  S   S201      1.0  0.78470  0.42103  0.85430  1.0000
  Fe  Fe102     1.0  0.78894  0.40058  0.74311  1.0000
  S   S202      1.0  0.75323  0.40169  0.72700  1.0000
  S   S203      1.0  0.82066  0.39791  0.71665  1.0000
  Fe  Fe103     1.0  0.75020  0.43286  0.75533  1.0000
  S   S204      1.0  0.73093  0.46487  0.74174  1.0000
  Fe  Fe104     1.0  0.74594  0.38221  0.76837  1.0000
  S   S205      1.0  0.89100  0.43767  0.99025  1.0000
  S   S206      1.0  0.78603  0.43281  0.76879  1.0000
  S   S207      1.0  0.78238  0.37916  0.78256  1.0000
  Fe  Fe105     1.0  0.80356  0.61929  0.77312  1.0000
  S   S208      1.0  0.76701  0.61754  0.78236  1.0000
  S   S209      1.0  0.83205  0.60938  0.80512  1.0000
  Fe  Fe106     1.0  0.79533  0.62933  0.70757  1.0000
  S   S210      1.0  0.75809  0.62858  0.71268  1.0000
  S   S211      1.0  0.80472  0.63600  0.65981  1.0000
  Fe  Fe107     1.0  0.76234  0.64856  0.75409  1.0000
  H   H854      1.0  0.73865  0.37866  0.86998  1.0000
  Fe  Fe108     1.0  0.76524  0.59786  0.74029  1.0000
  S   S212      1.0  0.74049  0.57058  0.73309  1.0000
  C   C733      1.0  0.90340  0.65159  0.83567  1.0000
  S   S213      1.0  0.80197  0.59728  0.73259  1.0000
  H   H855      1.0  0.68808  0.35991  0.73786  1.0000
  C   C734      1.0  0.73592  0.49393  0.73976  1.0000
  C   C735      1.0  0.75705  0.50317  0.74269  1.0000
  C   C736      1.0  0.75920  0.52672  0.74059  1.0000
  C   C737      1.0  0.74021  0.54093  0.73571  1.0000
  C   C738      1.0  0.71944  0.53143  0.73243  1.0000
  C   C739      1.0  0.71733  0.50828  0.73439  1.0000
  H   H856      1.0  0.77163  0.49225  0.74636  1.0000
  H   H857      1.0  0.77542  0.53381  0.74286  1.0000
  H   H858      1.0  0.70468  0.54207  0.72842  1.0000
  H   H859      1.0  0.70101  0.50141  0.73184  1.0000
  H   H860      1.0  0.94539  0.62718  0.57436  1.0000
  C   C740      1.0  0.82583  0.38086  0.61830  1.0000
  C   C741      1.0  0.84363  0.39007  0.63363  1.0000
  C   C742      1.0  0.84187  0.39484  0.66386  1.0000
  C   C743      1.0  0.82225  0.39069  0.67897  1.0000
  C   C744      1.0  0.80448  0.38132  0.66371  1.0000
  C   C745      1.0  0.80637  0.37624  0.63354  1.0000
  H   H861      1.0  0.85878  0.39348  0.62225  1.0000
  H   H862      1.0  0.85573  0.40195  0.67559  1.0000
  H   H863      1.0  0.78934  0.37793  0.67516  1.0000
  H   H864      1.0  0.79257  0.36897  0.62189  1.0000
  C   C746      1.0  0.84599  0.40189  0.91259  1.0000
  C   C747      1.0  0.82870  0.41593  0.92310  1.0000
  C   C748      1.0  0.81022  0.42177  0.90479  1.0000
  C   C749      1.0  0.80886  0.41380  0.87574  1.0000
  C   C750      1.0  0.82630  0.40004  0.86499  1.0000
  C   C751      1.0  0.84474  0.39404  0.88342  1.0000
  H   H865      1.0  0.82940  0.42207  0.94548  1.0000
  H   H866      1.0  0.79678  0.43232  0.91339  1.0000
  H   H867      1.0  0.82548  0.39378  0.84266  1.0000
  H   H868      1.0  0.85800  0.38313  0.87509  1.0000
  H   H869      1.0  0.80464  0.63608  0.84622  1.0000
  C   C752      1.0  0.93065  0.48771  0.52560  1.0000
  H   H870      1.0  0.79388  0.41246  0.59577  1.0000
  C   C753      1.0  0.74853  0.37000  0.85253  1.0000
  N   N48       1.0  0.75518  0.34673  0.86120  1.0000
  C   C754      1.0  0.84199  0.62670  0.90328  1.0000
  C   C755      1.0  0.85741  0.61270  0.88866  1.0000
  C   C756      1.0  0.85394  0.60739  0.85873  1.0000
  C   C757      1.0  0.83496  0.61582  0.84314  1.0000
  C   C758      1.0  0.81930  0.62945  0.85793  1.0000
  C   C759      1.0  0.82287  0.63493  0.88781  1.0000
  H   H871      1.0  0.87201  0.60600  0.90035  1.0000
  H   H872      1.0  0.86612  0.59681  0.84748  1.0000
  S   S214      1.0  0.79943  0.65160  0.74749  1.0000
  C   C760      1.0  0.86339  0.61349  0.60062  1.0000
  C   C761      1.0  0.84394  0.62375  0.58864  1.0000
  C   C762      1.0  0.82619  0.63039  0.60711  1.0000
  C   C763      1.0  0.82749  0.62665  0.63769  1.0000
  C   C764      1.0  0.84675  0.61598  0.64960  1.0000
  C   C765      1.0  0.86462  0.60959  0.63118  1.0000
  H   H873      1.0  0.84267  0.62683  0.56522  1.0000
  H   H874      1.0  0.87013  0.55516  0.99814  1.0000
  H   H875      1.0  0.84807  0.61307  0.67306  1.0000
  H   H876      1.0  0.87956  0.60164  0.64070  1.0000
  H   H877      1.0  0.76212  0.33606  0.81673  1.0000
  H   H878      1.0  0.86269  0.51750  0.54467  1.0000
  H   H879      1.0  0.93564  0.39577  0.88529  1.0000
  C   C766      1.0  0.97817  0.55622  0.99561  1.0000
  C   C767      1.0  0.76985  0.46463  0.67269  1.0000
  H   H880      1.0  0.78538  0.34700  0.83582  1.0000
  C   C768      1.0  0.97838  0.49734  0.53866  1.0000
  H   H881      1.0  0.95748  0.43745  0.96534  1.0000
  H   H882      1.0  0.90900  0.62124  0.89393  1.0000
  H   H883      1.0  0.77994  0.60721  0.62478  1.0000
  H   H884      1.0  0.80380  0.48056  0.57250  1.0000
  H   H885      1.0  0.94019  0.38156  0.96462  1.0000
  C   C769      1.0  0.83111  0.56237  0.56638  1.0000
  C   C770      1.0  0.78404  0.44575  0.67033  1.0000
  C   C771      1.0  0.93033  0.39723  0.95933  1.0000
  C   C772      1.0  0.78996  0.34806  0.94519  1.0000
  H   H886      1.0  0.76183  0.46842  0.69340  1.0000
  H   H887      1.0  0.85586  0.56440  0.60075  1.0000
  N   N49       1.0  0.78223  0.57202  0.63448  1.0000
  C   C773      1.0  0.76890  0.59292  0.62788  1.0000
  C   C774      1.0  0.76713  0.55301  0.63492  1.0000
  C   C775      1.0  0.79183  0.57420  0.66462  1.0000
  C   C776      1.0  0.79927  0.56827  0.61157  1.0000
  C   C777      1.0  0.82258  0.56737  0.61793  1.0000
  H   H888      1.0  0.75737  0.59765  0.64603  1.0000
  H   H889      1.0  0.75754  0.55137  0.61397  1.0000
  H   H890      1.0  0.75461  0.55502  0.65270  1.0000
  H   H891      1.0  0.77672  0.53692  0.63890  1.0000
  H   H892      1.0  0.80267  0.58882  0.66631  1.0000
  H   H893      1.0  0.77859  0.57694  0.68131  1.0000
  H   H894      1.0  0.80171  0.55888  0.67146  1.0000
  H   H895      1.0  0.82932  0.56952  0.63988  1.0000
  C   C778      1.0  0.77579  0.47328  0.62136  1.0000
  N   N50       1.0  0.78619  0.48882  0.83395  1.0000
  C   C779      1.0  0.80455  0.47586  0.81946  1.0000
  C   C780      1.0  0.78792  0.48494  0.86617  1.0000
  C   C781      1.0  0.76484  0.47962  0.82337  1.0000
  C   C782      1.0  0.78807  0.51298  0.82774  1.0000
  C   C783      1.0  0.77098  0.52610  0.81306  1.0000
  C   C784      1.0  0.80758  0.52414  0.83642  1.0000
  C   C785      1.0  0.77353  0.54882  0.80721  1.0000
  C   C786      1.0  0.80993  0.54686  0.83046  1.0000
  C   C787      1.0  0.79297  0.55914  0.81581  1.0000
  H   H896      1.0  0.80412  0.47869  0.79524  1.0000
  H   H897      1.0  0.82126  0.48022  0.82795  1.0000
  H   H898      1.0  0.80342  0.45754  0.82321  1.0000
  H   H899      1.0  0.80448  0.48902  0.87551  1.0000
  H   H900      1.0  0.78563  0.46705  0.87179  1.0000
  H   H901      1.0  0.77502  0.49516  0.87804  1.0000
  H   H902      1.0  0.76274  0.48107  0.79906  1.0000
  H   H903      1.0  0.76400  0.46144  0.82840  1.0000
  H   H904      1.0  0.75022  0.48803  0.83406  1.0000
  H   H905      1.0  0.75556  0.51919  0.80549  1.0000
  H   H906      1.0  0.82123  0.51534  0.84781  1.0000
  H   H907      1.0  0.76045  0.55843  0.79553  1.0000
  H   H908      1.0  0.82501  0.55509  0.83706  1.0000
  H   H909      1.0  0.79501  0.57671  0.81105  1.0000
  C   C788      1.0  0.76574  0.47838  0.64831  1.0000
  H   H910      1.0  0.79859  0.42014  0.55874  1.0000
  C   C789      1.0  0.92229  0.63356  0.89210  1.0000
  H   H911      1.0  0.77172  0.48444  0.60330  1.0000
  H   H912      1.0  0.75854  0.59163  0.60753  1.0000
  Fe  Fe109     1.0  0.92462  0.63230  0.98702  1.0000
  C   C790      1.0  0.79269  0.56592  0.58159  1.0000
  C   C791      1.0  0.83814  0.56440  0.59556  1.0000
  H   H913      1.0  0.83281  0.45896  0.60262  1.0000
  H   H914      1.0  0.80543  0.45890  0.54554  1.0000
  C   C792      1.0  0.96080  0.41116  0.93195  1.0000
  N   N51       1.0  0.80052  0.44738  0.58990  1.0000
  S   S215      1.0  0.72691  0.35002  0.77761  1.0000
  C   C793      1.0  0.82499  0.44372  0.59384  1.0000
  H   H915      1.0  0.75441  0.49286  0.65038  1.0000
  Fe  Fe110     1.0  0.87241  0.40635  0.98248  1.0000
  C   C794      1.0  0.70330  0.62903  0.74410  1.0000
  H   H916      1.0  0.67690  0.59502  0.79027  1.0000
  C   C795      1.0  0.94174  0.48074  0.57611  1.0000
  H   H917      1.0  0.79291  0.36871  0.87632  1.0000
  H   H918      1.0  0.80306  0.56172  0.53658  1.0000
  H   H919      1.0  0.94292  0.63037  0.53524  1.0000
  C   C796      1.0  0.98777  0.61222  0.50895  1.0000
  C   C797      1.0  0.98189  0.39311  0.54424  1.0000
  C   C798      1.0  0.78632  0.35925  0.89418  1.0000
  H   H920      1.0  0.81249  0.36944  0.92376  1.0000
  C   C799      1.0  0.96868  0.42797  0.95117  1.0000
  H   H921      1.0  0.92427  0.47834  0.58302  1.0000
  C   C800      1.0  0.96887  0.47599  0.53749  1.0000
  C   C801      1.0  0.98295  0.64153  0.98037  1.0000
  H   H922      1.0  0.93362  0.50585  0.52786  1.0000
  H   H923      1.0  0.94487  0.49875  0.57949  1.0000
  H   H924      1.0  0.91276  0.48583  0.53055  1.0000
  C   C802      1.0  0.99657  0.38831  0.00452  1.0000
  H   H925      1.0  0.82120  0.62143  0.98998  1.0000
  C   C803      1.0  0.97711  0.39861  0.91577  1.0000
  C   C804      1.0  0.66662  0.63623  0.76406  1.0000
  C   C805      1.0  0.93776  0.45021  0.54254  1.0000
  H   H926      1.0  0.70273  0.65077  0.79544  1.0000
  H   H927      1.0  0.80448  0.42540  0.64276  1.0000
  H   H928      1.0  0.89381  0.64619  0.79026  1.0000
  N   N52       1.0  0.93679  0.40645  0.93064  1.0000
  S   S216      1.0  0.85395  0.47143  0.53546  1.0000
  C   C806      1.0  0.79031  0.45403  0.61822  1.0000
  C   C807      1.0  0.79403  0.44047  0.64355  1.0000
  H   H929      1.0  0.78714  0.43491  0.68926  1.0000
  C   C808      1.0  0.64640  0.62484  0.76070  1.0000
  H   H930      1.0  0.68818  0.63045  0.81574  1.0000
  C   C809      1.0  0.66508  0.65991  0.76192  1.0000
  H   H931      1.0  0.94586  0.66051  0.60612  1.0000
  C   C810      1.0  0.98422  0.58663  0.96239  1.0000
  H   H932      1.0  0.78071  0.65565  0.99268  1.0000
  C   C811      1.0  0.79766  0.35979  0.92127  1.0000
  H   H933      1.0  0.77263  0.42820  0.57603  1.0000
  C   C812      1.0  0.79097  0.42622  0.57962  1.0000
  C   C813      1.0  0.62605  0.63662  0.75556  1.0000
  H   H934      1.0  0.77888  0.46669  0.56015  1.0000
  S   S217      1.0  0.95536  0.64648  0.96615  1.0000
  H   H935      1.0  0.81083  0.64577  0.89889  1.0000
  H   H936      1.0  0.83312  0.43934  0.57269  1.0000
  H   H937      1.0  0.95301  0.47092  0.59146  1.0000
  H   H938      1.0  0.95186  0.57569  0.97397  1.0000
  C   C814      1.0  0.75944  0.33499  0.91502  1.0000
  H   H939      1.0  0.76310  0.38023  0.84819  1.0000
  C   C815      1.0  0.77043  0.33695  0.83880  1.0000
  H   H940      1.0  0.71549  0.62389  0.80125  1.0000
  C   C816      1.0  0.79684  0.46423  0.56615  1.0000
  H   H941      1.0  0.70715  0.64700  0.74257  1.0000
  H   H942      1.0  0.64582  0.60685  0.76185  1.0000
  N   N53       1.0  0.94524  0.47352  0.54523  1.0000
  H   H943      1.0  0.69559  0.62413  0.72273  1.0000
  H   H944      1.0  0.95916  0.33744  0.52512  1.0000
  H   H945      1.0  0.92225  0.34605  0.52182  1.0000
  H   H946      1.0  0.93296  0.40917  0.97774  1.0000
  S   S218      1.0  0.93640  0.39129  0.54698  1.0000
  H   H947      1.0  0.91970  0.63746  0.55842  1.0000
  H   H948      1.0  0.84188  0.65342  0.99776  1.0000
  H   H949      1.0  0.82957  0.42962  0.60880  1.0000
  Fe  Fe111     1.0  0.90052  0.39914  0.53203  1.0000
  H   H950      1.0  0.73825  0.37053  0.83191  1.0000
  C   C817      1.0  0.93086  0.39003  0.90749  1.0000
  H   H951      1.0  0.91245  0.39317  0.95938  1.0000
  H   H952      1.0  0.92839  0.43541  0.90403  1.0000
  H   H953      1.0  0.93877  0.37319  0.91189  1.0000
  H   H954      1.0  0.96860  0.51211  0.54494  1.0000
  N   N54       1.0  0.94574  0.66132  0.55846  1.0000
  C   C818      1.0  0.88841  0.65187  0.81176  1.0000
  H   H955      1.0  0.71960  0.61961  0.74641  1.0000
  H   H956      1.0  0.93266  0.62858  0.87302  1.0000
  H   H957      1.0  0.65384  0.33904  0.72729  1.0000
  C   C819      1.0  0.92323  0.42735  0.92471  1.0000
  N   N55       1.0  0.68857  0.62447  0.76902  1.0000
  C   C820      1.0  0.68739  0.59977  0.77153  1.0000
  H   H958      1.0  0.97285  0.38525  0.90101  1.0000
  H   H959      1.0  0.81139  0.63866  0.59764  1.0000
  H   H960      1.0  0.80617  0.65978  0.97407  1.0000
  C   C821      1.0  0.76682  0.34689  0.89019  1.0000
  C   C822      1.0  0.77092  0.33566  0.94207  1.0000
  C   C823      1.0  0.98443  0.64978  0.57638  1.0000
  C   C824      1.0  0.93815  0.63810  0.55661  1.0000
  H   H961      1.0  0.70422  0.59154  0.77534  1.0000
  H   H962      1.0  0.97749  0.60004  0.94842  1.0000
  H   H963      1.0  0.98178  0.38874  0.56733  1.0000
  C   C825      1.0  0.79794  0.66142  0.99586  1.0000
  S   S219      1.0  0.87634  0.37234  0.52140  1.0000
  Fe  Fe112     1.0  0.86418  0.43572  0.52565  1.0000
  H   H964      1.0  0.84334  0.56063  0.54914  1.0000
  C   C826      1.0  0.88296  0.52705  0.50849  1.0000
  C   C827      1.0  0.68555  0.34428  0.74898  1.0000
  H   H965      1.0  0.92038  0.64593  0.83164  1.0000
  C   C828      1.0  0.98311  0.45762  0.52891  1.0000
  C   C829      1.0  0.87023  0.51221  0.52420  1.0000
  S   S220      1.0  0.83768  0.41204  0.51340  1.0000
  H   H966      1.0  0.91989  0.44890  0.54824  1.0000
  H   H967      1.0  0.93346  0.63163  0.91187  1.0000
  S   S221      1.0  0.89215  0.65133  0.99610  1.0000
  S   S222      1.0  0.92313  0.58931  0.51396  1.0000
  C   C830      1.0  0.99135  0.43213  0.95373  1.0000
  H   H968      1.0  0.97763  0.64098  0.59466  1.0000
  H   H969      1.0  0.61080  0.62768  0.75305  1.0000
  C   C831      1.0  0.73470  0.33361  0.86069  1.0000
  H   H970      1.0  0.94735  0.43863  0.55771  1.0000
  H   H971      1.0  0.79881  0.34863  0.96618  1.0000
  H   H972      1.0  0.85451  0.65859  0.79711  1.0000
  C   C832      1.0  0.89649  0.65806  0.86430  1.0000
  H   H973      1.0  0.72219  0.34047  0.87645  1.0000
  H   H974      1.0  0.79467  0.61802  0.00542  1.0000
  H   H975      1.0  0.84196  0.52648  0.00501  1.0000
  H   H976      1.0  0.88532  0.54369  0.51697  1.0000
  H   H977      1.0  0.72635  0.33411  0.83856  1.0000
  H   H978      1.0  0.97374  0.60551  0.51998  1.0000
  C   C833      1.0  0.62525  0.65990  0.75349  1.0000
  C   C834      1.0  0.87535  0.53853  0.00525  1.0000
  H   H979      1.0  0.88865  0.65119  0.92334  1.0000
  C   C835      1.0  0.87384  0.66561  0.86722  1.0000
  N   N56       1.0  0.91249  0.65669  0.88949  1.0000
  H   H980      1.0  0.91460  0.66116  0.93665  1.0000
  C   C836      1.0  0.90223  0.66258  0.91814  1.0000
  C   C837      1.0  0.86628  0.65901  0.81548  1.0000
  H   H981      1.0  0.99699  0.44464  0.96914  1.0000
  C   C838      1.0  0.85912  0.66616  0.84302  1.0000
  Fe  Fe113     1.0  0.59571  0.89992  0.47071  1.0000
  C   C839      1.0  0.52190  0.78197  0.22835  1.0000
  S   S223      1.0  0.58666  0.88161  0.42794  1.0000
  H   H982      1.0  0.83672  0.69658  0.20138  1.0000
  S   S224      1.0  0.59651  0.92619  0.05020  1.0000
  H   H983      1.0  0.83444  0.67430  0.02406  1.0000
  Fe  Fe114     1.0  0.61676  0.89551  0.03629  1.0000
  S   S225      1.0  0.63968  0.87305  0.06492  1.0000
  C   C840      1.0  0.80849  0.70926  0.22579  1.0000
  H   H984      1.0  0.83688  0.67828  0.29196  1.0000
  C   C841      1.0  0.62841  0.84650  0.47842  1.0000
  S   S226      1.0  0.58017  0.93403  0.48119  1.0000
  Fe  Fe115     1.0  0.62291  0.81012  0.28685  1.0000
  S   S227      1.0  0.61368  0.77399  0.28854  1.0000
  S   S228      1.0  0.63865  0.82992  0.32462  1.0000
  Fe  Fe116     1.0  0.60906  0.81481  0.22136  1.0000
  S   S229      1.0  0.59840  0.77917  0.21873  1.0000
  S   S230      1.0  0.60097  0.84293  0.18813  1.0000
  Fe  Fe117     1.0  0.58271  0.78554  0.26274  1.0000
  S   S231      1.0  0.54825  0.77729  0.27920  1.0000
  Fe  Fe118     1.0  0.63040  0.77010  0.24453  1.0000
  S   S232      1.0  0.65168  0.73950  0.22786  1.0000
  S   S233      1.0  0.59124  0.82163  0.26393  1.0000
  S   S234      1.0  0.64173  0.80573  0.24433  1.0000
  C   C842      1.0  0.67567  0.72243  0.23893  1.0000
  C   C843      1.0  0.68355  0.70523  0.21998  1.0000
  C   C844      1.0  0.53265  0.83246  0.11769  1.0000
  C   C845      1.0  0.71316  0.69359  0.25492  1.0000
  C   C846      1.0  0.70530  0.71076  0.27390  1.0000
  C   C847      1.0  0.68678  0.72508  0.26600  1.0000
  H   H985      1.0  0.67513  0.70289  0.19903  1.0000
  C   C848      1.0  0.77711  0.71484  0.30894  1.0000
  H   H986      1.0  0.68099  0.73808  0.28093  1.0000
  C   C849      1.0  0.52271  0.77928  0.25892  1.0000
  C   C850      1.0  0.50220  0.90746  0.46958  1.0000
  N   N57       1.0  0.79725  0.69959  0.30740  1.0000
  H   H987      1.0  0.65326  0.92501  0.25390  1.0000
  C   C851      1.0  0.80803  0.69953  0.27831  1.0000
  H   H988      1.0  0.53174  0.86102  0.16553  1.0000
  C   C852      1.0  0.62922  0.86456  0.09930  1.0000
  C   C853      1.0  0.61206  0.87700  0.11290  1.0000
  C   C854      1.0  0.60418  0.87035  0.14037  1.0000
  C   C855      1.0  0.61277  0.85079  0.15427  1.0000
  C   C856      1.0  0.63007  0.83836  0.14086  1.0000
  C   C857      1.0  0.63839  0.84536  0.11360  1.0000
  H   H989      1.0  0.60514  0.89204  0.10249  1.0000
  H   H990      1.0  0.59137  0.88055  0.15094  1.0000
  H   H991      1.0  0.63700  0.82336  0.15138  1.0000
  H   H992      1.0  0.65182  0.83572  0.10343  1.0000
  C   C858      1.0  0.60167  0.86801  0.39907  1.0000
  C   C859      1.0  0.62487  0.86845  0.39693  1.0000
  C   C860      1.0  0.63592  0.85671  0.37405  1.0000
  C   C861      1.0  0.62394  0.84449  0.35298  1.0000
  C   C862      1.0  0.60075  0.84419  0.35502  1.0000
  C   C863      1.0  0.58973  0.85586  0.37792  1.0000
  H   H993      1.0  0.63430  0.87786  0.41283  1.0000
  H   H994      1.0  0.65386  0.85711  0.37266  1.0000
  H   H995      1.0  0.59129  0.83489  0.33903  1.0000
  H   H996      1.0  0.57179  0.85541  0.37930  1.0000
  H   H997      1.0  0.51966  0.85373  0.39111  1.0000
  C   C864      1.0  0.62479  0.81619  0.44431  1.0000
  H   H998      1.0  0.61967  0.83579  0.01857  1.0000
  H   H999      1.0  0.56163  0.87818  0.10032  1.0000
  C   C865      1.0  0.54481  0.86382  0.14905  1.0000
  H   H1000     1.0  0.62331  0.85461  0.49940  1.0000
  S   S235      1.0  0.62846  0.90706  0.49306  1.0000
  H   H1001     1.0  0.77846  0.67089  0.29690  1.0000
  H   H1002     1.0  0.66198  0.68241  0.27168  1.0000
  H   H1003     1.0  0.71352  0.71300  0.29499  1.0000
  H   H1004     1.0  0.85449  0.67710  0.24426  1.0000
  H   H1005     1.0  0.50512  0.90729  0.44615  1.0000
  C   C866      1.0  0.55632  0.86057  0.09890  1.0000
  H   H1006     1.0  0.62395  0.85543  0.24030  1.0000
  H   H1007     1.0  0.66384  0.85048  0.28068  1.0000
  H   H1008     1.0  0.82580  0.66848  0.07166  1.0000
  C   C867      1.0  0.65029  0.89474  0.17860  1.0000
  H   H1009     1.0  0.65682  0.94600  0.20872  1.0000
  H   H1010     1.0  0.63410  0.90467  0.28836  1.0000
  H   H1011     1.0  0.50082  0.78360  0.18941  1.0000
  H   H1012     1.0  0.52033  0.76869  0.11103  1.0000
  C   C868      1.0  0.79038  0.67669  0.31398  1.0000
  C   C869      1.0  0.52356  0.78635  0.11288  1.0000
  C   C870      1.0  0.54331  0.97660  0.02687  1.0000
  C   C871      1.0  0.70212  0.69096  0.22783  1.0000
  N   N58       1.0  0.64676  0.87869  0.25934  1.0000
  C   C872      1.0  0.63822  0.78907  0.49378  1.0000
  H   H1013     1.0  0.62175  0.85881  0.27899  1.0000
  H   H1014     1.0  0.53560  0.97685  0.04897  1.0000
  H   H1015     1.0  0.58737  0.83641  0.49366  1.0000
  H   H1016     1.0  0.50370  0.95774  0.02330  1.0000
  H   H1017     1.0  0.66421  0.84937  0.24161  1.0000
  C   C873      1.0  0.62496  0.86794  0.25827  1.0000
  H   H1018     1.0  0.50322  0.77479  0.29749  1.0000
  C   C874      1.0  0.53670  0.81745  0.14165  1.0000
  H   H1019     1.0  0.70776  0.67787  0.21294  1.0000
  C   C875      1.0  0.79805  0.71018  0.25309  1.0000
  H   H1020     1.0  0.62346  0.85853  0.46061  1.0000
  C   C876      1.0  0.65235  0.91581  0.23349  1.0000
  H   H1021     1.0  0.82723  0.69409  0.33423  1.0000
  H   H1022     1.0  0.56054  0.85493  0.15653  1.0000
  H   H1023     1.0  0.76356  0.70938  0.29381  1.0000
  H   H1024     1.0  0.80048  0.71729  0.20680  1.0000
  S   S236      1.0  0.53658  0.90713  0.05799  1.0000
  H   H1025     1.0  0.51354  0.86871  0.08645  1.0000
  H   H1026     1.0  0.61871  0.82785  0.42657  1.0000
  C   C877      1.0  0.65340  0.91764  0.18024  1.0000
  C   C878      1.0  0.52409  0.82326  0.09119  1.0000
  H   H1027     1.0  0.61749  0.79980  0.43923  1.0000
  S   S237      1.0  0.73637  0.67572  0.26676  1.0000
  H   H1028     1.0  0.58536  0.81161  0.47160  1.0000
  C   C879      1.0  0.66486  0.86104  0.26062  1.0000
  C   C880      1.0  0.62538  0.80929  0.49824  1.0000
  C   C881      1.0  0.65443  0.92815  0.20760  1.0000
  H   H1029     1.0  0.52133  0.83353  0.07179  1.0000
  H   H1030     1.0  0.64941  0.88658  0.15726  1.0000
  C   C882      1.0  0.64811  0.88227  0.20428  1.0000
  H   H1031     1.0  0.62656  0.67113  0.24914  1.0000
  C   C883      1.0  0.51944  0.91273  0.48926  1.0000
  H   H1032     1.0  0.68155  0.86846  0.26081  1.0000
  H   H1033     1.0  0.53565  0.91632  0.48097  1.0000
  H   H1034     1.0  0.50322  0.86684  0.12327  1.0000
  C   C884      1.0  0.51803  0.87063  0.11013  1.0000
  H   H1035     1.0  0.64545  0.86458  0.20176  1.0000
  H   H1036     1.0  0.64323  0.81465  0.44219  1.0000
  H   H1037     1.0  0.66413  0.89959  0.29019  1.0000
  C   C885      1.0  0.64910  0.89239  0.23255  1.0000
  H   H1038     1.0  0.80505  0.70833  0.35253  1.0000
  C   C886      1.0  0.51406  0.90521  0.03352  1.0000
  H   H1039     1.0  0.82033  0.72287  0.32524  1.0000
  C   C887      1.0  0.64783  0.89162  0.28726  1.0000
  H   H1040     1.0  0.54829  0.88197  0.14959  1.0000
  H   H1041     1.0  0.61300  0.98724  0.44036  1.0000
  N   N59       1.0  0.53785  0.85643  0.11917  1.0000
  H   H1042     1.0  0.57122  0.84943  0.10402  1.0000
  H   H1043     1.0  0.76979  0.71505  0.33128  1.0000
  H   H1044     1.0  0.54382  0.82262  0.16248  1.0000
  H   H1045     1.0  0.64343  0.78356  0.47224  1.0000
  C   C888      1.0  0.82871  0.68763  0.27422  1.0000
  H   H1046     1.0  0.52108  0.88879  0.11287  1.0000
  C   C889      1.0  0.83893  0.68674  0.24683  1.0000
  C   C890      1.0  0.82888  0.69759  0.22267  1.0000
  H   H1047     1.0  0.64598  0.88060  0.30682  1.0000
  H   H1048     1.0  0.61097  0.88048  0.25474  1.0000
  C   C891      1.0  0.50365  0.84641  0.39442  1.0000
  H   H1049     1.0  0.65495  0.92723  0.16021  1.0000
  S   S238      1.0  0.62960  0.97333  0.50370  1.0000
  H   H1050     1.0  0.58759  0.83857  0.45478  1.0000
  H   H1051     1.0  0.53726  0.78316  0.21648  1.0000
  N   N60       1.0  0.61826  0.82453  0.47390  1.0000
  Fe  Fe119     1.0  0.56787  0.90765  0.03192  1.0000
  H   H1052     1.0  0.78104  0.73235  0.30345  1.0000
  H   H1053     1.0  0.63221  0.98795  0.02829  1.0000
  H   H1054     1.0  0.55156  0.85783  0.07545  1.0000
  H   H1055     1.0  0.50658  0.82539  0.35678  1.0000
  H   H1056     1.0  0.78198  0.71895  0.25368  1.0000
  H   H1057     1.0  0.53573  0.78356  0.15754  1.0000
  C   C892      1.0  0.81316  0.70656  0.33075  1.0000
  H   H1058     1.0  0.65816  0.82744  0.02275  1.0000
  H   H1059     1.0  0.64693  0.84475  0.47912  1.0000
  S   S239      1.0  0.58750  0.87648  0.02110  1.0000
  H   H1060     1.0  0.78216  0.67572  0.33567  1.0000
  C   C893      1.0  0.53216  0.79477  0.13911  1.0000
  C   C894      1.0  0.50264  0.77737  0.27402  1.0000
  C   C895      1.0  0.50122  0.78231  0.21310  1.0000
  H   H1061     1.0  0.55627  0.98934  0.02670  1.0000
  C   C896      1.0  0.59362  0.82786  0.47355  1.0000
  H   H1062     1.0  0.50018  0.78920  0.34766  1.0000
  H   H1063     1.0  0.80672  0.67107  0.11795  1.0000
  H   H1064     1.0  0.55261  0.96021  0.02445  1.0000
  H   H1065     1.0  0.51330  0.79386  0.06835  1.0000
  C   C897      1.0  0.51956  0.80056  0.08894  1.0000
  Fe  Fe120     1.0  0.61184  0.94031  0.50642  1.0000
  Fe  Fe121     1.0  0.59286  0.89135  0.97652  1.0000
  H   H1066     1.0  0.59723  0.86560  0.74036  1.0000
  S   S240      1.0  0.58535  0.86755  0.93833  1.0000
  H   H1067     1.0  0.61329  0.92961  0.64543  1.0000
  S   S241      1.0  0.60019  0.92697  0.54959  1.0000
  H   H1068     1.0  0.50576  0.75302  0.79094  1.0000
  Fe  Fe122     1.0  0.61370  0.89341  0.53453  1.0000
  S   S242      1.0  0.63131  0.86665  0.56330  1.0000
  H   H1069     1.0  0.71150  0.70979  0.80247  1.0000
  H   H1070     1.0  0.84177  0.67139  0.84583  1.0000
  H   H1071     1.0  0.60951  0.66901  0.74938  1.0000
  S   S243      1.0  0.57013  0.92111  0.98636  1.0000
  Fe  Fe123     1.0  0.62114  0.80890  0.78764  1.0000
  S   S244      1.0  0.61490  0.77204  0.79144  1.0000
  S   S245      1.0  0.63481  0.83304  0.82205  1.0000
  Fe  Fe124     1.0  0.60667  0.81081  0.72249  1.0000
  S   S246      1.0  0.59883  0.77433  0.72150  1.0000
  S   S247      1.0  0.59593  0.83769  0.68880  1.0000
  Fe  Fe125     1.0  0.58314  0.78053  0.76547  1.0000
  S   S248      1.0  0.55001  0.76718  0.77990  1.0000
  Fe  Fe126     1.0  0.63135  0.76811  0.74722  1.0000
  S   S249      1.0  0.65467  0.73930  0.73003  1.0000
  S   S250      1.0  0.58858  0.81730  0.76486  1.0000
  S   S251      1.0  0.63993  0.80451  0.74515  1.0000
  C   C898      1.0  0.67888  0.72301  0.74214  1.0000
  C   C899      1.0  0.68978  0.70850  0.72198  1.0000
  H   H1072     1.0  0.59689  0.94300  0.69217  1.0000
  C   C900      1.0  0.71646  0.69488  0.75971  1.0000
  C   C901      1.0  0.70560  0.70942  0.77986  1.0000
  C   C902      1.0  0.68704  0.72341  0.77119  1.0000
  H   H1073     1.0  0.68369  0.70797  0.69946  1.0000
  C   C903      1.0  0.62371  0.80092  0.90977  1.0000
  H   H1074     1.0  0.67890  0.73434  0.78706  1.0000
  C   C904      1.0  0.52400  0.77424  0.76255  1.0000
  H   H1075     1.0  0.92400  0.68974  0.88223  1.0000
  H   H1076     1.0  0.55056  0.84365  0.66943  1.0000
  H   H1077     1.0  0.53713  0.79673  0.73115  1.0000
  H   H1078     1.0  0.64241  0.88702  0.78913  1.0000
  H   H1079     1.0  0.64365  0.79523  0.87139  1.0000
  C   C905      1.0  0.62141  0.85882  0.59826  1.0000
  C   C906      1.0  0.60238  0.86919  0.61034  1.0000
  C   C907      1.0  0.59491  0.86246  0.63805  1.0000
  C   C908      1.0  0.60630  0.84527  0.65401  1.0000
  C   C909      1.0  0.62531  0.83483  0.64195  1.0000
  C   C910      1.0  0.63286  0.84166  0.61426  1.0000
  H   H1080     1.0  0.59344  0.88249  0.59839  1.0000
  H   H1081     1.0  0.58025  0.87077  0.64719  1.0000
  H   H1082     1.0  0.63430  0.82163  0.65400  1.0000
  H   H1083     1.0  0.64772  0.83365  0.60521  1.0000
  C   C911      1.0  0.59917  0.85924  0.90543  1.0000
  C   C912      1.0  0.62039  0.86627  0.89847  1.0000
  C   C913      1.0  0.63093  0.85832  0.87271  1.0000
  C   C914      1.0  0.62040  0.84338  0.85352  1.0000
  C   C915      1.0  0.59903  0.83669  0.86020  1.0000
  C   C916      1.0  0.58855  0.84452  0.88603  1.0000
  H   H1084     1.0  0.62873  0.87773  0.91293  1.0000
  H   H1085     1.0  0.64746  0.86359  0.86778  1.0000
  H   H1086     1.0  0.59071  0.82519  0.84573  1.0000
  H   H1087     1.0  0.57215  0.83897  0.89115  1.0000
  H   H1088     1.0  0.54031  0.87233  0.54843  1.0000
  C   C917      1.0  0.62961  0.90053  0.66507  1.0000
  S   S252      1.0  0.53623  0.92200  0.54414  1.0000
  C   C918      1.0  0.62261  0.81024  0.93800  1.0000
  C   C919      1.0  0.64497  0.77534  0.51749  1.0000
  H   H1089     1.0  0.55522  0.79098  0.66622  1.0000
  C   C920      1.0  0.53621  0.83243  0.66889  1.0000
  C   C921      1.0  0.70848  0.69468  0.73057  1.0000
  H   H1090     1.0  0.66057  0.85861  0.96874  1.0000
  Fe  Fe127     1.0  0.60036  0.93837  0.00367  1.0000
  H   H1091     1.0  0.71655  0.68374  0.71467  1.0000
  H   H1092     1.0  0.64339  0.87270  0.68841  1.0000
  H   H1093     1.0  0.97159  0.67991  0.51389  1.0000
  C   C922      1.0  0.64133  0.82039  0.95119  1.0000
  C   C923      1.0  0.62668  0.80096  0.55120  1.0000
  H   H1094     1.0  0.93636  0.66752  0.51301  1.0000
  C   C924      1.0  0.62431  0.89519  0.71810  1.0000
  H   H1095     1.0  0.55853  0.79048  0.62702  1.0000
  H   H1096     1.0  0.62255  0.80582  0.57351  1.0000
  C   C925      1.0  0.55822  0.84740  0.57472  1.0000
  C   C926      1.0  0.50032  0.89962  0.98382  1.0000
  H   H1097     1.0  0.51581  0.79437  0.62100  1.0000
  C   C927      1.0  0.66176  0.81166  0.90588  1.0000
  H   H1098     1.0  0.65731  0.80205  0.00135  1.0000
  C   C928      1.0  0.51542  0.91403  0.51945  1.0000
  H   H1099     1.0  0.86682  0.67059  0.88805  1.0000
  H   H1100     1.0  0.61571  0.81018  0.99904  1.0000
  H   H1101     1.0  0.91501  0.67459  0.53843  1.0000
  H   H1102     1.0  0.89542  0.68016  0.91845  1.0000
  N   N61       1.0  0.53708  0.81764  0.64270  1.0000
  C   C929      1.0  0.63348  0.88807  0.69078  1.0000
  S   S253      1.0  0.73870  0.67634  0.77280  1.0000
  H   H1103     1.0  0.52075  0.84331  0.66917  1.0000
  N   N62       1.0  0.64078  0.83071  0.98087  1.0000
  S   S254      1.0  0.58227  0.88414  0.51127  1.0000
  H   H1104     1.0  0.65928  0.86575  0.73467  1.0000
  C   C930      1.0  0.60720  0.92768  0.69193  1.0000
  H   H1105     1.0  0.58289  0.98874  0.50937  1.0000
  H   H1106     1.0  0.50000  0.96080  0.98380  1.0000
  H   H1107     1.0  0.67564  0.82380  0.99179  1.0000
  C   C931      1.0  0.93072  0.67220  0.88478  1.0000
  C   C932      1.0  0.63876  0.89654  0.76836  1.0000
  C   C933      1.0  0.50455  0.76475  0.77284  1.0000
  H   H1108     1.0  0.79668  0.67953  0.00161  1.0000
  H   H1109     1.0  0.64476  0.85256  0.76341  1.0000
  H   H1110     1.0  0.65480  0.90270  0.76029  1.0000
  H   H1111     1.0  0.67565  0.82874  0.94241  1.0000
  H   H1112     1.0  0.60340  0.92178  0.73768  1.0000
  C   C934      1.0  0.55664  0.80175  0.64640  1.0000
  C   C935      1.0  0.66094  0.82084  0.93420  1.0000
  C   C936      1.0  0.53801  0.83172  0.61599  1.0000
  H   H1113     1.0  0.60849  0.86493  0.77728  1.0000
  H   H1114     1.0  0.60908  0.79383  0.89974  1.0000
  H   H1115     1.0  0.63478  0.85014  0.72630  1.0000
  C   C937      1.0  0.51686  0.80411  0.64185  1.0000
  C   C938      1.0  0.60627  0.87552  0.75716  1.0000
  C   C939      1.0  0.98085  0.67164  0.53162  1.0000
  C   C940      1.0  0.52026  0.86009  0.58313  1.0000
  S   S255      1.0  0.59608  0.97469  0.98779  1.0000
  H   H1116     1.0  0.57282  0.82359  0.60419  1.0000
  H   H1117     1.0  0.93815  0.69238  0.53556  1.0000
  C   C941      1.0  0.61937  0.82811  0.99617  1.0000
  C   C942      1.0  0.64237  0.86186  0.74227  1.0000
  H   H1118     1.0  0.64375  0.86338  0.00029  1.0000
  C   C943      1.0  0.64320  0.80169  0.89373  1.0000
  C   C944      1.0  0.64425  0.85500  0.97837  1.0000
  H   H1119     1.0  0.62809  0.91135  0.77457  1.0000
  H   H1120     1.0  0.50115  0.81446  0.64383  1.0000
  C   C945      1.0  0.52227  0.78929  0.73905  1.0000
  H   H1121     1.0  0.94042  0.66787  0.86483  1.0000
  S   S256      1.0  0.62361  0.90910  0.99075  1.0000
  C   C946      1.0  0.61644  0.92022  0.66559  1.0000
  H   H1122     1.0  0.60668  0.80985  0.94856  1.0000
  C   C947      1.0  0.55756  0.83301  0.59890  1.0000
  H   H1123     1.0  0.59514  0.89000  0.76325  1.0000
  H   H1124     1.0  0.51674  0.79198  0.66044  1.0000
  H   H1125     1.0  0.53694  0.82270  0.68974  1.0000
  H   H1126     1.0  0.63653  0.89462  0.64439  1.0000
  N   N63       1.0  0.62796  0.88243  0.74582  1.0000
  H   H1127     1.0  0.57236  0.81063  0.64988  1.0000
  C   C948      1.0  0.53962  0.86089  0.56685  1.0000
  C   C949      1.0  0.61105  0.91541  0.71785  1.0000
  H   H1128     1.0  0.54742  0.96597  0.96958  1.0000
  H   H1129     1.0  0.67666  0.81273  0.89291  1.0000
  H   H1130     1.0  0.60520  0.83667  0.98395  1.0000
  H   H1131     1.0  0.94284  0.67185  0.90372  1.0000
  H   H1132     1.0  0.63107  0.86321  0.96409  1.0000
  H   H1133     1.0  0.57348  0.84862  0.56252  1.0000
  H   H1134     1.0  0.50335  0.89481  0.96122  1.0000
  C   C950      1.0  0.50132  0.79463  0.72585  1.0000
  H   H1135     1.0  0.61041  0.83002  0.53289  1.0000
  C   C951      1.0  0.64475  0.67152  0.75663  1.0000
  H   H1136     1.0  0.50317  0.81218  0.82414  1.0000
  H   H1137     1.0  0.94571  0.68801  0.59023  1.0000
  H   H1138     1.0  0.64417  0.68967  0.75481  1.0000
  H   H1139     1.0  0.64477  0.77079  0.56447  1.0000
  C   C952      1.0  0.93338  0.67461  0.53537  1.0000
  H   H1140     1.0  0.53412  0.89222  0.99802  1.0000
  C   C953      1.0  0.61978  0.81473  0.52769  1.0000
  H   H1141     1.0  0.52526  0.98471  0.95623  1.0000
  C   C954      1.0  0.51943  0.84587  0.60744  1.0000
  Fe  Fe128     1.0  0.56974  0.91852  0.52340  1.0000
  H   H1142     1.0  0.50123  0.86856  0.89437  1.0000
  C   C955      1.0  0.63926  0.78130  0.54612  1.0000
  H   H1143     1.0  0.67967  0.66971  0.76417  1.0000
  H   H1144     1.0  0.50597  0.87092  0.57707  1.0000
  C   C956      1.0  0.65876  0.82051  0.99992  1.0000
  H   H1145     1.0  0.50007  0.80634  0.70777  1.0000
  C   C957      1.0  0.93934  0.67090  0.58741  1.0000
  H   H1146     1.0  0.50424  0.84642  0.61985  1.0000
  H   H1147     1.0  0.92088  0.67207  0.58984  1.0000
  H   H1148     1.0  0.50420  0.84219  0.85387  1.0000
  H   H1149     1.0  0.65490  0.76007  0.51368  1.0000
  C   C958      1.0  0.53750  0.98163  0.97459  1.0000
  H   H1150     1.0  0.49945  0.83701  0.80138  1.0000
  N   N64       1.0  0.52617  0.98021  0.00320  1.0000
  H   H1151     1.0  0.52294  0.94456  0.99859  1.0000
  H   H1152     1.0  0.54952  0.99524  0.97433  1.0000
  C   C959      1.0  0.51248  0.96008  0.00223  1.0000
  C   C960      1.0  0.51775  0.89826  0.00460  1.0000
