data_image0
_chemical_formula_structural       HSHFeCHFeS2FeS2FeSFeS3CH4CH3C4H2C2HCH3C6H6CH2CH3C2HCHCHNH2SCH6CH3C3HSCHC4SFeH4NC4HCHCH2C2H2CH2CHFeCNH2FeC2H2C3H2C2H3SC4HCHCFeHCNHSC2HSC4H2CH2FeS2FeSH4CNCFeS2FeS2FeSFeS3C2H3CH4C3H3CHC6H4CHC2H3SHCH2FeH4C2H5NH3C2H2C4HCH4C2HC2H3C2H2CHC2N2SHC2H2C2HC3HCHCHCHSCSCH3SHCH5CH2SCFeS2FeS2FeSFeS3CSC2HC2FeH4C6H5C2HCHCHCH3CHCH2CHCH3CHCH5FeHS2CNH4CH3CHC3NH2C2HNCSC2H8C4H3CNC4HC2HC3H3CSCH3C2H3CH2FeH2SCHCHC2H5CFeSHC2H2CHCHC2HCFeS2FeS2FeSCFeSFeS4C3H4C6H4CHSH3C2NHC2HC2H2SC5HCH4CH2CHCHSH5SH2CHCH2Fe2HC4H2CNH2SHCH4C2H4NC2H3C3H3C3HC2HC2H5CHFeH2C2HCHC2HCFeS2FeSHFeSFeS3FeSCFeS2FeSFeHS2CHC3H2C7H4C2HC2NCHCHCH5CHCHC2HSH2NC4HCHCSHCH2C3HCH2NC3H4CH10C9H3CH3CH2CH6CSNH2C2H2SC2H2C2HCH2CH2C2HCHNH3FeS2FeSHFeSFeSCSFeS2FeSHFeSFeCS2C2HCHC6H6C3SCHC2HCNC9H15CH5C2SCSCH2C2H3CHC2H3C4H2CH2CH4CH3FeS2FeS2FeSFeHS2FeS2FeS2FeSFeCS2C3HCH2NC3HC2H3C4HCH2C6H4CHCNC2H3C4H2NC9H9CHC2H3CH2NC6HC3HCH3CH3NC2H6CHC2SCH6CH4CHCHSC2H5CHC3H2CHCH3C2H7C2HFeS2FeS2FeHFeS3FeS2FeSHFeSFeS3C2HC4HC2NH2C4H4C6H4CH4C3H3NC9H13CHCH3CH3CH3CH4C2HC3H2CH2C3H3SCH3NHCNC2SC2HNH2C3SCH3SH3S2FeSCFeS2FeS2FeSFeS3C4H2C2H2CH3CH3C6H5CHC3H3CH6CH2C5HCH2NSHCHC2H2C5HSH3C2NCH2CNC2H4C2HCH3C2H2CNC3HFeCHC2H3CH3CSH6C2H3CH2CFeH2NH3C3H7CFeS2FeSCHCH4FeS2FeS2FeSFeS3C2SCH2CH4CH2C6H4CHC2H3CHC2HSNHNCHCS2CH3C2H2NCH3CHCSH3C2HC4HCH3SHC3HFeH4CNCHSC3H2C3HC2NC7H12CH3CH2C3HCFeH2CH2CSHC3H2FeC2HCH2SC2HCFeS2FeS2FeSFeS3C3H6CH6C7H4C4HC3H3CH3CHCH8C2HC2HCH2CH3FeCH2CNH2C6NC6HCH6SCNH4C4HC3H2C3H3NCH6C2FeSC2H2FeS2FeSHC2HCH2FeS2FeS2FeSFeS3H3CHCHSHC2H5SC7H5CSH2C5SHCHC2H2CHCSFeHC2HC3H2NCH2NCH4CHFeH3C2SHCH4C3H3CFeHSHFeHSC2HC4HCHCHCHCHNCH2CHC2SHC2HC2
_chemical_formula_sum              "H864 S192 Fe96 C720 N48"
_cell_length_a       57.606
_cell_length_b       57.461
_cell_length_c       35.8794
_cell_angle_alpha    89.7796
_cell_angle_beta     88.7689
_cell_angle_gamma    86.7624

_space_group_name_H-M_alt    "P 1"
_space_group_IT_number       1

loop_
  _space_group_symop_operation_xyz
  'x, y, z'

loop_
  _atom_site_type_symbol
  _atom_site_label
  _atom_site_symmetry_multiplicity
  _atom_site_fract_x
  _atom_site_fract_y
  _atom_site_fract_z
  _atom_site_occupancy
  H   H1        1.0  0.04909  0.46632  0.27437  1.0000
  S   S1        1.0  0.13433  0.33110  0.07635  1.0000
  H   H2        1.0  0.08927  0.36047  0.50648  1.0000
  Fe  Fe1       1.0  0.29657  0.06728  0.01666  1.0000
  C   C1        1.0  0.10266  0.49063  0.30076  1.0000
  H   H3        1.0  0.16031  0.25990  0.11981  1.0000
  Fe  Fe2       1.0  0.12954  0.36634  0.29111  1.0000
  S   S2        1.0  0.11936  0.40240  0.27071  1.0000
  S   S3        1.0  0.13832  0.33478  0.25386  1.0000
  Fe  Fe3       1.0  0.11568  0.37869  0.37348  1.0000
  S   S4        1.0  0.10429  0.41536  0.35835  1.0000
  S   S5        1.0  0.10574  0.36583  0.43146  1.0000
  Fe  Fe4       1.0  0.08821  0.40005  0.30873  1.0000
  S   S6        1.0  0.05284  0.41284  0.28976  1.0000
  Fe  Fe5       1.0  0.13658  0.41444  0.32231  1.0000
  S   S7        1.0  0.15740  0.44640  0.32467  1.0000
  S   S8        1.0  0.09707  0.36323  0.32584  1.0000
  S   S9        1.0  0.14950  0.37845  0.34064  1.0000
  C   C2        1.0  0.03184  0.39332  0.30290  1.0000
  H   H4        1.0  0.18545  0.27380  0.04536  1.0000
  H   H5        1.0  0.03465  0.34587  0.26358  1.0000
  H   H6        1.0  0.19627  0.31901  0.23193  1.0000
  H   H7        1.0  0.05250  0.37599  0.34508  1.0000
  C   C3        1.0  0.13927  0.47180  0.31961  1.0000
  H   H8        1.0  0.08409  0.33824  0.09706  1.0000
  H   H9        1.0  0.02702  0.34954  0.21567  1.0000
  H   H10       1.0  0.09560  0.45093  0.43064  1.0000
  C   C4        1.0  0.03663  0.47473  0.29509  1.0000
  C   C5        1.0  0.11718  0.47044  0.30470  1.0000
  C   C6        1.0  0.06466  0.32625  0.18601  1.0000
  C   C7        1.0  0.19076  0.30881  0.13929  1.0000
  H   H11       1.0  0.16367  0.49452  0.34292  1.0000
  H   H12       1.0  0.11142  0.45385  0.29554  1.0000
  C   C8        1.0  0.11735  0.37435  0.47430  1.0000
  C   C9        1.0  0.13838  0.38531  0.47614  1.0000
  H   H13       1.0  0.16880  0.29297  0.07585  1.0000
  C   C10       1.0  0.03719  0.33813  0.23531  1.0000
  H   H14       1.0  0.02476  0.34546  0.35737  1.0000
  H   H15       1.0  0.14808  0.38874  0.45075  1.0000
  H   H16       1.0  0.01675  0.44691  0.25300  1.0000
  C   C11       1.0  0.13371  0.33179  0.12587  1.0000
  C   C12       1.0  0.13506  0.35332  0.14399  1.0000
  C   C13       1.0  0.13565  0.35461  0.18319  1.0000
  C   C14       1.0  0.13538  0.33427  0.20469  1.0000
  C   C15       1.0  0.13370  0.31276  0.18660  1.0000
  C   C16       1.0  0.13258  0.31153  0.14743  1.0000
  H   H17       1.0  0.13593  0.36909  0.12756  1.0000
  H   H18       1.0  0.13710  0.37126  0.19666  1.0000
  H   H19       1.0  0.13357  0.29691  0.20296  1.0000
  H   H20       1.0  0.13137  0.29488  0.13391  1.0000
  H   H21       1.0  0.22363  0.24650  0.11522  1.0000
  H   H22       1.0  0.31114  0.10210  0.15228  1.0000
  C   C17       1.0  0.14662  0.49344  0.33116  1.0000
  H   H23       1.0  0.20656  0.25463  0.17307  1.0000
  H   H24       1.0  0.09333  0.31737  0.24204  1.0000
  C   C18       1.0  0.10526  0.36942  0.50758  1.0000
  H   H25       1.0  0.06916  0.36652  0.25641  1.0000
  H   H26       1.0  0.17442  0.24236  0.08356  1.0000
  H   H27       1.0  0.07452  0.32801  0.27939  1.0000
  C   C19       1.0  0.07425  0.33860  0.15544  1.0000
  C   C20       1.0  0.14349  0.45483  0.48320  1.0000
  H   H28       1.0  0.04995  0.29308  0.20040  1.0000
  C   C21       1.0  0.03663  0.37610  0.32977  1.0000
  H   H29       1.0  0.20675  0.27665  0.23122  1.0000
  C   C22       1.0  0.20223  0.27316  0.17197  1.0000
  H   H30       1.0  0.19869  0.29835  0.06380  1.0000
  N   N1        1.0  0.19428  0.27044  0.10347  1.0000
  H   H31       1.0  0.18343  0.23882  0.13031  1.0000
  H   H32       1.0  0.31519  0.09068  0.21881  1.0000
  S   S10       1.0  0.28493  0.08988  0.06567  1.0000
  C   C23       1.0  0.07141  0.35960  0.22754  1.0000
  H   H33       1.0  0.10389  0.48455  0.39607  1.0000
  H   H34       1.0  0.13020  0.45451  0.39184  1.0000
  H   H35       1.0  0.18651  0.33962  0.17342  1.0000
  H   H36       1.0  0.08081  0.35572  0.15830  1.0000
  H   H37       1.0  0.02925  0.32098  0.23648  1.0000
  H   H38       1.0  0.21656  0.24875  0.06717  1.0000
  C   C24       1.0  0.12891  0.50291  0.47566  1.0000
  H   H39       1.0  0.15668  0.46352  0.41083  1.0000
  H   H40       1.0  0.06218  0.37264  0.20932  1.0000
  H   H41       1.0  0.23061  0.27211  0.08935  1.0000
  C   C25       1.0  0.02062  0.35914  0.33744  1.0000
  C   C26       1.0  0.01043  0.39432  0.28524  1.0000
  C   C27       1.0  0.21729  0.25899  0.09350  1.0000
  H   H42       1.0  0.00646  0.40759  0.26455  1.0000
  S   S11       1.0  0.12535  0.26318  0.06002  1.0000
  C   C28       1.0  0.01141  0.25615  0.03787  1.0000
  H   H43       1.0  0.02656  0.46084  0.30846  1.0000
  C   C29       1.0  0.19679  0.30948  0.20585  1.0000
  C   C30       1.0  0.07476  0.32047  0.25083  1.0000
  C   C31       1.0  0.03388  0.25069  0.02326  1.0000
  C   C32       1.0  0.19592  0.28430  0.13796  1.0000
  S   S12       1.0  0.05819  0.25466  0.05136  1.0000
  Fe  Fe6       1.0  0.12731  0.29994  0.03985  1.0000
  H   H44       1.0  0.06720  0.30320  0.25359  1.0000
  H   H45       1.0  0.18549  0.31890  0.11511  1.0000
  H   H46       1.0  0.05482  0.37464  0.45578  1.0000
  H   H47       1.0  0.13538  0.47070  0.18100  1.0000
  N   N2        1.0  0.06215  0.33609  0.22409  1.0000
  C   C33       1.0  0.20249  0.28560  0.20539  1.0000
  C   C34       1.0  0.06918  0.30634  0.11368  1.0000
  C   C35       1.0  0.19127  0.32108  0.17281  1.0000
  C   C36       1.0  0.17741  0.25213  0.10963  1.0000
  H   H48       1.0  0.09041  0.35922  0.22094  1.0000
  C   C37       1.0  0.18647  0.28460  0.07087  1.0000
  H   H49       1.0  0.02180  0.36229  0.42089  1.0000
  C   C38       1.0  0.01928  0.36520  0.45047  1.0000
  H   H50       1.0  0.00940  0.26336  0.06556  1.0000
  H   H51       1.0  0.14740  0.43445  0.41846  1.0000
  C   C39       1.0  0.00697  0.46025  0.23779  1.0000
  C   C40       1.0  0.10699  0.44842  0.45513  1.0000
  H   H52       1.0  0.33072  0.08825  0.47564  1.0000
  H   H53       1.0  0.08587  0.48951  0.28829  1.0000
  C   C41       1.0  0.21889  0.20090  0.01127  1.0000
  H   H54       1.0  0.11092  0.42924  0.45771  1.0000
  H   H55       1.0  0.05452  0.27621  0.13776  1.0000
  C   C42       1.0  0.07628  0.32873  0.11985  1.0000
  H   H56       1.0  0.32786  0.05474  0.07368  1.0000
  Fe  Fe7       1.0  0.09318  0.26258  0.02514  1.0000
  C   C43       1.0  0.12242  0.48664  0.44844  1.0000
  N   N3        1.0  0.12852  0.46128  0.45113  1.0000
  H   H57       1.0  0.09667  0.45421  0.48035  1.0000
  H   H58       1.0  0.04719  0.48194  0.31752  1.0000
  Fe  Fe8       1.0  0.31756  0.10861  0.05471  1.0000
  C   C44       1.0  0.05969  0.29376  0.14292  1.0000
  C   C45       1.0  0.03826  0.37249  0.47015  1.0000
  H   H59       1.0  0.31705  0.03895  0.11241  1.0000
  H   H60       1.0  0.14949  0.48560  0.24039  1.0000
  C   C46       1.0  0.10948  0.49577  0.41789  1.0000
  C   C47       1.0  0.00769  0.48437  0.24625  1.0000
  C   C48       1.0  0.05730  0.30355  0.17856  1.0000
  H   H61       1.0  0.07132  0.29859  0.08624  1.0000
  H   H62       1.0  0.13857  0.49773  0.50006  1.0000
  C   C49       1.0  0.14124  0.45316  0.41677  1.0000
  C   C50       1.0  0.13397  0.48927  0.18661  1.0000
  H   H63       1.0  0.18302  0.14806  0.03687  1.0000
  H   H64       1.0  0.16299  0.18712  0.02749  1.0000
  H   H65       1.0  0.16011  0.46382  0.48174  1.0000
  S   S13       1.0  0.23076  0.13061  0.02995  1.0000
  C   C51       1.0  0.19316  0.16281  0.02993  1.0000
  C   C52       1.0  0.33012  0.09645  0.20327  1.0000
  C   C53       1.0  0.32779  0.10283  0.16549  1.0000
  C   C54       1.0  0.14196  0.49770  0.22003  1.0000
  H   H66       1.0  0.24907  0.17679  0.01492  1.0000
  C   C55       1.0  0.18172  0.18500  0.02459  1.0000
  H   H67       1.0  0.14831  0.43583  0.48366  1.0000
  C   C56       1.0  0.33091  0.05061  0.10346  1.0000
  Fe  Fe9       1.0  0.26827  0.11465  0.02318  1.0000
  H   H68       1.0  0.32837  0.06751  0.11815  1.0000
  C   C57       1.0  0.21752  0.15944  0.02571  1.0000
  N   N4        1.0  0.02121  0.49306  0.27746  1.0000
  H   H69       1.0  0.11796  0.49806  0.13454  1.0000
  S   S14       1.0  0.30032  0.13491  0.01567  1.0000
  C   C58       1.0  0.23034  0.17882  0.01712  1.0000
  C   C59       1.0  0.19450  0.20416  0.01463  1.0000
  H   H70       1.0  0.32608  0.04705  0.17354  1.0000
  S   S15       1.0  0.30477  0.02815  0.02445  1.0000
  C   C60       1.0  0.00485  0.50272  0.30667  1.0000
  C   C61       1.0  0.03613  0.37675  0.50829  1.0000
  C   C62       1.0  0.12414  0.50471  0.16055  1.0000
  C   C63       1.0  0.03646  0.24163  0.98722  1.0000
  H   H71       1.0  0.05523  0.32783  0.89906  1.0000
  H   H72       1.0  0.27150  0.12025  0.89347  1.0000
  C   C64       1.0  0.14719  0.39117  0.51106  1.0000
  H   H73       1.0  0.16275  0.30978  0.66728  1.0000
  H   H74       1.0  0.03909  0.34274  0.93686  1.0000
  Fe  Fe10      1.0  0.11544  0.28690  0.95862  1.0000
  S   S16       1.0  0.10093  0.29995  0.90300  1.0000
  S   S17       1.0  0.11282  0.24895  0.97388  1.0000
  Fe  Fe11      1.0  0.31004  0.10942  0.96928  1.0000
  S   S18       1.0  0.27719  0.09015  0.97492  1.0000
  H   H75       1.0  0.01879  0.23011  0.93872  1.0000
  H   H76       1.0  0.06131  0.49673  0.73308  1.0000
  H   H77       1.0  0.06217  0.32144  0.94591  1.0000
  H   H78       1.0  0.21717  0.36867  0.63335  1.0000
  C   C65       1.0  0.01668  0.23760  0.96630  1.0000
  N   N5        1.0  0.19044  0.34401  0.64102  1.0000
  C   C66       1.0  0.02033  0.30787  0.72867  1.0000
  Fe  Fe12      1.0  0.12298  0.37063  0.72011  1.0000
  S   S19       1.0  0.08547  0.38193  0.72935  1.0000
  S   S20       1.0  0.14564  0.35225  0.76367  1.0000
  Fe  Fe13      1.0  0.12391  0.38954  0.63974  1.0000
  S   S21       1.0  0.08654  0.40235  0.64285  1.0000
  S   S22       1.0  0.14612  0.39471  0.58757  1.0000
  Fe  Fe14      1.0  0.09426  0.41509  0.69999  1.0000
  S   S23       1.0  0.07589  0.44893  0.71885  1.0000
  Fe  Fe15      1.0  0.08097  0.36844  0.67157  1.0000
  S   S24       1.0  0.05068  0.34888  0.65386  1.0000
  S   S25       1.0  0.13246  0.40509  0.69515  1.0000
  S   S26       1.0  0.11767  0.35433  0.66415  1.0000
  C   C67       1.0  0.02690  0.36906  0.65612  1.0000
  C   C68       1.0  0.02720  0.38808  0.68024  1.0000
  H   H79       1.0  0.24514  0.11884  0.91935  1.0000
  H   H80       1.0  0.04211  0.39047  0.69710  1.0000
  H   H81       1.0  0.05778  0.28015  0.93212  1.0000
  C   C69       1.0  0.09078  0.47477  0.71409  1.0000
  H   H82       1.0  0.26139  0.02124  0.98478  1.0000
  H   H83       1.0  0.07035  0.46794  0.63678  1.0000
  H   H84       1.0  0.01812  0.29013  0.71737  1.0000
  H   H85       1.0  0.17823  0.15943  0.95281  1.0000
  C   C70       1.0  0.11379  0.47431  0.70078  1.0000
  C   C71       1.0  0.02153  0.35369  0.75895  1.0000
  C   C72       1.0  0.01498  0.37388  0.52683  1.0000
  H   H86       1.0  0.14294  0.49474  0.68614  1.0000
  H   H87       1.0  0.12287  0.45787  0.69386  1.0000
  H   H88       1.0  0.03066  0.46662  0.69820  1.0000
  C   C73       1.0  0.19110  0.16683  0.93445  1.0000
  H   H89       1.0  0.16895  0.19694  0.92113  1.0000
  C   C74       1.0  0.11395  0.31500  0.86533  1.0000
  C   C75       1.0  0.09979  0.32302  0.83595  1.0000
  C   C76       1.0  0.10921  0.33473  0.80505  1.0000
  C   C77       1.0  0.13302  0.33836  0.80294  1.0000
  C   C78       1.0  0.14721  0.33031  0.83229  1.0000
  C   C79       1.0  0.13773  0.31881  0.86346  1.0000
  H   H90       1.0  0.08142  0.32006  0.83697  1.0000
  H   H91       1.0  0.09811  0.34065  0.78261  1.0000
  H   H92       1.0  0.16564  0.33302  0.83094  1.0000
  H   H93       1.0  0.14884  0.31270  0.88581  1.0000
  C   C80       1.0  0.07916  0.49624  0.72294  1.0000
  H   H94       1.0  0.00701  0.48733  0.69021  1.0000
  C   C81       1.0  0.02282  0.37631  0.77273  1.0000
  C   C82       1.0  0.16716  0.33704  0.58275  1.0000
  H   H95       1.0  0.03115  0.27042  0.91477  1.0000
  H   H96       1.0  0.22904  0.21557  0.00389  1.0000
  H   H97       1.0  0.22184  0.33569  0.67145  1.0000
  S   S27       1.0  0.14898  0.29024  0.98858  1.0000
  H   H98       1.0  0.27349  0.18261  0.88370  1.0000
  C   C83       1.0  0.06233  0.48519  0.63270  1.0000
  H   H99       1.0  0.13304  0.28992  0.63437  1.0000
  H   H100      1.0  0.21535  0.31477  0.63638  1.0000
  Fe  Fe16      1.0  0.14543  0.25281  0.00720  1.0000
  H   H101      1.0  0.14538  0.33051  0.53623  1.0000
  H   H102      1.0  0.04012  0.44773  0.60159  1.0000
  H   H103      1.0  0.12398  0.30017  0.56902  1.0000
  H   H104      1.0  0.19841  0.21446  0.88046  1.0000
  C   C84       1.0  0.07742  0.50323  0.62773  1.0000
  C   C85       1.0  0.26986  0.16433  0.87682  1.0000
  H   H105      1.0  0.17530  0.35051  0.56699  1.0000
  H   H106      1.0  0.26224  0.16374  0.84863  1.0000
  H   H107      1.0  0.00767  0.41750  0.70408  1.0000
  H   H108      1.0  0.28365  0.14951  0.94176  1.0000
  H   H109      1.0  0.19116  0.36752  0.68790  1.0000
  N   N6        1.0  0.25446  0.15398  0.90544  1.0000
  H   H110      1.0  0.02120  0.34430  0.87777  1.0000
  H   H111      1.0  0.03062  0.30543  0.75442  1.0000
  H   H112      1.0  0.24423  0.12609  0.87056  1.0000
  C   C86       1.0  0.25368  0.12877  0.89678  1.0000
  C   C87       1.0  0.13770  0.30860  0.58304  1.0000
  H   H113      1.0  0.09608  0.49945  0.62766  1.0000
  H   H114      1.0  0.21269  0.35076  0.59354  1.0000
  C   C88       1.0  0.23069  0.16525  0.90733  1.0000
  C   C89       1.0  0.22466  0.18671  0.88905  1.0000
  C   C90       1.0  0.21322  0.15574  0.93036  1.0000
  C   C91       1.0  0.20254  0.19782  0.89384  1.0000
  H   H115      1.0  0.01223  0.28870  0.97173  1.0000
  C   C92       1.0  0.18584  0.18795  0.91660  1.0000
  H   H116      1.0  0.25607  0.14684  0.96443  1.0000
  H   H117      1.0  0.26512  0.17506  0.95068  1.0000
  H   H118      1.0  0.01344  0.37730  0.55651  1.0000
  H   H119      1.0  0.23684  0.19555  0.87156  1.0000
  C   C93       1.0  0.26528  0.15645  0.94214  1.0000
  C   C94       1.0  0.16011  0.31418  0.63830  1.0000
  H   H120      1.0  0.28724  0.15471  0.87500  1.0000
  C   C95       1.0  0.12513  0.49521  0.69642  1.0000
  C   C96       1.0  0.14288  0.30282  0.61979  1.0000
  H   H121      1.0  0.01291  0.31949  0.97861  1.0000
  H   H122      1.0  0.19214  0.37460  0.60611  1.0000
  H   H123      1.0  0.05368  0.23712  0.97584  1.0000
  C   C97       1.0  0.11374  0.37584  0.54235  1.0000
  C   C98       1.0  0.02310  0.30385  0.96772  1.0000
  H   H124      1.0  0.16595  0.37123  0.65950  1.0000
  H   H125      1.0  0.03790  0.34386  0.75457  1.0000
  C   C99       1.0  0.01513  0.47035  0.68075  1.0000
  H   H126      1.0  0.19950  0.31629  0.68016  1.0000
  C   C100      1.0  0.14983  0.32564  0.56458  1.0000
  C   C101      1.0  0.17283  0.33166  0.62035  1.0000
  N   N7        1.0  0.02158  0.47085  0.64062  1.0000
  N   N8        1.0  0.03031  0.30714  0.92814  1.0000
  S   S28       1.0  0.18121  0.23245  0.00557  1.0000
  H   H127      1.0  0.21677  0.14015  0.94674  1.0000
  C   C102      1.0  0.04724  0.32572  0.92733  1.0000
  C   C103      1.0  0.20749  0.32692  0.65787  1.0000
  H   H128      1.0  0.16898  0.34713  0.69125  1.0000
  H   H129      1.0  0.03836  0.30037  0.98596  1.0000
  C   C104      1.0  0.33374  0.08273  0.53463  1.0000
  C   C105      1.0  0.03208  0.44748  0.63002  1.0000
  H   H130      1.0  0.10420  0.37197  0.56773  1.0000
  C   C106      1.0  0.17867  0.35801  0.67122  1.0000
  C   C107      1.0  0.20370  0.36012  0.61731  1.0000
  C   C108      1.0  0.13476  0.38676  0.54424  1.0000
  H   H131      1.0  0.04547  0.44098  0.65012  1.0000
  C   C109      1.0  0.04259  0.28533  0.91456  1.0000
  H   H132      1.0  0.04942  0.28739  0.88553  1.0000
  C   C110      1.0  0.03779  0.48966  0.63410  1.0000
  H   H133      1.0  0.03963  0.38298  0.77846  1.0000
  C   C111      1.0  0.00759  0.36628  0.63404  1.0000
  H   H134      1.0  0.00750  0.35179  0.61488  1.0000
  S   S29       1.0  0.33001  0.08521  0.00740  1.0000
  C   C112      1.0  0.00756  0.33228  0.88106  1.0000
  S   S30       1.0  0.32244  0.12442  0.91361  1.0000
  C   C113      1.0  0.00773  0.40357  0.68394  1.0000
  H   H135      1.0  0.31920  0.09480  0.54178  1.0000
  H   H136      1.0  0.03085  0.31717  0.70748  1.0000
  H   H137      1.0  0.05092  0.38222  0.52356  1.0000
  S   S31       1.0  0.09418  0.29998  0.00826  1.0000
  H   H138      1.0  0.01901  0.43398  0.63004  1.0000
  C   C114      1.0  0.00962  0.31252  0.90511  1.0000
  H   H139      1.0  0.16373  0.39911  0.51241  1.0000
  H   H140      1.0  0.00395  0.40840  0.78746  1.0000
  H   H141      1.0  0.00402  0.47802  0.58904  1.0000
  H   H142      1.0  0.13444  0.45880  0.51037  1.0000
  H   H143      1.0  0.04554  0.66017  0.03200  1.0000
  C   C115      1.0  0.01611  0.57541  0.30516  1.0000
  H   H144      1.0  0.01310  0.68486  0.01464  1.0000
  H   H145      1.0  0.09369  0.56756  0.18301  1.0000
  S   S32       1.0  0.10394  0.66994  0.11202  1.0000
  C   C116      1.0  0.16152  0.66175  0.35253  1.0000
  Fe  Fe17      1.0  0.12229  0.61729  0.31154  1.0000
  S   S33       1.0  0.08905  0.60231  0.29551  1.0000
  S   S34       1.0  0.14507  0.63431  0.26759  1.0000
  Fe  Fe18      1.0  0.11616  0.60155  0.39322  1.0000
  S   S35       1.0  0.08241  0.58559  0.38278  1.0000
  S   S36       1.0  0.13130  0.59747  0.45085  1.0000
  Fe  Fe19      1.0  0.09994  0.57149  0.33057  1.0000
  S   S37       1.0  0.09078  0.53690  0.30728  1.0000
  Fe  Fe20      1.0  0.07463  0.61769  0.34870  1.0000
  S   S38       1.0  0.03906  0.63501  0.34603  1.0000
  S   S39       1.0  0.13473  0.58497  0.34308  1.0000
  S   S40       1.0  0.10702  0.63522  0.36307  1.0000
  C   C117      1.0  0.02237  0.61522  0.32297  1.0000
  S   S41       1.0  0.09505  0.68339  0.01220  1.0000
  C   C118      1.0  0.02975  0.59162  0.32186  1.0000
  C   C119      1.0  0.10377  0.51967  0.41447  1.0000
  H   H146      1.0  0.04580  0.58564  0.33435  1.0000
  C   C120      1.0  0.11364  0.60335  0.49109  1.0000
  C   C121      1.0  0.09112  0.61364  0.48860  1.0000
  Fe  Fe21      1.0  0.30101  0.86590  0.03411  1.0000
  H   H147      1.0  0.26234  0.84084  0.09589  1.0000
  H   H148      1.0  0.14058  0.68577  0.38522  1.0000
  H   H149      1.0  0.08381  0.61730  0.46153  1.0000
  H   H150      1.0  0.20362  0.76029  0.13673  1.0000
  C   C122      1.0  0.11619  0.66043  0.15488  1.0000
  C   C123      1.0  0.13962  0.66256  0.16316  1.0000
  C   C124      1.0  0.14828  0.65449  0.19773  1.0000
  C   C125      1.0  0.13362  0.64440  0.22440  1.0000
  C   C126      1.0  0.11025  0.64227  0.21599  1.0000
  C   C127      1.0  0.10166  0.65011  0.18143  1.0000
  H   H151      1.0  0.15102  0.67041  0.14297  1.0000
  H   H152      1.0  0.16640  0.65622  0.20387  1.0000
  H   H153      1.0  0.09863  0.63492  0.23626  1.0000
  H   H154      1.0  0.08351  0.64842  0.17545  1.0000
  H   H155      1.0  0.12851  0.53904  0.49252  1.0000
  C   C128      1.0  0.33015  0.86221  0.16186  1.0000
  C   C129      1.0  0.15648  0.65844  0.42055  1.0000
  H   H156      1.0  0.02587  0.52757  0.25456  1.0000
  C   C130      1.0  0.18011  0.62907  0.38459  1.0000
  H   H157      1.0  0.26900  0.80979  0.03087  1.0000
  C   C131      1.0  0.32343  0.97136  0.15932  1.0000
  H   H158      1.0  0.25879  0.77139  0.03116  1.0000
  C   C132      1.0  0.27959  0.79926  0.12207  1.0000
  H   H159      1.0  0.09250  0.56116  0.23204  1.0000
  H   H160      1.0  0.29805  0.99090  0.12625  1.0000
  H   H161      1.0  0.09930  0.58969  0.21569  1.0000
  C   C133      1.0  0.31152  0.93295  0.11758  1.0000
  H   H162      1.0  0.13124  0.57461  0.15191  1.0000
  C   C134      1.0  0.13683  0.56995  0.24548  1.0000
  H   H163      1.0  0.03928  0.64018  0.06906  1.0000
  H   H164      1.0  0.23132  0.79079  0.14147  1.0000
  C   C135      1.0  0.10983  0.51222  0.31260  1.0000
  H   H165      1.0  0.15742  0.67067  0.32654  1.0000
  C   C136      1.0  0.24770  0.76939  0.05550  1.0000
  H   H166      1.0  0.02664  0.68644  0.14061  1.0000
  H   H167      1.0  0.04240  0.70166  0.04187  1.0000
  H   H168      1.0  0.29239  0.81306  0.12422  1.0000
  C   C137      1.0  0.01682  0.59072  0.49852  1.0000
  H   H169      1.0  0.31384  0.85788  0.17494  1.0000
  C   C138      1.0  0.15359  0.65434  0.48942  1.0000
  H   H170      1.0  0.04410  0.59722  0.45870  1.0000
  H   H171      1.0  0.23153  0.74100  0.02908  1.0000
  H   H172      1.0  0.28960  0.78217  0.11957  1.0000
  H   H173      1.0  0.11472  0.79813  0.01296  1.0000
  H   H174      1.0  0.15586  0.56554  0.24667  1.0000
  Fe  Fe22      1.0  0.11739  0.68988  0.06131  1.0000
  H   H175      1.0  0.30683  0.91798  0.10147  1.0000
  S   S42       1.0  0.11151  0.72864  0.05577  1.0000
  S   S43       1.0  0.30680  0.85979  0.09629  1.0000
  C   C139      1.0  0.03613  0.51179  0.26418  1.0000
  N   N9        1.0  0.26423  0.80339  0.08976  1.0000
  H   H176      1.0  0.13440  0.58904  0.25030  1.0000
  H   H177      1.0  0.23856  0.82942  0.07189  1.0000
  H   H178      1.0  0.28751  0.95686  0.08982  1.0000
  H   H179      1.0  0.15786  0.57054  0.17702  1.0000
  C   C140      1.0  0.02552  0.59860  0.46453  1.0000
  H   H180      1.0  0.03181  0.65529  0.13328  1.0000
  H   H181      1.0  0.32823  0.93383  0.23662  1.0000
  H   H182      1.0  0.19053  0.61276  0.38365  1.0000
  C   C141      1.0  0.00758  0.67576  0.07324  1.0000
  H   H183      1.0  0.18362  0.80345  0.04767  1.0000
  C   C142      1.0  0.12316  0.52678  0.47184  1.0000
  C   C143      1.0  0.10210  0.57067  0.20995  1.0000
  C   C144      1.0  0.14011  0.52159  0.22766  1.0000
  N   N10       1.0  0.12719  0.56321  0.20929  1.0000
  H   H184      1.0  0.14654  0.52676  0.25423  1.0000
  H   H185      1.0  0.01800  0.61287  0.41122  1.0000
  C   C145      1.0  0.23203  0.75172  0.05383  1.0000
  C   C146      1.0  0.01036  0.60789  0.43764  1.0000
  H   H186      1.0  0.02176  0.55717  0.30526  1.0000
  N   N11       1.0  0.03239  0.67630  0.08318  1.0000
  C   C147      1.0  0.03650  0.67287  0.12365  1.0000
  S   S44       1.0  0.15068  0.68918  0.02677  1.0000
  C   C148      1.0  0.04159  0.69907  0.07250  1.0000
  C   C149      1.0  0.33480  0.94923  0.16681  1.0000
  H   H187      1.0  0.20342  0.73544  0.08073  1.0000
  H   H188      1.0  0.06470  0.65690  0.07024  1.0000
  H   H189      1.0  0.14889  0.63586  0.48887  1.0000
  H   H190      1.0  0.13832  0.59554  0.18564  1.0000
  H   H191      1.0  0.12792  0.56143  0.26927  1.0000
  H   H192      1.0  0.32700  0.98686  0.17459  1.0000
  H   H193      1.0  0.14334  0.69885  0.48859  1.0000
  H   H194      1.0  0.05520  0.67415  0.13032  1.0000
  C   C150      1.0  0.11990  0.66536  0.45379  1.0000
  C   C151      1.0  0.15030  0.69215  0.46123  1.0000
  C   C152      1.0  0.15205  0.67027  0.38635  1.0000
  C   C153      1.0  0.13181  0.51364  0.32801  1.0000
  H   H195      1.0  0.05977  0.70065  0.08192  1.0000
  H   H196      1.0  0.26971  0.79935  0.14900  1.0000
  H   H197      1.0  0.13743  0.53024  0.33735  1.0000
  C   C154      1.0  0.13915  0.57644  0.17963  1.0000
  N   N12       1.0  0.14540  0.66730  0.45578  1.0000
  C   C155      1.0  0.12216  0.52865  0.16793  1.0000
  C   C156      1.0  0.17079  0.63745  0.41861  1.0000
  C   C157      1.0  0.13002  0.53785  0.20180  1.0000
  C   C158      1.0  0.30068  0.95480  0.11095  1.0000
  H   H198      1.0  0.31748  0.97997  0.03326  1.0000
  C   C159      1.0  0.27941  0.80570  0.05612  1.0000
  C   C160      1.0  0.11071  0.53513  0.44130  1.0000
  H   H199      1.0  0.29135  0.82009  0.05911  1.0000
  C   C161      1.0  0.25077  0.82597  0.09509  1.0000
  C   C162      1.0  0.24811  0.78429  0.08705  1.0000
  C   C163      1.0  0.04600  0.65756  0.06273  1.0000
  H   H200      1.0  0.11426  0.53992  0.14700  1.0000
  H   H201      1.0  0.21554  0.82592  0.02031  1.0000
  H   H202      1.0  0.09416  0.52629  0.39062  1.0000
  C   C164      1.0  0.23203  0.78022  0.11660  1.0000
  S   S45       1.0  0.16460  0.75996  0.02911  1.0000
  C   C165      1.0  0.17551  0.64120  0.35166  1.0000
  H   H203      1.0  0.17277  0.65474  0.49214  1.0000
  H   H204      1.0  0.17451  0.62674  0.44277  1.0000
  H   H205      1.0  0.16938  0.69447  0.46022  1.0000
  C   C166      1.0  0.21621  0.76270  0.11435  1.0000
  C   C167      1.0  0.33171  0.86443  0.12283  1.0000
  H   H206      1.0  0.03067  0.71389  0.08456  1.0000
  H   H207      1.0  0.11078  0.67044  0.48047  1.0000
  H   H208      1.0  0.29067  0.78963  0.05087  1.0000
  C   C168      1.0  0.21617  0.74854  0.08296  1.0000
  H   H209      1.0  0.18233  0.63441  0.32520  1.0000
  H   H210      1.0  0.11574  0.64711  0.44767  1.0000
  Fe  Fe23      1.0  0.14321  0.72807  0.01748  1.0000
  H   H211      1.0  0.11206  0.67644  0.43135  1.0000
  H   H212      1.0  0.10654  0.55367  0.43845  1.0000
  S   S46       1.0  0.26277  0.87158  0.02232  1.0000
  C   C169      1.0  0.30666  0.97397  0.13165  1.0000
  H   H213      1.0  0.14219  0.70379  0.43980  1.0000
  C   C170      1.0  0.19329  0.79675  0.02346  1.0000
  H   H214      1.0  0.24047  0.82670  0.12157  1.0000
  C   C171      1.0  0.30121  0.98114  0.01870  1.0000
  C   C172      1.0  0.32832  0.93017  0.14500  1.0000
  H   H215      1.0  0.04726  0.51796  0.28672  1.0000
  H   H216      1.0  0.01421  0.50951  0.33082  1.0000
  H   H217      1.0  0.29889  0.94387  0.01614  1.0000
  H   H218      1.0  0.04784  0.50558  0.24078  1.0000
  H   H219      1.0  0.33618  0.91285  0.14905  1.0000
  C   C173      1.0  0.29072  0.00313  0.01021  1.0000
  Fe  Fe24      1.0  0.31453  0.87060  0.95050  1.0000
  S   S47       1.0  0.27726  0.87605  0.93409  1.0000
  H   H220      1.0  0.19226  0.56200  0.81708  1.0000
  C   C174      1.0  0.08369  0.76968  0.92578  1.0000
  C   C175      1.0  0.01063  0.54016  0.71720  1.0000
  H   H221      1.0  0.08055  0.54017  0.62228  1.0000
  H   H222      1.0  0.02861  0.58345  0.51926  1.0000
  C   C176      1.0  0.21859  0.77973  0.96145  1.0000
  H   H223      1.0  0.15552  0.58017  0.73740  1.0000
  C   C177      1.0  0.14724  0.57406  0.81156  1.0000
  H   H224      1.0  0.33569  0.94131  0.56271  1.0000
  C   C178      1.0  0.30820  0.97184  0.89139  1.0000
  C   C179      1.0  0.09042  0.51716  0.71819  1.0000
  H   H225      1.0  0.00438  0.63697  0.83821  1.0000
  C   C180      1.0  0.31182  0.93954  0.84527  1.0000
  Fe  Fe25      1.0  0.12758  0.68503  0.97708  1.0000
  S   S48       1.0  0.13189  0.65515  0.93571  1.0000
  S   S49       1.0  0.12236  0.72348  0.96565  1.0000
  Fe  Fe26      1.0  0.06120  0.60153  0.72948  1.0000
  S   S50       1.0  0.07128  0.63536  0.70472  1.0000
  S   S51       1.0  0.02663  0.60202  0.75958  1.0000
  Fe  Fe27      1.0  0.10575  0.57602  0.70319  1.0000
  S   S52       1.0  0.11967  0.60819  0.67701  1.0000
  C   C181      1.0  0.03777  0.71117  0.95359  1.0000
  Fe  Fe28      1.0  0.10598  0.62618  0.72959  1.0000
  S   S53       1.0  0.12521  0.65379  0.75964  1.0000
  Fe  Fe29      1.0  0.08363  0.61414  0.65481  1.0000
  S   S54       1.0  0.07139  0.62461  0.59693  1.0000
  S   S55       1.0  0.09508  0.59339  0.75739  1.0000
  S   S56       1.0  0.07060  0.58088  0.67785  1.0000
  S   S57       1.0  0.25597  0.93612  0.97745  1.0000
  C   C182      1.0  0.26958  0.96174  0.99039  1.0000
  C   C183      1.0  0.02306  0.55797  0.73248  1.0000
  C   C184      1.0  0.31159  0.93210  0.91172  1.0000
  H   H226      1.0  0.04180  0.55598  0.73393  1.0000
  H   H227      1.0  0.14551  0.80851  0.97360  1.0000
  H   H228      1.0  0.29708  0.90536  0.84885  1.0000
  H   H229      1.0  0.33152  0.83298  0.79621  1.0000
  C   C185      1.0  0.12612  0.65776  0.88756  1.0000
  C   C186      1.0  0.11497  0.63981  0.86997  1.0000
  C   C187      1.0  0.11338  0.63916  0.83090  1.0000
  C   C188      1.0  0.12349  0.65617  0.80891  1.0000
  C   C189      1.0  0.13403  0.67455  0.82652  1.0000
  C   C190      1.0  0.13515  0.67549  0.86572  1.0000
  H   H230      1.0  0.10795  0.62605  0.88667  1.0000
  H   H231      1.0  0.10507  0.62502  0.81785  1.0000
  H   H232      1.0  0.14193  0.68777  0.80974  1.0000
  H   H233      1.0  0.14408  0.68922  0.87890  1.0000
  C   C191      1.0  0.11681  0.57060  0.86001  1.0000
  H   H234      1.0  0.14540  0.66168  0.51555  1.0000
  S   S58       1.0  0.05670  0.74225  0.00121  1.0000
  H   H235      1.0  0.27055  0.92919  0.88180  1.0000
  H   H236      1.0  0.08980  0.78441  0.99682  1.0000
  H   H237      1.0  0.01992  0.52457  0.70692  1.0000
  C   C192      1.0  0.03358  0.72947  0.97883  1.0000
  C   C193      1.0  0.10877  0.55117  0.84226  1.0000
  N   N13       1.0  0.30231  0.94773  0.88193  1.0000
  H   H238      1.0  0.26853  0.95538  0.90789  1.0000
  C   C194      1.0  0.10715  0.77607  0.92583  1.0000
  C   C195      1.0  0.33527  0.93852  0.53201  1.0000
  H   H239      1.0  0.02184  0.64520  0.69055  1.0000
  C   C196      1.0  0.31562  0.90893  0.79750  1.0000
  C   C197      1.0  0.18746  0.77546  0.00775  1.0000
  H   H240      1.0  0.14100  0.59689  0.86024  1.0000
  H   H241      1.0  0.33095  0.93120  0.91155  1.0000
  S   S59       1.0  0.24885  0.81541  0.95828  1.0000
  C   C198      1.0  0.18740  0.56982  0.78969  1.0000
  C   C199      1.0  0.09206  0.74190  0.87610  1.0000
  C   C200      1.0  0.12254  0.76527  0.89861  1.0000
  C   C201      1.0  0.04476  0.53132  0.62716  1.0000
  C   C202      1.0  0.07825  0.61984  0.52125  1.0000
  H   H242      1.0  0.14399  0.60673  0.75835  1.0000
  C   C203      1.0  0.10877  0.78584  0.99173  1.0000
  H   H243      1.0  0.24274  0.98485  0.96735  1.0000
  H   H244      1.0  0.03803  0.54931  0.62627  1.0000
  H   H245      1.0  0.14572  0.80401  0.92434  1.0000
  H   H246      1.0  0.08646  0.72837  0.85787  1.0000
  C   C204      1.0  0.13892  0.55391  0.79477  1.0000
  H   H247      1.0  0.33032  0.97064  0.82916  1.0000
  H   H248      1.0  0.19585  0.75090  0.96373  1.0000
  C   C205      1.0  0.06867  0.52623  0.62498  1.0000
  H   H249      1.0  0.00724  0.75206  0.00582  1.0000
  C   C206      1.0  0.11989  0.54277  0.80979  1.0000
  H   H250      1.0  0.20270  0.57867  0.77817  1.0000
  S   S60       1.0  0.12793  0.54259  0.69812  1.0000
  H   H251      1.0  0.14674  0.54685  0.76931  1.0000
  H   H252      1.0  0.10578  0.82209  0.91678  1.0000
  H   H253      1.0  0.30070  0.97735  0.91914  1.0000
  H   H254      1.0  0.01122  0.51847  0.63489  1.0000
  H   H255      1.0  0.08327  0.81555  0.94994  1.0000
  S   S61       1.0  0.30766  0.83977  0.98772  1.0000
  H   H256      1.0  0.18446  0.55528  0.77027  1.0000
  H   H257      1.0  0.12716  0.73977  0.85461  1.0000
  C   C207      1.0  0.08767  0.61556  0.55662  1.0000
  H   H258      1.0  0.26906  0.95684  0.85794  1.0000
  C   C208      1.0  0.10997  0.60477  0.55907  1.0000
  H   H259      1.0  0.05855  0.74754  0.90312  1.0000
  H   H260      1.0  0.22842  0.77294  0.93745  1.0000
  Fe  Fe30      1.0  0.27393  0.90006  0.98366  1.0000
  Fe  Fe31      1.0  0.26966  0.84688  0.97445  1.0000
  H   H261      1.0  0.08130  0.53364  0.72480  1.0000
  C   C209      1.0  0.10243  0.81621  0.94592  1.0000
  C   C210      1.0  0.32926  0.92280  0.77510  1.0000
  C   C211      1.0  0.22470  0.80082  0.97756  1.0000
  C   C212      1.0  0.11501  0.74835  0.87437  1.0000
  H   H262      1.0  0.30631  0.91395  0.90857  1.0000
  H   H263      1.0  0.15907  0.62026  0.81778  1.0000
  C   C213      1.0  0.11343  0.51668  0.70483  1.0000
  N   N14       1.0  0.11465  0.79330  0.95312  1.0000
  H   H264      1.0  0.00650  0.66496  0.65951  1.0000
  H   H265      1.0  0.32349  0.84396  0.86240  1.0000
  S   S62       1.0  0.31140  0.89596  0.99858  1.0000
  H   H266      1.0  0.10808  0.57718  0.88524  1.0000
  C   C214      1.0  0.13582  0.58189  0.84513  1.0000
  H   H267      1.0  0.14064  0.76909  0.89608  1.0000
  H   H268      1.0  0.17945  0.60171  0.84362  1.0000
  H   H269      1.0  0.10817  0.82987  0.96508  1.0000
  H   H270      1.0  0.11354  0.52777  0.79567  1.0000
  C   C215      1.0  0.17362  0.60671  0.81517  1.0000
  C   C216      1.0  0.20006  0.76718  0.97626  1.0000
  H   H271      1.0  0.17358  0.60428  0.74210  1.0000
  H   H272      1.0  0.18816  0.61549  0.80109  1.0000
  H   H273      1.0  0.07083  0.77731  0.94517  1.0000
  H   H274      1.0  0.02674  0.60577  0.62973  1.0000
  N   N15       1.0  0.16666  0.58620  0.79380  1.0000
  C   C217      1.0  0.07639  0.75269  0.90154  1.0000
  C   C218      1.0  0.12292  0.59881  0.52643  1.0000
  H   H275      1.0  0.09382  0.54268  0.85355  1.0000
  H   H276      1.0  0.30519  0.93787  0.93985  1.0000
  H   H277      1.0  0.11739  0.60137  0.58614  1.0000
  C   C219      1.0  0.15971  0.59460  0.75630  1.0000
  C   C220      1.0  0.14008  0.79651  0.95147  1.0000
  C   C221      1.0  0.27656  0.94724  0.88226  1.0000
  H   H278      1.0  0.30113  0.98472  0.87070  1.0000
  H   H279      1.0  0.05543  0.70454  0.94766  1.0000
  H   H280      1.0  0.02061  0.60181  0.67819  1.0000
  C   C222      1.0  0.33429  0.94495  0.78712  1.0000
  C   C223      1.0  0.01914  0.70197  0.93493  1.0000
  C   C224      1.0  0.01060  0.73795  0.98622  1.0000
  H   H281      1.0  0.02260  0.68827  0.91464  1.0000
  C   C225      1.0  0.01528  0.64727  0.66166  1.0000
  C   C226      1.0  0.30712  0.91704  0.83215  1.0000
  H   H282      1.0  0.03106  0.64672  0.64319  1.0000
  C   C227      1.0  0.32572  0.95334  0.82164  1.0000
  C   C228      1.0  0.33557  0.85355  0.84568  1.0000
  H   H283      1.0  0.02179  0.63650  0.58567  1.0000
  H   H284      1.0  0.32734  0.97326  0.89316  1.0000
  H   H285      1.0  0.00493  0.64547  0.52521  1.0000
  H   H286      1.0  0.14033  0.59087  0.52862  1.0000
  H   H287      1.0  0.31210  0.89152  0.78835  1.0000
  C   C229      1.0  0.21163  0.80943  0.00834  1.0000
  H   H288      1.0  0.06101  0.62817  0.51912  1.0000
  Fe  Fe32      1.0  0.09140  0.72188  0.00467  1.0000
  H   H289      1.0  0.31759  0.93303  0.52544  1.0000
  H   H290      1.0  0.15017  0.77966  0.95608  1.0000
  C   C230      1.0  0.01124  0.57833  0.74562  1.0000
  C   C231      1.0  0.25914  0.98375  0.98158  1.0000
  H   H291      1.0  0.33410  0.89207  0.53950  1.0000
  C   C232      1.0  0.01241  0.60610  0.65106  1.0000
  H   H292      1.0  0.11737  0.76856  0.99816  1.0000
  C   C233      1.0  0.02949  0.51338  0.63178  1.0000
  C   C234      1.0  0.26967  0.00440  0.99139  1.0000
  H   H293      1.0  0.33617  0.91623  0.74856  1.0000
  C   C235      1.0  0.29073  0.96058  0.00888  1.0000
  Fe  Fe33      1.0  0.58937  0.06913  0.33898  1.0000
  S   S63       1.0  0.59912  0.10610  0.33096  1.0000
  S   S64       1.0  0.55346  0.05542  0.34544  1.0000
  Fe  Fe34      1.0  0.63935  0.05181  0.34965  1.0000
  S   S65       1.0  0.65328  0.08724  0.34274  1.0000
  H   H294      1.0  0.61172  0.01828  0.35782  1.0000
  Fe  Fe35      1.0  0.62268  0.09892  0.37934  1.0000
  S   S66       1.0  0.62509  0.12544  0.42519  1.0000
  Fe  Fe36      1.0  0.62884  0.09093  0.29470  1.0000
  S   S67       1.0  0.63903  0.10953  0.24096  1.0000
  S   S68       1.0  0.61091  0.06326  0.38989  1.0000
  S   S69       1.0  0.61701  0.05435  0.29905  1.0000
  Fe  Fe37      1.0  0.40891  0.06351  0.36950  1.0000
  S   S70       1.0  0.37253  0.07913  0.36802  1.0000
  C   C236      1.0  0.35376  0.14364  0.50299  1.0000
  Fe  Fe38      1.0  0.42977  0.10563  0.33666  1.0000
  S   S71       1.0  0.39496  0.12523  0.33184  1.0000
  S   S72       1.0  0.46348  0.12235  0.32315  1.0000
  Fe  Fe39      1.0  0.38798  0.11115  0.38945  1.0000
  S   S73       1.0  0.36949  0.13420  0.43272  1.0000
  Fe  Fe40      1.0  0.38232  0.09159  0.31029  1.0000
  H   H295      1.0  0.61769  0.08704  0.48017  1.0000
  S   S74       1.0  0.42365  0.09453  0.39579  1.0000
  S   S75       1.0  0.41789  0.07294  0.31042  1.0000
  C   C237      1.0  0.36993  0.13017  0.48154  1.0000
  H   H296      1.0  0.41802  0.21794  0.41052  1.0000
  C   C238      1.0  0.38783  0.01934  0.48018  1.0000
  C   C239      1.0  0.36837  0.11138  0.16292  1.0000
  C   C240      1.0  0.62254  0.14504  0.49356  1.0000
  H   H297      1.0  0.43240  0.20978  0.36750  1.0000
  H   H298      1.0  0.60394  0.12058  0.18006  1.0000
  C   C241      1.0  0.41134  0.05251  0.48619  1.0000
  C   C242      1.0  0.52885  0.07467  0.34005  1.0000
  C   C243      1.0  0.50696  0.06737  0.35124  1.0000
  C   C244      1.0  0.48686  0.08197  0.34632  1.0000
  C   C245      1.0  0.48856  0.10402  0.33022  1.0000
  C   C246      1.0  0.51053  0.11155  0.31972  1.0000
  C   C247      1.0  0.53065  0.09690  0.32459  1.0000
  H   H299      1.0  0.50546  0.05026  0.36348  1.0000
  H   H300      1.0  0.47003  0.07604  0.35466  1.0000
  H   H301      1.0  0.51192  0.12857  0.30714  1.0000
  H   H302      1.0  0.54743  0.10262  0.31558  1.0000
  C   C248      1.0  0.63333  0.00612  0.46535  1.0000
  C   C249      1.0  0.55014  0.11456  0.48115  1.0000
  H   H303      1.0  0.63011  0.14824  0.07828  1.0000
  C   C250      1.0  0.62172  0.12401  0.47436  1.0000
  C   C251      1.0  0.45734  0.01058  0.31575  1.0000
  N   N16       1.0  0.42050  0.18088  0.39984  1.0000
  C   C252      1.0  0.39728  0.18172  0.38255  1.0000
  H   H304      1.0  0.51210  0.02537  0.29587  1.0000
  C   C253      1.0  0.62306  0.09413  0.01773  1.0000
  H   H305      1.0  0.62016  0.04196  0.46807  1.0000
  C   C254      1.0  0.38581  0.11465  0.49944  1.0000
  H   H306      1.0  0.42737  0.04197  0.47760  1.0000
  H   H307      1.0  0.38940  0.16457  0.38491  1.0000
  H   H308      1.0  0.65765  0.06197  0.22584  1.0000
  H   H309      1.0  0.60996  0.08054  0.15601  1.0000
  H   H310      1.0  0.62570  0.07334  0.09311  1.0000
  C   C255      1.0  0.35641  0.01768  0.08760  1.0000
  H   H311      1.0  0.51234  0.12771  0.44347  1.0000
  C   C256      1.0  0.34968  0.03678  0.21550  1.0000
  H   H312      1.0  0.39825  0.18608  0.35231  1.0000
  C   C257      1.0  0.61388  0.09511  0.13810  1.0000
  C   C258      1.0  0.61045  0.11771  0.15174  1.0000
  H   H313      1.0  0.52217  0.11765  0.39810  1.0000
  S   S76       1.0  0.35368  0.08760  0.26807  1.0000
  H   H314      1.0  0.43972  0.13422  0.50417  1.0000
  H   H315      1.0  0.38092  0.02629  0.45340  1.0000
  N   N17       1.0  0.64003  0.10529  0.04138  1.0000
  C   C259      1.0  0.43179  0.15478  0.45508  1.0000
  C   C260      1.0  0.66760  0.06672  0.43641  1.0000
  C   C261      1.0  0.38549  0.01393  0.34570  1.0000
  C   C262      1.0  0.42986  0.20435  0.39709  1.0000
  H   H316      1.0  0.41651  0.06691  0.50438  1.0000
  C   C263      1.0  0.35156  0.09741  0.22112  1.0000
  H   H317      1.0  0.63219  0.13900  0.01623  1.0000
  C   C264      1.0  0.40352  0.18717  0.46455  1.0000
  S   S77       1.0  0.41753  0.02853  0.39465  1.0000
  H   H318      1.0  0.38285  0.03196  0.33737  1.0000
  C   C265      1.0  0.37143  0.05591  0.09294  1.0000
  H   H319      1.0  0.39285  0.20195  0.45496  1.0000
  H   H320      1.0  0.39854  0.10450  0.48296  1.0000
  C   C266      1.0  0.38237  0.02605  0.15877  1.0000
  C   C267      1.0  0.49848  0.01375  0.30256  1.0000
  C   C268      1.0  0.47592  0.02402  0.30602  1.0000
  H   H321      1.0  0.37193  0.07192  0.11023  1.0000
  C   C269      1.0  0.43606  0.16466  0.37728  1.0000
  H   H322      1.0  0.38726  0.10596  0.21413  1.0000
  H   H323      1.0  0.37701  0.02748  0.25349  1.0000
  N   N18       1.0  0.54861  0.11652  0.44006  1.0000
  C   C270      1.0  0.52416  0.11469  0.42860  1.0000
  C   C271      1.0  0.55678  0.13881  0.42487  1.0000
  C   C272      1.0  0.56316  0.09736  0.42245  1.0000
  H   H324      1.0  0.62485  0.16106  0.47829  1.0000
  H   H325      1.0  0.36439  0.06260  0.45899  1.0000
  H   H326      1.0  0.37434  0.00866  0.49328  1.0000
  H   H327      1.0  0.39567  0.02189  0.13779  1.0000
  C   C273      1.0  0.62962  0.10996  0.07893  1.0000
  H   H328      1.0  0.40591  0.01714  0.20335  1.0000
  H   H329      1.0  0.65717  0.07186  0.05567  1.0000
  H   H330      1.0  0.45435  0.16424  0.38668  1.0000
  H   H331      1.0  0.66984  0.08615  0.01692  1.0000
  H   H332      1.0  0.66122  0.13008  0.17728  1.0000
  H   H333      1.0  0.55530  0.13978  0.39396  1.0000
  H   H334      1.0  0.57553  0.14071  0.43057  1.0000
  H   H335      1.0  0.55706  0.07984  0.42960  1.0000
  H   H336      1.0  0.56300  0.09854  0.39147  1.0000
  H   H337      1.0  0.58153  0.09790  0.43126  1.0000
  C   C274      1.0  0.34025  0.07901  0.49744  1.0000
  C   C275      1.0  0.62570  0.13286  0.09363  1.0000
  C   C276      1.0  0.54223  0.09458  0.49994  1.0000
  C   C277      1.0  0.42992  0.14922  0.49301  1.0000
  C   C278      1.0  0.61626  0.13653  0.12954  1.0000
  C   C279      1.0  0.62604  0.02672  0.48389  1.0000
  C   C280      1.0  0.35990  0.03508  0.14866  1.0000
  C   C281      1.0  0.62316  0.09122  0.10218  1.0000
  C   C282      1.0  0.40153  0.00756  0.37321  1.0000
  H   H338      1.0  0.61821  0.07701  0.02912  1.0000
  H   H339      1.0  0.38940  0.04797  0.09082  1.0000
  H   H340      1.0  0.65099  0.07761  0.43711  1.0000
  C   C283      1.0  0.35969  0.06433  0.48823  1.0000
  H   H341      1.0  0.36669  0.06176  0.06430  1.0000
  H   H342      1.0  0.54715  0.00799  0.31153  1.0000
  H   H343      1.0  0.51767  0.09712  0.43408  1.0000
  C   C284      1.0  0.37067  0.10511  0.20080  1.0000
  H   H344      1.0  0.61393  0.15404  0.14069  1.0000
  H   H345      1.0  0.63314  0.00631  0.43518  1.0000
  C   C285      1.0  0.34702  0.11000  0.14488  1.0000
  H   H346      1.0  0.43655  0.16958  0.34720  1.0000
  H   H347      1.0  0.38332  0.11709  0.14737  1.0000
  H   H348      1.0  0.44697  0.20466  0.41090  1.0000
  H   H349      1.0  0.56688  0.14733  0.49193  1.0000
  H   H350      1.0  0.44343  0.14349  0.43842  1.0000
  H   H351      1.0  0.40435  0.06049  0.46015  1.0000
  C   C286      1.0  0.38839  0.02317  0.19617  1.0000
  S   S78       1.0  0.34565  0.11648  0.09635  1.0000
  N   N19       1.0  0.39427  0.03811  0.50566  1.0000
  H   H352      1.0  0.47284  0.04262  0.30160  1.0000
  H   H353      1.0  0.38474  0.19472  0.39570  1.0000
  C   C287      1.0  0.41856  0.17402  0.43963  1.0000
  C   C288      1.0  0.40163  0.18129  0.50231  1.0000
  H   H354      1.0  0.54645  0.15410  0.43665  1.0000
  H   H355      1.0  0.43003  0.14662  0.37838  1.0000
  S   S79       1.0  0.66096  0.01948  0.36410  1.0000
  C   C289      1.0  0.64727  0.12659  0.02163  1.0000
  C   C290      1.0  0.61863  0.10337  0.49468  1.0000
  H   H356      1.0  0.60679  0.10540  0.01529  1.0000
  H   H357      1.0  0.53498  0.08061  0.48474  1.0000
  C   C291      1.0  0.55978  0.13183  0.50354  1.0000
  C   C292      1.0  0.66101  0.08929  0.04449  1.0000
  H   H358      1.0  0.43995  0.01870  0.31892  1.0000
  C   C293      1.0  0.37213  0.02879  0.22448  1.0000
  H   H359      1.0  0.34154  0.15574  0.48947  1.0000
  H   H360      1.0  0.40315  0.00757  0.47224  1.0000
  C   C294      1.0  0.66371  0.07326  0.20393  1.0000
  H   H361      1.0  0.66048  0.13559  0.03763  1.0000
  H   H362      1.0  0.66496  0.05068  0.45288  1.0000
  C   C295      1.0  0.65762  0.09715  0.20519  1.0000
  C   C296      1.0  0.66576  0.11156  0.17648  1.0000
  H   H363      1.0  0.33732  0.04184  0.23771  1.0000
  C   C297      1.0  0.34351  0.03989  0.17824  1.0000
  H   H364      1.0  0.35208  0.02071  0.05772  1.0000
  N   N20       1.0  0.35459  0.03976  0.10901  1.0000
  H   H365      1.0  0.66427  0.00836  0.16282  1.0000
  H   H366      1.0  0.37416  0.00913  0.08798  1.0000
  H   H367      1.0  0.34400  0.00511  0.09880  1.0000
  Fe  Fe41      1.0  0.61927  0.10260  0.64975  1.0000
  S   S80       1.0  0.59930  0.07037  0.65400  1.0000
  S   S81       1.0  0.61546  0.12854  0.60219  1.0000
  Fe  Fe42      1.0  0.64411  0.09339  0.72434  1.0000
  S   S82       1.0  0.62602  0.06041  0.73393  1.0000
  H   H368      1.0  0.66748  0.10675  0.59235  1.0000
  Fe  Fe43      1.0  0.63285  0.05349  0.67332  1.0000
  S   S83       1.0  0.64536  0.01860  0.65109  1.0000
  Fe  Fe44      1.0  0.59383  0.08015  0.71414  1.0000
  S   S84       1.0  0.56059  0.07097  0.74343  1.0000
  C   C298      1.0  0.65834  0.09324  0.87009  1.0000
  S   S85       1.0  0.61122  0.11419  0.70915  1.0000
  Fe  Fe45      1.0  0.43459  0.10254  0.68755  1.0000
  S   S86       1.0  0.39855  0.11714  0.70259  1.0000
  S   S87       1.0  0.46625  0.12325  0.69528  1.0000
  Fe  Fe46      1.0  0.41720  0.05761  0.65818  1.0000
  S   S88       1.0  0.37979  0.06803  0.67112  1.0000
  H   H369      1.0  0.38949  0.19110  0.52061  1.0000
  Fe  Fe47      1.0  0.38906  0.10260  0.64698  1.0000
  S   S89       1.0  0.36523  0.12367  0.60901  1.0000
  Fe  Fe48      1.0  0.39254  0.08144  0.72563  1.0000
  C   C299      1.0  0.65653  0.09515  0.83107  1.0000
  S   S90       1.0  0.42549  0.09114  0.63027  1.0000
  S   S91       1.0  0.42947  0.06795  0.71417  1.0000
  C   C300      1.0  0.35573  0.10915  0.81457  1.0000
  C   C301      1.0  0.61687  0.10403  0.53421  1.0000
  H   H370      1.0  0.61456  0.08826  0.55004  1.0000
  C   C302      1.0  0.35295  0.14143  0.54180  1.0000
  H   H371      1.0  0.55152  0.03697  0.67759  1.0000
  C   C303      1.0  0.53468  0.08518  0.72817  1.0000
  C   C304      1.0  0.51345  0.07530  0.73632  1.0000
  C   C305      1.0  0.49248  0.08627  0.72454  1.0000
  C   C306      1.0  0.49251  0.10776  0.70614  1.0000
  C   C307      1.0  0.51374  0.11773  0.69821  1.0000
  C   C308      1.0  0.53484  0.10625  0.70857  1.0000
  H   H372      1.0  0.51329  0.05891  0.75124  1.0000
  H   H373      1.0  0.47630  0.07836  0.73054  1.0000
  H   H374      1.0  0.51388  0.13440  0.68410  1.0000
  H   H375      1.0  0.55116  0.11403  0.70234  1.0000
  H   H376      1.0  0.53779  0.07668  0.55245  1.0000
  H   H377      1.0  0.61046  0.01901  0.71034  1.0000
  C   C309      1.0  0.63335  0.00806  0.54307  1.0000
  C   C310      1.0  0.49469  0.03159  0.65817  1.0000
  C   C311      1.0  0.41483  0.16240  0.51653  1.0000
  S   S92       1.0  0.65354  0.08480  0.66443  1.0000
  C   C312      1.0  0.38518  0.11260  0.53884  1.0000
  H   H378      1.0  0.63990  0.09355  0.81810  1.0000
  C   C313      1.0  0.38803  0.00722  0.63165  1.0000
  C   C314      1.0  0.61792  0.12536  0.55313  1.0000
  H   H379      1.0  0.56881  0.14242  0.55884  1.0000
  C   C315      1.0  0.62046  0.14573  0.53241  1.0000
  N   N21       1.0  0.44235  0.11060  0.81697  1.0000
  C   C316      1.0  0.46530  0.12034  0.80892  1.0000
  C   C317      1.0  0.44562  0.08479  0.81534  1.0000
  C   C318      1.0  0.42651  0.11855  0.78693  1.0000
  C   C319      1.0  0.43193  0.11782  0.85351  1.0000
  C   C320      1.0  0.44219  0.13386  0.87745  1.0000
  C   C321      1.0  0.41045  0.10919  0.86570  1.0000
  C   C322      1.0  0.43138  0.14076  0.91128  1.0000
  C   C323      1.0  0.39975  0.11627  0.89942  1.0000
  C   C324      1.0  0.41017  0.13205  0.92215  1.0000
  H   H380      1.0  0.47835  0.11465  0.82999  1.0000
  H   H381      1.0  0.47263  0.11451  0.78129  1.0000
  H   H382      1.0  0.46390  0.13972  0.80733  1.0000
  H   H383      1.0  0.45601  0.07788  0.83914  1.0000
  H   H384      1.0  0.45477  0.07888  0.78912  1.0000
  H   H385      1.0  0.42881  0.07610  0.81575  1.0000
  H   H386      1.0  0.40959  0.11011  0.78856  1.0000
  H   H387      1.0  0.42266  0.13774  0.78803  1.0000
  H   H388      1.0  0.43429  0.11442  0.75890  1.0000
  H   H389      1.0  0.45847  0.14143  0.87062  1.0000
  H   H390      1.0  0.40162  0.09704  0.84892  1.0000
  H   H391      1.0  0.43938  0.15310  0.92907  1.0000
  H   H392      1.0  0.38313  0.10965  0.90778  1.0000
  H   H393      1.0  0.40168  0.13760  0.94817  1.0000
  H   H394      1.0  0.39725  0.10057  0.55274  1.0000
  C   C325      1.0  0.51570  0.04203  0.66251  1.0000
  H   H395      1.0  0.38125  0.02509  0.63175  1.0000
  H   H396      1.0  0.63028  0.09081  0.98898  1.0000
  H   H397      1.0  0.39430  0.01540  0.55376  1.0000
  H   H398      1.0  0.62110  0.16227  0.54661  1.0000
  H   H399      1.0  0.41248  0.03988  0.55761  1.0000
  C   C326      1.0  0.36847  0.12591  0.56002  1.0000
  C   C327      1.0  0.55324  0.10940  0.55974  1.0000
  S   S93       1.0  0.37880  0.06996  0.78263  1.0000
  C   C328      1.0  0.56106  0.12924  0.54224  1.0000
  S   S94       1.0  0.43169  0.02422  0.63212  1.0000
  C   C329      1.0  0.36166  0.08527  0.81729  1.0000
  H   H400      1.0  0.33925  0.13933  0.84199  1.0000
  H   H401      1.0  0.64300  0.09020  0.88691  1.0000
  C   C330      1.0  0.34280  0.08485  0.87921  1.0000
  C   C331      1.0  0.35510  0.07322  0.84972  1.0000
  H   H402      1.0  0.35973  0.05478  0.85218  1.0000
  H   H403      1.0  0.37554  0.04972  0.57719  1.0000
  H   H404      1.0  0.55478  0.10740  0.58970  1.0000
  C   C332      1.0  0.62615  0.02772  0.52267  1.0000
  H   H405      1.0  0.47928  0.04218  0.65060  1.0000
  C   C333      1.0  0.37329  0.05293  0.51619  1.0000
  C   C334      1.0  0.34657  0.07171  0.56275  1.0000
  H   H406      1.0  0.62050  0.04369  0.53705  1.0000
  H   H407      1.0  0.42163  0.01559  0.52925  1.0000
  H   H408      1.0  0.66591  0.05452  0.77866  1.0000
  C   C335      1.0  0.36609  0.05705  0.55390  1.0000
  C   C336      1.0  0.54380  0.09211  0.53865  1.0000
  C   C337      1.0  0.34352  0.12081  0.84416  1.0000
  C   C338      1.0  0.53535  0.02862  0.67313  1.0000
  H   H409      1.0  0.51664  0.06067  0.65842  1.0000
  H   H410      1.0  0.36078  0.11868  0.78991  1.0000
  C   C339      1.0  0.40607  0.02679  0.53800  1.0000
  H   H411      1.0  0.65550  0.12238  0.99383  1.0000
  H   H412      1.0  0.66488  0.02724  0.80306  1.0000
  C   C340      1.0  0.49325  0.00762  0.66406  1.0000
  H   H413      1.0  0.41289  0.15758  0.54566  1.0000
  H   H414      1.0  0.34004  0.15177  0.55785  1.0000
  H   H415      1.0  0.63326  0.00887  0.57334  1.0000
  H   H416      1.0  0.34192  0.07539  0.59172  1.0000
  C   C341      1.0  0.33704  0.10875  0.87665  1.0000
  H   H417      1.0  0.66987  0.00827  0.74178  1.0000
  H   H418      1.0  0.67000  0.06489  0.57589  1.0000
  H   H419      1.0  0.33799  0.07535  0.90404  1.0000
  Fe  Fe49      1.0  0.61167  0.90490  0.30922  1.0000
  S   S95       1.0  0.64856  0.88953  0.31133  1.0000
  S   S96       1.0  0.59631  0.94154  0.31259  1.0000
  Fe  Fe50      1.0  0.59045  0.85841  0.30439  1.0000
  S   S97       1.0  0.62505  0.83889  0.30682  1.0000
  S   S98       1.0  0.55717  0.84037  0.29716  1.0000
  Fe  Fe51      1.0  0.63313  0.86416  0.35174  1.0000
  S   S99       1.0  0.64929  0.85079  0.40528  1.0000
  Fe  Fe52      1.0  0.63747  0.86560  0.26591  1.0000
  H   H420      1.0  0.60951  0.91181  0.48282  1.0000
  S   S100      1.0  0.59734  0.88129  0.35263  1.0000
  S   S101      1.0  0.60192  0.88335  0.26072  1.0000
  Fe  Fe53      1.0  0.43340  0.89847  0.31119  1.0000
  S   S102      1.0  0.42262  0.86292  0.29582  1.0000
  S   S103      1.0  0.46931  0.90986  0.32326  1.0000
  Fe  Fe54      1.0  0.38343  0.91861  0.31391  1.0000
  S   S104      1.0  0.36849  0.88461  0.29979  1.0000
  S   S105      1.0  0.36139  0.95199  0.31655  1.0000
  Fe  Fe55      1.0  0.39489  0.86962  0.34047  1.0000
  S   S106      1.0  0.38823  0.84226  0.38434  1.0000
  Fe  Fe56      1.0  0.39744  0.88149  0.25674  1.0000
  C   C342      1.0  0.35101  0.91633  0.47889  1.0000
  S   S107      1.0  0.40717  0.90390  0.35780  1.0000
  S   S108      1.0  0.41079  0.91659  0.26895  1.0000
  C   C343      1.0  0.39132  0.84321  0.43347  1.0000
  C   C344      1.0  0.39794  0.86284  0.45316  1.0000
  C   C345      1.0  0.59134  0.83327  0.46644  1.0000
  H   H421      1.0  0.60709  0.86784  0.17856  1.0000
  C   C346      1.0  0.38725  0.82279  0.45323  1.0000
  H   H422      1.0  0.40115  0.87876  0.43825  1.0000
  H   H423      1.0  0.38226  0.80751  0.43847  1.0000
  N   N22       1.0  0.64815  0.96401  0.46491  1.0000
  C   C347      1.0  0.53368  0.96906  0.34241  1.0000
  C   C348      1.0  0.61186  0.83412  0.08533  1.0000
  C   C349      1.0  0.65042  0.85603  0.48125  1.0000
  H   H424      1.0  0.34174  0.97419  0.23202  1.0000
  C   C350      1.0  0.54776  0.85204  0.44545  1.0000
  C   C351      1.0  0.66772  0.86286  0.17526  1.0000
  H   H425      1.0  0.61293  0.95470  0.45702  1.0000
  H   H426      1.0  0.45311  0.81940  0.36739  1.0000
  H   H427      1.0  0.35432  0.87172  0.07625  1.0000
  C   C352      1.0  0.37277  0.99688  0.32881  1.0000
  C   C353      1.0  0.37649  0.97344  0.33886  1.0000
  C   C354      1.0  0.39247  0.96718  0.36645  1.0000
  C   C355      1.0  0.40490  0.98421  0.38373  1.0000
  H   H428      1.0  0.41727  0.97925  0.40501  1.0000
  C   C356      1.0  0.34953  0.86548  0.18418  1.0000
  H   H429      1.0  0.39496  0.94930  0.37510  1.0000
  H   H430      1.0  0.44668  0.97638  0.32995  1.0000
  C   C357      1.0  0.53265  0.85963  0.30367  1.0000
  C   C358      1.0  0.53500  0.88176  0.31865  1.0000
  C   C359      1.0  0.51537  0.89685  0.32480  1.0000
  C   C360      1.0  0.49331  0.89021  0.31509  1.0000
  C   C361      1.0  0.49089  0.86819  0.29960  1.0000
  C   C362      1.0  0.51055  0.85282  0.29418  1.0000
  H   H431      1.0  0.55193  0.88731  0.32561  1.0000
  H   H432      1.0  0.51734  0.91374  0.33709  1.0000
  H   H433      1.0  0.47396  0.86303  0.29158  1.0000
  H   H434      1.0  0.50865  0.83577  0.28231  1.0000
  C   C363      1.0  0.64145  0.86497  0.44767  1.0000
  H   H435      1.0  0.48750  0.87918  0.44074  1.0000
  C   C364      1.0  0.58668  0.83760  0.42886  1.0000
  N   N23       1.0  0.35275  0.94564  0.19557  1.0000
  C   C365      1.0  0.62654  0.88502  0.44848  1.0000
  C   C366      1.0  0.60514  0.98396  0.33971  1.0000
  H   H436      1.0  0.61956  0.89208  0.42285  1.0000
  H   H437      1.0  0.34531  0.87263  0.41500  1.0000
  H   H438      1.0  0.48909  0.88783  0.50736  1.0000
  C   C367      1.0  0.63870  0.95693  0.33291  1.0000
  C   C368      1.0  0.61474  0.96194  0.32985  1.0000
  C   C369      1.0  0.35747  0.96716  0.21628  1.0000
  C   C370      1.0  0.65312  0.97441  0.34430  1.0000
  H   H439      1.0  0.64622  0.93993  0.32530  1.0000
  H   H440      1.0  0.48977  0.83476  0.36118  1.0000
  N   N24       1.0  0.58440  0.82705  0.18272  1.0000
  C   C371      1.0  0.60059  0.82298  0.21397  1.0000
  C   C372      1.0  0.56537  0.84406  0.19478  1.0000
  C   C373      1.0  0.57376  0.80462  0.17520  1.0000
  C   C374      1.0  0.59711  0.83647  0.15016  1.0000
  C   C375      1.0  0.59957  0.82467  0.11535  1.0000
  C   C376      1.0  0.60763  0.85815  0.15276  1.0000
  C   C377      1.0  0.34663  0.89014  0.42579  1.0000
  C   C378      1.0  0.48981  0.84082  0.39064  1.0000
  C   C379      1.0  0.35143  0.93501  0.45289  1.0000
  H   H441      1.0  0.60809  0.83925  0.22324  1.0000
  H   H442      1.0  0.59177  0.81571  0.23904  1.0000
  H   H443      1.0  0.61560  0.81087  0.20578  1.0000
  H   H444      1.0  0.55369  0.84884  0.17132  1.0000
  H   H445      1.0  0.57200  0.86040  0.20579  1.0000
  H   H446      1.0  0.55450  0.83702  0.21780  1.0000
  H   H447      1.0  0.56090  0.80651  0.15250  1.0000
  H   H448      1.0  0.51526  0.94410  0.28853  1.0000
  H   H449      1.0  0.56424  0.79823  0.20027  1.0000
  C   C380      1.0  0.62192  0.85545  0.08894  1.0000
  H   H450      1.0  0.63393  0.94016  0.42604  1.0000
  C   C381      1.0  0.47900  0.86781  0.46015  1.0000
  C   C382      1.0  0.66236  0.95778  0.11488  1.0000
  H   H451      1.0  0.63926  0.93980  0.50826  1.0000
  H   H452      1.0  0.34530  0.90615  0.37147  1.0000
  H   H453      1.0  0.65261  0.94219  0.11393  1.0000
  C   C383      1.0  0.35286  0.87002  0.10625  1.0000
  H   H454      1.0  0.60025  0.83408  0.40778  1.0000
  H   H455      1.0  0.60876  0.82652  0.47242  1.0000
  N   N25       1.0  0.46588  0.84383  0.40682  1.0000
  C   C384      1.0  0.45360  0.82251  0.39801  1.0000
  C   C385      1.0  0.45350  0.86371  0.38797  1.0000
  C   C386      1.0  0.56491  0.84680  0.41833  1.0000
  C   C387      1.0  0.46681  0.84869  0.44726  1.0000
  C   C388      1.0  0.45553  0.83517  0.47479  1.0000
  C   C389      1.0  0.37232  0.87303  0.12854  1.0000
  H   H456      1.0  0.56148  0.85012  0.38909  1.0000
  C   C390      1.0  0.61970  0.86749  0.12252  1.0000
  C   C391      1.0  0.64346  0.99678  0.35246  1.0000
  C   C392      1.0  0.62092  0.89621  0.48250  1.0000
  H   H457      1.0  0.43505  0.82404  0.40753  1.0000
  C   C393      1.0  0.66898  0.96819  0.44136  1.0000
  H   H458      1.0  0.43522  0.86612  0.39849  1.0000
  H   H459      1.0  0.45300  0.86098  0.35739  1.0000
  H   H460      1.0  0.46189  0.88045  0.39188  1.0000
  C   C394      1.0  0.57406  0.83795  0.49477  1.0000
  H   H461      1.0  0.34812  0.86358  0.21414  1.0000
  H   H462      1.0  0.59235  0.80805  0.11060  1.0000
  H   H463      1.0  0.44523  0.82072  0.46787  1.0000
  N   N26       1.0  0.52663  0.97787  0.30521  1.0000
  C   C395      1.0  0.54461  0.99359  0.29151  1.0000
  C   C396      1.0  0.64064  0.98566  0.48526  1.0000
  H   H464      1.0  0.38899  0.93389  0.19834  1.0000
  H   H465      1.0  0.62803  0.88383  0.12552  1.0000
  H   H466      1.0  0.35362  0.95267  0.46181  1.0000
  H   H467      1.0  0.46217  0.80670  0.41087  1.0000
  H   H468      1.0  0.52185  0.95595  0.35356  1.0000
  H   H469      1.0  0.66207  0.84058  0.48078  1.0000
  C   C397      1.0  0.38957  0.82174  0.49194  1.0000
  H   H470      1.0  0.58663  0.98782  0.33836  1.0000
  C   C398      1.0  0.48361  0.97627  0.31844  1.0000
  C   C399      1.0  0.34859  0.89366  0.46416  1.0000
  S   S109      1.0  0.65656  0.84893  0.21544  1.0000
  C   C400      1.0  0.55219  0.84771  0.48312  1.0000
  H   H471      1.0  0.65925  0.92779  0.47385  1.0000
  H   H472      1.0  0.48564  0.95778  0.32414  1.0000
  H   H473      1.0  0.54452  0.94913  0.27582  1.0000
  H   H474      1.0  0.56192  0.98410  0.28770  1.0000
  H   H475      1.0  0.38870  0.87708  0.11543  1.0000
  H   H476      1.0  0.61377  0.82478  0.05913  1.0000
  C   C401      1.0  0.65425  0.94398  0.48983  1.0000
  H   H477      1.0  0.63177  0.86254  0.06584  1.0000
  H   H478      1.0  0.50057  0.82772  0.40662  1.0000
  H   H479      1.0  0.53366  0.98356  0.36293  1.0000
  H   H480      1.0  0.55151  0.96043  0.34144  1.0000
  C   C402      1.0  0.40010  0.86182  0.49250  1.0000
  H   H481      1.0  0.58723  0.79066  0.16769  1.0000
  C   C403      1.0  0.37076  0.87081  0.16757  1.0000
  H   H482      1.0  0.49886  0.85741  0.38974  1.0000
  S   S110      1.0  0.39571  0.87524  0.19421  1.0000
  C   C404      1.0  0.50298  0.98939  0.30827  1.0000
  C   C405      1.0  0.46118  0.98676  0.32199  1.0000
  H   H483      1.0  0.53106  0.85971  0.43724  1.0000
  H   H484      1.0  0.52099  0.96371  0.25093  1.0000
  H   H485      1.0  0.37345  0.91968  0.16389  1.0000
  H   H486      1.0  0.36028  0.00183  0.30772  1.0000
  H   H487      1.0  0.38103  0.94911  0.15607  1.0000
  C   C406      1.0  0.61944  0.00130  0.35087  1.0000
  H   H488      1.0  0.62526  0.96986  0.41812  1.0000
  C   C407      1.0  0.62926  0.95696  0.44055  1.0000
  C   C408      1.0  0.52679  0.95789  0.27902  1.0000
  C   C409      1.0  0.37497  0.93679  0.17767  1.0000
  H   H489      1.0  0.54008  0.00133  0.26396  1.0000
  H   H490      1.0  0.38640  0.80566  0.50652  1.0000
  C   C410      1.0  0.47998  0.87295  0.49817  1.0000
  H   H491      1.0  0.66926  0.94735  0.50766  1.0000
  C   C411      1.0  0.34681  0.90892  0.40117  1.0000
  H   H492      1.0  0.36383  0.98085  0.19734  1.0000
  H   H493      1.0  0.66560  0.98227  0.42057  1.0000
  H   H494      1.0  0.34929  0.94587  0.39537  1.0000
  C   C412      1.0  0.34914  0.93131  0.41471  1.0000
  C   C413      1.0  0.34527  0.92824  0.22334  1.0000
  H   H495      1.0  0.53844  0.85225  0.50320  1.0000
  H   H496      1.0  0.34861  0.87824  0.48150  1.0000
  H   H497      1.0  0.34359  0.91077  0.21094  1.0000
  H   H498      1.0  0.35804  0.92568  0.24605  1.0000
  H   H499      1.0  0.66685  0.89726  0.19884  1.0000
  H   H500      1.0  0.37113  0.96377  0.23752  1.0000
  H   H501      1.0  0.64202  0.97286  0.16061  1.0000
  C   C414      1.0  0.65640  0.97500  0.14112  1.0000
  C   C415      1.0  0.66901  0.99496  0.14238  1.0000
  H   H502      1.0  0.40562  0.87670  0.50758  1.0000
  Fe  Fe57      1.0  0.59688  0.90744  0.68679  1.0000
  S   S111      1.0  0.63378  0.90337  0.66614  1.0000
  S   S112      1.0  0.58242  0.94075  0.71264  1.0000
  Fe  Fe58      1.0  0.58579  0.85976  0.66015  1.0000
  S   S113      1.0  0.62211  0.85149  0.63741  1.0000
  S   S114      1.0  0.55543  0.83783  0.64923  1.0000
  Fe  Fe59      1.0  0.63328  0.86760  0.69145  1.0000
  H   H503      1.0  0.63644  0.97335  0.62267  1.0000
  Fe  Fe60      1.0  0.61937  0.88805  0.61461  1.0000
  S   S115      1.0  0.62481  0.90377  0.55717  1.0000
  S   S116      1.0  0.59704  0.87281  0.71569  1.0000
  S   S117      1.0  0.58246  0.89506  0.63394  1.0000
  Fe  Fe61      1.0  0.39783  0.86247  0.60968  1.0000
  S   S118      1.0  0.41376  0.89706  0.60821  1.0000
  S   S119      1.0  0.39896  0.83748  0.56078  1.0000
  Fe  Fe62      1.0  0.38195  0.86755  0.69268  1.0000
  S   S120      1.0  0.39640  0.90275  0.69693  1.0000
  H   H504      1.0  0.53704  0.96677  0.72604  1.0000
  Fe  Fe63      1.0  0.38160  0.90936  0.64052  1.0000
  S   S121      1.0  0.36223  0.94327  0.62793  1.0000
  Fe  Fe64      1.0  0.42733  0.88718  0.66470  1.0000
  S   S122      1.0  0.46196  0.89750  0.68538  1.0000
  S   S123      1.0  0.36442  0.87538  0.63813  1.0000
  S   S124      1.0  0.41411  0.85122  0.66405  1.0000
  C   C416      1.0  0.64045  0.98726  0.52488  1.0000
  C   C417      1.0  0.37670  0.92977  0.52561  1.0000
  H   H505      1.0  0.60381  0.81846  0.57255  1.0000
  C   C418      1.0  0.61080  0.00249  0.69635  1.0000
  C   C419      1.0  0.36740  0.87768  0.80194  1.0000
  C   C420      1.0  0.48893  0.95884  0.67569  1.0000
  C   C421      1.0  0.34739  0.87140  0.86192  1.0000
  H   H506      1.0  0.37949  0.88729  0.78539  1.0000
  C   C422      1.0  0.56045  0.81834  0.55061  1.0000
  C   C423      1.0  0.59665  0.98520  0.70996  1.0000
  N   N27       1.0  0.51225  0.96794  0.68141  1.0000
  H   H507      1.0  0.65584  0.96296  0.74100  1.0000
  H   H508      1.0  0.55901  0.86476  0.55452  1.0000
  C   C424      1.0  0.37268  0.98915  0.62999  1.0000
  C   C425      1.0  0.38133  0.96590  0.63028  1.0000
  C   C426      1.0  0.40531  0.96079  0.63183  1.0000
  C   C427      1.0  0.42066  0.97883  0.63216  1.0000
  H   H509      1.0  0.46923  0.86346  0.55386  1.0000
  H   H510      1.0  0.65236  0.86065  0.54093  1.0000
  H   H511      1.0  0.41215  0.94299  0.63288  1.0000
  H   H512      1.0  0.43919  0.97475  0.63289  1.0000
  C   C428      1.0  0.52916  0.85389  0.65942  1.0000
  C   C429      1.0  0.50794  0.84636  0.64678  1.0000
  C   C430      1.0  0.48704  0.85960  0.65438  1.0000
  C   C431      1.0  0.48741  0.88022  0.67497  1.0000
  C   C432      1.0  0.50858  0.88749  0.68791  1.0000
  C   C433      1.0  0.52938  0.87448  0.67997  1.0000
  H   H513      1.0  0.50768  0.83039  0.63099  1.0000
  H   H514      1.0  0.47073  0.85385  0.64441  1.0000
  H   H515      1.0  0.50894  0.90316  0.70439  1.0000
  H   H516      1.0  0.54557  0.88025  0.69030  1.0000
  C   C434      1.0  0.66461  0.94114  0.80875  1.0000
  H   H517      1.0  0.48887  0.93971  0.68084  1.0000
  H   H518      1.0  0.62795  0.95920  0.76421  1.0000
  H   H519      1.0  0.64554  0.97269  0.54263  1.0000
  H   H520      1.0  0.37968  0.93252  0.55580  1.0000
  C   C435      1.0  0.51305  0.99334  0.67458  1.0000
  C   C436      1.0  0.59693  0.96363  0.69213  1.0000
  C   C437      1.0  0.61049  0.95981  0.65969  1.0000
  H   H521      1.0  0.62990  0.85425  0.78310  1.0000
  H   H522      1.0  0.51780  0.94369  0.72693  1.0000
  H   H523      1.0  0.60974  0.94372  0.64450  1.0000
  N   N28       1.0  0.43380  0.84013  0.77756  1.0000
  C   C438      1.0  0.42771  0.82202  0.75053  1.0000
  C   C439      1.0  0.42907  0.86319  0.75982  1.0000
  C   C440      1.0  0.45914  0.83686  0.78412  1.0000
  C   C441      1.0  0.42053  0.83923  0.81335  1.0000
  C   C442      1.0  0.40197  0.82425  0.81942  1.0000
  C   C443      1.0  0.42555  0.85426  0.84312  1.0000
  C   C444      1.0  0.38968  0.82407  0.85346  1.0000
  C   C445      1.0  0.41306  0.85400  0.87697  1.0000
  C   C446      1.0  0.39522  0.83888  0.88216  1.0000
  H   H524      1.0  0.40927  0.82457  0.74178  1.0000
  H   H525      1.0  0.43847  0.82264  0.72441  1.0000
  H   H526      1.0  0.43048  0.80418  0.76238  1.0000
  H   H527      1.0  0.41028  0.86602  0.75370  1.0000
  H   H528      1.0  0.43901  0.86476  0.73308  1.0000
  H   H529      1.0  0.43388  0.87785  0.77765  1.0000
  H   H530      1.0  0.46327  0.82033  0.79950  1.0000
  H   H531      1.0  0.46946  0.83629  0.75743  1.0000
  H   H532      1.0  0.46588  0.85137  0.80031  1.0000
  H   H533      1.0  0.39599  0.81304  0.79796  1.0000
  H   H534      1.0  0.43881  0.86673  0.84015  1.0000
  H   H535      1.0  0.37511  0.81307  0.85713  1.0000
  H   H536      1.0  0.41673  0.86601  0.89903  1.0000
  C   C447      1.0  0.64332  0.95000  0.75034  1.0000
  H   H537      1.0  0.58077  0.85351  0.58507  1.0000
  C   C448      1.0  0.64802  0.85554  0.83525  1.0000
  H   H538      1.0  0.47556  0.96707  0.69513  1.0000
  H   H539      1.0  0.35412  0.99318  0.62909  1.0000
  H   H540      1.0  0.65158  0.97765  0.80324  1.0000
  C   C449      1.0  0.62573  0.99802  0.66561  1.0000
  H   H541      1.0  0.54986  0.99502  0.68723  1.0000
  H   H542      1.0  0.58911  0.86833  0.54322  1.0000
  H   H543      1.0  0.62900  0.90709  0.76106  1.0000
  C   C450      1.0  0.34023  0.84731  0.80813  1.0000
  H   H544      1.0  0.64314  0.90152  0.80428  1.0000
  H   H545      1.0  0.48311  0.96169  0.64657  1.0000
  H   H546      1.0  0.56412  0.81334  0.58006  1.0000
  C   C451      1.0  0.51883  0.96257  0.72039  1.0000
  H   H547      1.0  0.52855  0.93582  0.65977  1.0000
  H   H548      1.0  0.35238  0.90410  0.57314  1.0000
  H   H549      1.0  0.44757  0.83014  0.53319  1.0000
  H   H550      1.0  0.66576  0.91212  0.72575  1.0000
  C   C452      1.0  0.60142  0.82193  0.54223  1.0000
  C   C453      1.0  0.35629  0.85918  0.78609  1.0000
  H   H551      1.0  0.54725  0.95934  0.66048  1.0000
  C   C454      1.0  0.63625  0.91564  0.78575  1.0000
  C   C455      1.0  0.62533  0.97676  0.64695  1.0000
  C   C456      1.0  0.66672  0.85659  0.77382  1.0000
  H   H552      1.0  0.62152  0.92488  0.80116  1.0000
  H   H553      1.0  0.61574  0.83307  0.53350  1.0000
  C   C457      1.0  0.52896  0.95506  0.65582  1.0000
  H   H554      1.0  0.60381  0.80486  0.52770  1.0000
  H   H555      1.0  0.37239  0.89738  0.85199  1.0000
  C   C458      1.0  0.41204  0.00205  0.63242  1.0000
  C   C459      1.0  0.66172  0.96500  0.81930  1.0000
  C   C460      1.0  0.64658  0.85534  0.79605  1.0000
  H   H556      1.0  0.55981  0.80197  0.53426  1.0000
  H   H557      1.0  0.50726  0.97262  0.74054  1.0000
  H   H558      1.0  0.63235  0.85456  0.85222  1.0000
  S   S125      1.0  0.66574  0.85762  0.72439  1.0000
  C   C461      1.0  0.64481  0.86726  0.51535  1.0000
  H   H559      1.0  0.63653  0.94222  0.72465  1.0000
  H   H560      1.0  0.38502  0.83930  0.90795  1.0000
  H   H561      1.0  0.52506  0.95912  0.62619  1.0000
  N   N29       1.0  0.57825  0.83354  0.53484  1.0000
  H   H562      1.0  0.58595  0.98838  0.73480  1.0000
  C   C462      1.0  0.57668  0.85600  0.55514  1.0000
  N   N30       1.0  0.65436  0.93181  0.77477  1.0000
  C   C463      1.0  0.36319  0.88352  0.83974  1.0000
  C   C464      1.0  0.63018  0.88751  0.51597  1.0000
  S   S126      1.0  0.36280  0.84927  0.73986  1.0000
  C   C465      1.0  0.35120  0.89980  0.54301  1.0000
  C   C466      1.0  0.46882  0.85928  0.52440  1.0000
  H   H563      1.0  0.36531  0.88620  0.53713  1.0000
  N   N31       1.0  0.35347  0.92082  0.51920  1.0000
  H   H564      1.0  0.47632  0.00086  0.66041  1.0000
  H   H565      1.0  0.54274  0.82706  0.55153  1.0000
  C   C467      1.0  0.66952  0.85715  0.85265  1.0000
  C   C468      1.0  0.39573  0.84118  0.51200  1.0000
  C   C469      1.0  0.45669  0.84044  0.51272  1.0000
  S   S127      1.0  0.34470  0.87781  0.91034  1.0000
  C   C470      1.0  0.53415  0.00463  0.67892  1.0000
  H   H566      1.0  0.66967  0.99137  0.85914  1.0000
  H   H567      1.0  0.34498  0.95565  0.76954  1.0000
  H   H568      1.0  0.39078  0.91729  0.51506  1.0000
  S   S128      1.0  0.67024  0.85798  0.90207  1.0000
  H   H569      1.0  0.37897  0.94679  0.51164  1.0000
  H   H570      1.0  0.33738  0.95592  0.51925  1.0000
  H   H571      1.0  0.94950  0.36539  0.48347  1.0000
  S   S129      1.0  0.91110  0.30232  0.07395  1.0000
  S   S130      1.0  0.70185  0.06512  0.10751  1.0000
  Fe  Fe65      1.0  0.71886  0.08165  0.05648  1.0000
  S   S131      1.0  0.75765  0.08158  0.05065  1.0000
  C   C471      1.0  0.95704  0.34900  0.47051  1.0000
  Fe  Fe66      1.0  0.89904  0.35441  0.27450  1.0000
  S   S132      1.0  0.93452  0.36428  0.25561  1.0000
  S   S133      1.0  0.87900  0.32916  0.24049  1.0000
  Fe  Fe67      1.0  0.90088  0.38122  0.34839  1.0000
  S   S134      1.0  0.93638  0.39278  0.33446  1.0000
  S   S135      1.0  0.88712  0.39730  0.40288  1.0000
  Fe  Fe68      1.0  0.92339  0.39992  0.27713  1.0000
  S   S136      1.0  0.93754  0.43226  0.25178  1.0000
  Fe  Fe69      1.0  0.94431  0.35648  0.31449  1.0000
  S   S137      1.0  0.97870  0.33970  0.33034  1.0000
  S   S138      1.0  0.88682  0.39107  0.29183  1.0000
  S   S139      1.0  0.90983  0.34386  0.33280  1.0000
  C   C472      1.0  0.91890  0.45743  0.24909  1.0000
  C   C473      1.0  0.89471  0.45625  0.24970  1.0000
  C   C474      1.0  0.98011  0.49226  0.19576  1.0000
  C   C475      1.0  0.92866  0.47920  0.24739  1.0000
  H   H572      1.0  0.88707  0.43949  0.25082  1.0000
  H   H573      1.0  0.94729  0.48016  0.24812  1.0000
  C   C476      1.0  0.89383  0.38330  0.44560  1.0000
  C   C477      1.0  0.89535  0.35900  0.44845  1.0000
  H   H574      1.0  0.94302  0.34205  0.45359  1.0000
  H   H575      1.0  0.71509  0.01999  0.06419  1.0000
  C   C478      1.0  0.89614  0.39673  0.47784  1.0000
  H   H576      1.0  0.89326  0.34849  0.42391  1.0000
  H   H577      1.0  0.89477  0.41554  0.47593  1.0000
  H   H578      1.0  0.98425  0.31499  0.24389  1.0000
  C   C479      1.0  0.97114  0.37048  0.41822  1.0000
  H   H579      1.0  0.91586  0.28971  0.24615  1.0000
  H   H580      1.0  0.97759  0.37899  0.28017  1.0000
  H   H581      1.0  0.87849  0.49993  0.32545  1.0000
  C   C480      1.0  0.90065  0.30988  0.11950  1.0000
  C   C481      1.0  0.88357  0.29775  0.13840  1.0000
  C   C482      1.0  0.87691  0.30394  0.17534  1.0000
  C   C483      1.0  0.88733  0.32215  0.19372  1.0000
  C   C484      1.0  0.90438  0.33419  0.17469  1.0000
  C   C485      1.0  0.91094  0.32811  0.13786  1.0000
  H   H582      1.0  0.87552  0.28366  0.12465  1.0000
  H   H583      1.0  0.86364  0.29457  0.18980  1.0000
  H   H584      1.0  0.91237  0.34837  0.18818  1.0000
  H   H585      1.0  0.92403  0.33773  0.12346  1.0000
  H   H586      1.0  0.86165  0.47595  0.24867  1.0000
  C   C486      1.0  0.83774  0.38211  0.46934  1.0000
  H   H587      1.0  0.79534  0.18423  0.05981  1.0000
  C   C487      1.0  0.89020  0.49864  0.24701  1.0000
  C   C488      1.0  0.67749  0.06391  0.17405  1.0000
  C   C489      1.0  0.88037  0.47687  0.24831  1.0000
  H   H588      1.0  0.99149  0.31740  0.44936  1.0000
  H   H589      1.0  0.95627  0.36476  0.40180  1.0000
  H   H590      1.0  0.69669  0.01369  0.12021  1.0000
  C   C490      1.0  0.68162  0.08774  0.48905  1.0000
  H   H591      1.0  0.91452  0.48020  0.31935  1.0000
  H   H592      1.0  0.96938  0.28275  0.08461  1.0000
  H   H593      1.0  0.67369  0.09665  0.06348  1.0000
  H   H594      1.0  0.68155  0.12567  0.47991  1.0000
  H   H595      1.0  0.80568  0.10574  0.06189  1.0000
  H   H596      1.0  0.91715  0.43601  0.39396  1.0000
  C   C491      1.0  0.90964  0.45344  0.40306  1.0000
  H   H597      1.0  0.67419  0.11135  0.42194  1.0000
  H   H598      1.0  0.68215  0.04544  0.17349  1.0000
  C   C492      1.0  0.89851  0.34824  0.48342  1.0000
  C   C493      1.0  0.70857  0.06479  0.44917  1.0000
  C   C494      1.0  0.97128  0.30494  0.23086  1.0000
  C   C495      1.0  0.99592  0.36640  0.50749  1.0000
  C   C496      1.0  0.82691  0.42518  0.50295  1.0000
  H   H599      1.0  0.98542  0.37323  0.39761  1.0000
  C   C497      1.0  0.92017  0.47035  0.34447  1.0000
  H   H600      1.0  0.92812  0.45330  0.33443  1.0000
  H   H601      1.0  0.95310  0.30303  0.11393  1.0000
  N   N32       1.0  0.97804  0.35311  0.44720  1.0000
  S   S140      1.0  0.91438  0.23894  0.02378  1.0000
  H   H602      1.0  0.94874  0.24948  0.09956  1.0000
  C   C498      1.0  0.68537  0.07825  0.14511  1.0000
  H   H603      1.0  0.92830  0.26825  0.12398  1.0000
  C   C499      1.0  0.84341  0.06526  0.02223  1.0000
  C   C500      1.0  0.98529  0.33072  0.42869  1.0000
  H   H604      1.0  0.00081  0.26429  0.14809  1.0000
  H   H605      1.0  0.71346  0.05929  0.42014  1.0000
  C   C501      1.0  0.96782  0.28962  0.11359  1.0000
  C   C502      1.0  0.93693  0.28015  0.19755  1.0000
  C   C503      1.0  0.82456  0.42254  0.46449  1.0000
  C   C504      1.0  0.67956  0.10220  0.14658  1.0000
  C   C505      1.0  0.93279  0.29057  0.23240  1.0000
  H   H606      1.0  0.92256  0.27152  0.18601  1.0000
  S   S141      1.0  0.71379  0.11504  0.02373  1.0000
  H   H607      1.0  0.98300  0.24174  0.16535  1.0000
  H   H608      1.0  0.99313  0.48925  0.31704  1.0000
  H   H609      1.0  0.89033  0.43559  0.34535  1.0000
  C   C506      1.0  0.99292  0.45256  0.20953  1.0000
  C   C507      1.0  0.79786  0.16145  0.01210  1.0000
  N   N33       1.0  0.68692  0.08006  0.45025  1.0000
  C   C508      1.0  0.67991  0.11161  0.49968  1.0000
  H   H610      1.0  0.68565  0.11354  0.12479  1.0000
  H   H611      1.0  0.96581  0.38767  0.43084  1.0000
  C   C509      1.0  0.99369  0.50012  0.22446  1.0000
  N   N34       1.0  0.96370  0.27097  0.14127  1.0000
  C   C510      1.0  0.97567  0.29456  0.19597  1.0000
  C   C511      1.0  0.88305  0.45340  0.35273  1.0000
  H   H612      1.0  0.69421  0.09330  0.39489  1.0000
  H   H613      1.0  0.97437  0.25699  0.02788  1.0000
  H   H614      1.0  0.83614  0.12882  0.06604  1.0000
  H   H615      1.0  0.97075  0.32353  0.41313  1.0000
  C   C512      1.0  0.99924  0.36015  0.31967  1.0000
  C   C513      1.0  0.83012  0.40108  0.44771  1.0000
  H   H616      1.0  0.92386  0.46210  0.41705  1.0000
  C   C514      1.0  0.99407  0.37794  0.29394  1.0000
  H   H617      1.0  0.99186  0.43404  0.20456  1.0000
  H   H618      1.0  0.70681  0.04849  0.46548  1.0000
  H   H619      1.0  0.89868  0.49000  0.44102  1.0000
  C   C515      1.0  0.82354  0.19352  0.02295  1.0000
  C   C516      1.0  0.80467  0.18014  0.03395  1.0000
  H   H620      1.0  0.94079  0.24260  0.14680  1.0000
  H   H621      1.0  0.96824  0.46234  0.16739  1.0000
  C   C517      1.0  0.94456  0.25719  0.12754  1.0000
  N   N35       1.0  0.90051  0.46733  0.37102  1.0000
  C   C518      1.0  0.86282  0.14403  0.03484  1.0000
  C   C519      1.0  0.89082  0.49971  0.41832  1.0000
  C   C520      1.0  0.84623  0.10728  0.01706  1.0000
  H   H622      1.0  0.96078  0.33594  0.49291  1.0000
  Fe  Fe70      1.0  0.90251  0.27715  0.02782  1.0000
  C   C521      1.0  0.81775  0.08987  0.06018  1.0000
  H   H623      1.0  0.86762  0.45126  0.37139  1.0000
  C   C522      1.0  0.95867  0.28165  0.17834  1.0000
  C   C523      1.0  0.98482  0.25498  0.14288  1.0000
  H   H624      1.0  0.82861  0.20760  0.04040  1.0000
  H   H625      1.0  0.74158  0.00531  0.04856  1.0000
  H   H626      1.0  0.89556  0.45005  0.42381  1.0000
  C   C524      1.0  0.97957  0.46849  0.18852  1.0000
  H   H627      1.0  0.98387  0.29878  0.11896  1.0000
  H   H628      1.0  0.82891  0.39915  0.41776  1.0000
  H   H629      1.0  0.83007  0.09010  0.08362  1.0000
  C   C525      1.0  0.94991  0.30284  0.24907  1.0000
  S   S142      1.0  0.77417  0.14492  0.02835  1.0000
  H   H630      1.0  0.67093  0.06081  0.40717  1.0000
  H   H631      1.0  0.94644  0.31112  0.27589  1.0000
  H   H632      1.0  0.85775  0.06451  0.04261  1.0000
  H   H633      1.0  0.99233  0.29699  0.18258  1.0000
  H   H634      1.0  0.87687  0.46129  0.32619  1.0000
  H   H635      1.0  0.89908  0.32942  0.48552  1.0000
  C   C526      1.0  0.99761  0.36156  0.46859  1.0000
  C   C527      1.0  0.88999  0.49058  0.38157  1.0000
  H   H636      1.0  0.99942  0.33260  0.40756  1.0000
  H   H637      1.0  0.83195  0.05069  0.02876  1.0000
  H   H638      1.0  0.81864  0.43725  0.44750  1.0000
  C   C528      1.0  0.69023  0.09963  0.42377  1.0000
  H   H639      1.0  0.80683  0.07473  0.06512  1.0000
  H   H640      1.0  0.98811  0.24539  0.11616  1.0000
  C   C529      1.0  0.84739  0.12650  0.04173  1.0000
  Fe  Fe71      1.0  0.75292  0.11338  0.01396  1.0000
  H   H641      1.0  0.93397  0.48028  0.35725  1.0000
  H   H642      1.0  0.84246  0.36555  0.45599  1.0000
  N   N36       1.0  0.83026  0.08826  0.02354  1.0000
  H   H643      1.0  0.70493  0.11018  0.43185  1.0000
  H   H644      1.0  0.72337  0.07394  0.46067  1.0000
  H   H645      1.0  0.86302  0.15887  0.05341  1.0000
  C   C530      1.0  0.91438  0.49976  0.24660  1.0000
  C   C531      1.0  0.84030  0.38456  0.50777  1.0000
  C   C532      1.0  0.99162  0.25259  0.01663  1.0000
  H   H646      1.0  0.96919  0.50460  0.18009  1.0000
  H   H647      1.0  0.73419  0.00535  0.09716  1.0000
  H   H648      1.0  0.87154  0.42431  0.55630  1.0000
  H   H649      1.0  0.70005  0.06149  0.73462  1.0000
  H   H650      1.0  0.86500  0.38253  0.57460  1.0000
  H   H651      1.0  0.72504  0.04142  0.73673  1.0000
  H   H652      1.0  0.85890  0.43045  0.60157  1.0000
  C   C533      1.0  0.83510  0.40633  0.52576  1.0000
  Fe  Fe72      1.0  0.89141  0.28049  0.94419  1.0000
  S   S143      1.0  0.87486  0.30377  0.89923  1.0000
  S   S144      1.0  0.90310  0.24322  0.93481  1.0000
  Fe  Fe73      1.0  0.71302  0.09219  0.97268  1.0000
  S   S145      1.0  0.75176  0.09254  0.96062  1.0000
  C   C534      1.0  0.67312  0.07784  0.55452  1.0000
  H   H653      1.0  0.94131  0.46179  0.78604  1.0000
  C   C535      1.0  0.70903  0.01207  0.78668  1.0000
  H   H654      1.0  0.67873  0.05260  0.51169  1.0000
  H   H655      1.0  0.71597  0.10151  0.87843  1.0000
  H   H656      1.0  0.89137  0.49159  0.64980  1.0000
  H   H657      1.0  0.99381  0.30621  0.79130  1.0000
  Fe  Fe74      1.0  0.91038  0.35532  0.69991  1.0000
  S   S146      1.0  0.90959  0.39349  0.71339  1.0000
  S   S147      1.0  0.92120  0.32642  0.74098  1.0000
  Fe  Fe75      1.0  0.90602  0.36526  0.61497  1.0000
  S   S148      1.0  0.90512  0.40400  0.62222  1.0000
  S   S149      1.0  0.90483  0.34716  0.55886  1.0000
  Fe  Fe76      1.0  0.93313  0.39676  0.66353  1.0000
  S   S150      1.0  0.96346  0.41915  0.66865  1.0000
  Fe  Fe77      1.0  0.88150  0.39760  0.67114  1.0000
  S   S151      1.0  0.84930  0.42106  0.67991  1.0000
  S   S152      1.0  0.93629  0.35836  0.65259  1.0000
  S   S153      1.0  0.88000  0.35897  0.66125  1.0000
  C   C536      1.0  0.85219  0.45120  0.67326  1.0000
  C   C537      1.0  0.87346  0.46032  0.66274  1.0000
  S   S154      1.0  0.86980  0.27286  0.99553  1.0000
  C   C538      1.0  0.83254  0.46634  0.67845  1.0000
  H   H658      1.0  0.88868  0.44872  0.65847  1.0000
  H   H659      1.0  0.81605  0.45945  0.68642  1.0000
  C   C539      1.0  0.87619  0.12493  0.97803  1.0000
  H   H660      1.0  0.88117  0.41412  0.78371  1.0000
  H   H661      1.0  0.76828  0.17836  0.89513  1.0000
  H   H662      1.0  0.84222  0.43412  0.77994  1.0000
  H   H663      1.0  0.81242  0.22371  0.83583  1.0000
  C   C540      1.0  0.67608  0.09973  0.80906  1.0000
  H   H664      1.0  0.80049  0.07453  0.99765  1.0000
  H   H665      1.0  0.97369  0.38050  0.61901  1.0000
  C   C541      1.0  0.88844  0.31033  0.85589  1.0000
  C   C542      1.0  0.87843  0.32818  0.83345  1.0000
  C   C543      1.0  0.88833  0.33351  0.79837  1.0000
  C   C544      1.0  0.90821  0.32078  0.78516  1.0000
  C   C545      1.0  0.91817  0.30286  0.80755  1.0000
  C   C546      1.0  0.90845  0.29774  0.84283  1.0000
  H   H666      1.0  0.86290  0.33795  0.84327  1.0000
  H   H667      1.0  0.88042  0.34726  0.78140  1.0000
  H   H668      1.0  0.93337  0.29270  0.79746  1.0000
  H   H669      1.0  0.91614  0.28377  0.85961  1.0000
  C   C547      1.0  0.99977  0.34469  0.75020  1.0000
  H   H670      1.0  0.78591  0.19197  0.83599  1.0000
  C   C548      1.0  0.99421  0.24315  0.98079  1.0000
  C   C549      1.0  0.83606  0.18835  0.98987  1.0000
  H   H671      1.0  0.71606  0.05948  0.77604  1.0000
  H   H672      1.0  0.98362  0.30365  0.68864  1.0000
  H   H673      1.0  0.00242  0.45691  0.68695  1.0000
  C   C550      1.0  0.85760  0.44369  0.77431  1.0000
  H   H674      1.0  0.96246  0.35411  0.75044  1.0000
  C   C551      1.0  0.69943  0.09957  0.86541  1.0000
  C   C552      1.0  0.97066  0.30276  0.88565  1.0000
  H   H675      1.0  0.95629  0.29133  0.88767  1.0000
  S   S155      1.0  0.71577  0.05910  0.00612  1.0000
  N   N37       1.0  0.91911  0.48042  0.74667  1.0000
  H   H676      1.0  0.69542  0.01309  0.71288  1.0000
  N   N38       1.0  0.83829  0.40988  0.56615  1.0000
  C   C553      1.0  0.85484  0.42839  0.57164  1.0000
  H   H677      1.0  0.87187  0.49714  0.74617  1.0000
  C   C554      1.0  0.84752  0.38860  0.58576  1.0000
  S   S156      1.0  0.67467  0.10260  0.75989  1.0000
  S   S157      1.0  0.96997  0.23871  0.95277  1.0000
  C   C555      1.0  0.98837  0.38228  0.63680  1.0000
  H   H678      1.0  0.98233  0.28906  0.75477  1.0000
  H   H679      1.0  0.98865  0.48975  0.62979  1.0000
  H   H680      1.0  0.67339  0.13647  0.54415  1.0000
  C   C556      1.0  0.98117  0.38242  0.76947  1.0000
  C   C557      1.0  0.00272  0.39068  0.77778  1.0000
  H   H681      1.0  0.96686  0.31511  0.76997  1.0000
  H   H682      1.0  0.83562  0.37409  0.58381  1.0000
  N   N39       1.0  0.99759  0.32068  0.73625  1.0000
  C   C558      1.0  0.81259  0.08888  0.99409  1.0000
  H   H683      1.0  0.71277  0.10534  0.80961  1.0000
  H   H684      1.0  0.81888  0.50200  0.67889  1.0000
  H   H685      1.0  0.84956  0.39180  0.61604  1.0000
  C   C559      1.0  0.87508  0.47928  0.75508  1.0000
  H   H686      1.0  0.95068  0.48973  0.77282  1.0000
  C   C560      1.0  0.86093  0.10721  0.98474  1.0000
  S   S158      1.0  0.77755  0.02809  0.99493  1.0000
  H   H687      1.0  0.85112  0.06125  0.99420  1.0000
  H   H688      1.0  0.96632  0.32816  0.70470  1.0000
  H   H689      1.0  0.74157  0.02055  0.94120  1.0000
  C   C561      1.0  0.98741  0.33718  0.86063  1.0000
  C   C562      1.0  0.98825  0.40058  0.66242  1.0000
  H   H690      1.0  0.82953  0.28291  0.86944  1.0000
  C   C563      1.0  0.70971  0.04879  0.75300  1.0000
  C   C564      1.0  0.81010  0.15656  0.97862  1.0000
  C   C565      1.0  0.93491  0.47981  0.77883  1.0000
  C   C566      1.0  0.89781  0.46824  0.75641  1.0000
  H   H691      1.0  0.88702  0.12475  0.95294  1.0000
  C   C567      1.0  0.68282  0.02111  0.73370  1.0000
  H   H692      1.0  0.80845  0.43423  0.57365  1.0000
  H   H693      1.0  0.96555  0.39372  0.77270  1.0000
  H   H694      1.0  0.99306  0.33245  0.67986  1.0000
  S   S159      1.0  0.68072  0.09409  0.93689  1.0000
  H   H695      1.0  0.81751  0.41952  0.61506  1.0000
  C   C568      1.0  0.98462  0.32130  0.70093  1.0000
  C   C569      1.0  0.87718  0.14326  0.00311  1.0000
  C   C570      1.0  0.81571  0.41724  0.58438  1.0000
  H   H696      1.0  0.82254  0.44220  0.51468  1.0000
  Fe  Fe78      1.0  0.93312  0.24989  0.97156  1.0000
  H   H697      1.0  0.95310  0.32670  0.84802  1.0000
  H   H698      1.0  0.84789  0.44580  0.56221  1.0000
  H   H699      1.0  0.83847  0.16572  0.94198  1.0000
  H   H700      1.0  0.98868  0.45968  0.62096  1.0000
  C   C571      1.0  0.67974  0.09559  0.88750  1.0000
  N   N40       1.0  0.69479  0.03012  0.76656  1.0000
  C   C572      1.0  0.85537  0.49974  0.66433  1.0000
  H   H701      1.0  0.86048  0.09364  0.96407  1.0000
  S   S160      1.0  0.86097  0.20364  0.97536  1.0000
  C   C573      1.0  0.69755  0.10176  0.82640  1.0000
  C   C574      1.0  0.99075  0.29762  0.90597  1.0000
  C   C575      1.0  0.78487  0.20315  0.92874  1.0000
  H   H702      1.0  0.92596  0.48759  0.80403  1.0000
  H   H703      1.0  0.93738  0.45042  0.72081  1.0000
  C   C576      1.0  0.96889  0.32261  0.86328  1.0000
  C   C577      1.0  0.98464  0.30718  0.76431  1.0000
  C   C578      1.0  0.87502  0.48460  0.65807  1.0000
  H   H704      1.0  0.98603  0.35251  0.84291  1.0000
  C   C579      1.0  0.97962  0.35973  0.75624  1.0000
  C   C580      1.0  0.82904  0.16988  0.96771  1.0000
  N   N41       1.0  0.82626  0.24916  0.89527  1.0000
  C   C581      1.0  0.84979  0.23999  0.88325  1.0000
  C   C582      1.0  0.81826  0.26771  0.86878  1.0000
  C   C583      1.0  0.82831  0.26035  0.93219  1.0000
  C   C584      1.0  0.81016  0.22993  0.89581  1.0000
  C   C585      1.0  0.79992  0.22140  0.92928  1.0000
  C   C586      1.0  0.80479  0.21864  0.86218  1.0000
  C   C587      1.0  0.77978  0.19265  0.89522  1.0000
  H   H705      1.0  0.80258  0.40407  0.58011  1.0000
  H   H706      1.0  0.90224  0.39636  0.53715  1.0000
  H   H707      1.0  0.86253  0.25392  0.88317  1.0000
  H   H708      1.0  0.85639  0.22587  0.90231  1.0000
  H   H709      1.0  0.85009  0.23267  0.85465  1.0000
  H   H710      1.0  0.81886  0.26171  0.83940  1.0000
  H   H711      1.0  0.80503  0.14257  0.96106  1.0000
  H   H712      1.0  0.80013  0.27427  0.87572  1.0000
  H   H713      1.0  0.83613  0.24790  0.95290  1.0000
  H   H714      1.0  0.83982  0.27527  0.93067  1.0000
  H   H715      1.0  0.81114  0.26740  0.94319  1.0000
  H   H716      1.0  0.80356  0.22818  0.95644  1.0000
  C   C588      1.0  0.78975  0.20035  0.86199  1.0000
  H   H717      1.0  0.94721  0.47787  0.70564  1.0000
  H   H718      1.0  0.83820  0.47566  0.76178  1.0000
  H   H719      1.0  0.67284  0.03531  0.71867  1.0000
  C   C589      1.0  0.83415  0.49044  0.67418  1.0000
  H   H720      1.0  0.91606  0.43486  0.76868  1.0000
  H   H721      1.0  0.80193  0.10565  0.99470  1.0000
  C   C590      1.0  0.89943  0.44447  0.76747  1.0000
  C   C591      1.0  0.90004  0.38593  0.51265  1.0000
  C   C592      1.0  0.67525  0.11816  0.53669  1.0000
  H   H722      1.0  0.84697  0.36924  0.52246  1.0000
  C   C593      1.0  0.87958  0.43244  0.77623  1.0000
  Fe  Fe79      1.0  0.88283  0.23527  0.98747  1.0000
  H   H723      1.0  0.68426  0.04887  0.81702  1.0000
  H   H724      1.0  0.77748  0.19680  0.95470  1.0000
  C   C594      1.0  0.93144  0.46872  0.71454  1.0000
  H   H725      1.0  0.92004  0.46823  0.69000  1.0000
  H   H726      1.0  0.99125  0.28184  0.92258  1.0000
  C   C595      1.0  0.85538  0.46709  0.76407  1.0000
  S   S161      1.0  0.92285  0.28782  0.97675  1.0000
  H   H727      1.0  0.98013  0.36442  0.52373  1.0000
  C   C596      1.0  0.67671  0.04052  0.79247  1.0000
  C   C597      1.0  0.72258  0.01838  0.81727  1.0000
  C   C598      1.0  0.67184  0.10136  0.56400  1.0000
  H   H728      1.0  0.82050  0.08697  0.96568  1.0000
  H   H729      1.0  0.88850  0.15737  0.99734  1.0000
  Fe  Fe80      1.0  0.75403  0.06095  0.99839  1.0000
  C   C599      1.0  0.90087  0.36162  0.51565  1.0000
  C   C600      1.0  0.67800  0.07104  0.51765  1.0000
  H   H730      1.0  0.72289  0.03633  0.82616  1.0000
  C   C601      1.0  0.99994  0.47483  0.61900  1.0000
  H   H731      1.0  0.74617  0.00694  0.86039  1.0000
  H   H732      1.0  0.72228  0.85004  0.23547  1.0000
  S   S162      1.0  0.90349  0.64715  0.03081  1.0000
  C   C602      1.0  0.97881  0.64136  0.39882  1.0000
  C   C603      1.0  0.94609  0.62550  0.42936  1.0000
  H   H733      1.0  0.86436  0.55364  0.40566  1.0000
  C   C604      1.0  0.68776  0.99774  0.11761  1.0000
  Fe  Fe81      1.0  0.90121  0.60569  0.24342  1.0000
  S   S163      1.0  0.91789  0.57166  0.22299  1.0000
  S   S164      1.0  0.89055  0.63704  0.20703  1.0000
  Fe  Fe82      1.0  0.89988  0.58867  0.32574  1.0000
  S   S165      1.0  0.91645  0.55365  0.31114  1.0000
  S   S166      1.0  0.88730  0.59861  0.38426  1.0000
  Fe  Fe83      1.0  0.93985  0.57359  0.27355  1.0000
  S   S167      1.0  0.97760  0.56184  0.27085  1.0000
  Fe  Fe84      1.0  0.89287  0.55507  0.26233  1.0000
  S   S168      1.0  0.87227  0.52440  0.24798  1.0000
  S   S169      1.0  0.92515  0.60887  0.29185  1.0000
  S   S170      1.0  0.87427  0.58878  0.27927  1.0000
  C   C605      1.0  0.89941  0.58592  0.42496  1.0000
  C   C606      1.0  0.91834  0.56959  0.42318  1.0000
  C   C607      1.0  0.96041  0.67436  0.05217  1.0000
  H   H734      1.0  0.88278  0.52913  0.45472  1.0000
  H   H735      1.0  0.67174  0.97085  0.34544  1.0000
  H   H736      1.0  0.92500  0.56341  0.39638  1.0000
  H   H737      1.0  0.87603  0.60611  0.46161  1.0000
  H   H738      1.0  0.99353  0.51749  0.29607  1.0000
  H   H739      1.0  0.75651  0.80068  0.16167  1.0000
  C   C608      1.0  0.00061  0.68052  0.03612  1.0000
  H   H740      1.0  0.97214  0.61230  0.27562  1.0000
  H   H741      1.0  0.83869  0.65921  0.10474  1.0000
  H   H742      1.0  0.67088  0.83093  0.14374  1.0000
  H   H743      1.0  0.78394  0.80346  0.11169  1.0000
  H   H744      1.0  0.77491  0.80250  0.06437  1.0000
  H   H745      1.0  0.93744  0.60990  0.43934  1.0000
  C   C609      1.0  0.73151  0.96244  0.06928  1.0000
  C   C610      1.0  0.90208  0.64581  0.08027  1.0000
  C   C611      1.0  0.90854  0.62456  0.09783  1.0000
  C   C612      1.0  0.90604  0.62188  0.13673  1.0000
  C   C613      1.0  0.89655  0.64033  0.15851  1.0000
  C   C614      1.0  0.89061  0.66178  0.14108  1.0000
  C   C615      1.0  0.89355  0.66460  0.10218  1.0000
  H   H746      1.0  0.91522  0.60995  0.08112  1.0000
  H   H747      1.0  0.91111  0.60541  0.14966  1.0000
  H   H748      1.0  0.88335  0.67619  0.15769  1.0000
  H   H749      1.0  0.88848  0.68104  0.08907  1.0000
  C   C616      1.0  0.84818  0.62998  0.06954  1.0000
  C   C617      1.0  0.92931  0.56203  0.45616  1.0000
  C   C618      1.0  0.85294  0.60599  0.06785  1.0000
  C   C619      1.0  0.87937  0.50534  0.35418  1.0000
  H   H750      1.0  0.68366  0.97338  0.45859  1.0000
  C   C620      1.0  0.68308  0.85963  0.11114  1.0000
  C   C621      1.0  0.89075  0.59356  0.46001  1.0000
  C   C622      1.0  0.96901  0.60200  0.38547  1.0000
  H   H751      1.0  0.87805  0.59053  0.18143  1.0000
  H   H752      1.0  0.85896  0.59815  0.04170  1.0000
  H   H753      1.0  0.68715  0.84914  0.08669  1.0000
  C   C623      1.0  0.98786  0.60642  0.28937  1.0000
  H   H754      1.0  0.95741  0.60820  0.36258  1.0000
  H   H755      1.0  0.93465  0.63291  0.40704  1.0000
  H   H756      1.0  0.83231  0.58864  0.22700  1.0000
  C   C624      1.0  0.96662  0.66922  0.08870  1.0000
  H   H757      1.0  0.72887  0.84905  0.07101  1.0000
  C   C625      1.0  0.67123  0.88673  0.17448  1.0000
  H   H758      1.0  0.69838  0.96530  0.01841  1.0000
  H   H759      1.0  0.85067  0.64065  0.04491  1.0000
  H   H760      1.0  0.74001  0.81064  0.22269  1.0000
  H   H761      1.0  0.81620  0.60903  0.19820  1.0000
  H   H762      1.0  0.83514  0.63633  0.16108  1.0000
  H   H763      1.0  0.98643  0.59749  0.37267  1.0000
  H   H764      1.0  0.67497  0.95235  0.42522  1.0000
  H   H765      1.0  0.86530  0.56559  0.20204  1.0000
  C   C626      1.0  0.73658  0.83093  0.07342  1.0000
  C   C627      1.0  0.92107  0.57022  0.49117  1.0000
  H   H766      1.0  0.72432  0.94542  0.06244  1.0000
  C   C628      1.0  0.69448  0.98032  0.09075  1.0000
  C   C629      1.0  0.70591  0.98209  0.02551  1.0000
  H   H767      1.0  0.72270  0.81981  0.08422  1.0000
  C   C630      1.0  0.72677  0.00419  0.06888  1.0000
  H   H768      1.0  0.96638  0.64954  0.37858  1.0000
  H   H769      1.0  0.72194  0.88019  0.18625  1.0000
  C   C631      1.0  0.74005  0.82381  0.20096  1.0000
  H   H770      1.0  0.73758  0.87121  0.12404  1.0000
  H   H771      1.0  0.84592  0.61384  0.21043  1.0000
  H   H772      1.0  0.85518  0.57384  0.09729  1.0000
  Fe  Fe85      1.0  0.71342  0.88143  0.01613  1.0000
  C   C632      1.0  0.68129  0.89682  0.14258  1.0000
  H   H773      1.0  0.99260  0.51863  0.23008  1.0000
  H   H774      1.0  0.78072  0.84192  0.05551  1.0000
  C   C633      1.0  0.98983  0.66986  0.09930  1.0000
  N   N42       1.0  0.75705  0.82951  0.09774  1.0000
  H   H775      1.0  0.98186  0.65438  0.42078  1.0000
  H   H776      1.0  0.78901  0.84682  0.10284  1.0000
  C   C634      1.0  0.76853  0.80580  0.09359  1.0000
  C   C635      1.0  0.74916  0.83517  0.13637  1.0000
  C   C636      1.0  0.84143  0.64041  0.10332  1.0000
  C   C637      1.0  0.67371  0.84938  0.14346  1.0000
  C   C638      1.0  0.77389  0.84643  0.08410  1.0000
  C   C639      1.0  0.74948  0.81833  0.16558  1.0000
  N   N43       1.0  0.84229  0.58745  0.16853  1.0000
  C   C640      1.0  0.82629  0.56854  0.16224  1.0000
  C   C641      1.0  0.86563  0.57679  0.17666  1.0000
  C   C642      1.0  0.83373  0.60039  0.20236  1.0000
  C   C643      1.0  0.84386  0.60231  0.13482  1.0000
  C   C644      1.0  0.85079  0.59229  0.09990  1.0000
  C   C645      1.0  0.83943  0.62692  0.13565  1.0000
  H   H777      1.0  0.92212  0.51648  0.24587  1.0000
  C   C646      1.0  0.68735  0.88335  0.11081  1.0000
  H   H778      1.0  0.76599  0.86445  0.08185  1.0000
  H   H779      1.0  0.80878  0.57582  0.15425  1.0000
  H   H780      1.0  0.83280  0.55630  0.13999  1.0000
  H   H781      1.0  0.82417  0.55760  0.18771  1.0000
  H   H782      1.0  0.87295  0.56557  0.15365  1.0000
  H   H783      1.0  0.99526  0.63830  0.38263  1.0000
  S   S171      1.0  0.70112  0.89683  0.07232  1.0000
  C   C647      1.0  0.73016  0.84604  0.20834  1.0000
  N   N44       1.0  0.71435  0.98241  0.06426  1.0000
  H   H784      1.0  0.74119  0.82499  0.04465  1.0000
  H   H785      1.0  0.94452  0.55011  0.45451  1.0000
  H   H786      1.0  0.73744  0.96135  0.09859  1.0000
  H   H787      1.0  0.75626  0.79197  0.09994  1.0000
  C   C648      1.0  0.99502  0.58272  0.28932  1.0000
  C   C649      1.0  0.73918  0.85771  0.14506  1.0000
  C   C650      1.0  0.72997  0.86301  0.18057  1.0000
  C   C651      1.0  0.68110  0.96032  0.09008  1.0000
  H   H788      1.0  0.94240  0.67408  0.04417  1.0000
  C   C652      1.0  0.90145  0.58565  0.49302  1.0000
  C   C653      1.0  0.98594  0.61015  0.44441  1.0000
  C   C654      1.0  0.00145  0.62267  0.30647  1.0000
  H   H789      1.0  0.99334  0.66570  0.12807  1.0000
  H   H790      1.0  0.86247  0.53874  0.34132  1.0000
  C   C655      1.0  0.88160  0.52221  0.42674  1.0000
  C   C656      1.0  0.97763  0.60137  0.47905  1.0000
  C   C657      1.0  0.97736  0.67989  0.02592  1.0000
  H   H791      1.0  0.95937  0.60139  0.48643  1.0000
  H   H792      1.0  0.68481  0.91510  0.14284  1.0000
  H   H793      1.0  0.94584  0.63831  0.45250  1.0000
  N   N45       1.0  0.97015  0.61964  0.41527  1.0000
  C   C658      1.0  0.87014  0.52770  0.36295  1.0000
  H   H794      1.0  0.69241  0.99637  0.02087  1.0000
  H   H795      1.0  0.95324  0.66477  0.10889  1.0000
  H   H796      1.0  0.96231  0.58551  0.39660  1.0000
  H   H797      1.0  0.74714  0.96393  0.05076  1.0000
  H   H798      1.0  0.68512  0.94634  0.07046  1.0000
  H   H799      1.0  0.99588  0.64097  0.30657  1.0000
  C   C659      1.0  0.87124  0.53612  0.39914  1.0000
  C   C660      1.0  0.99291  0.59181  0.50553  1.0000
  Fe  Fe86      1.0  0.93536  0.70014  0.93470  1.0000
  S   S172      1.0  0.92279  0.66411  0.93878  1.0000
  C   C661      1.0  0.82302  0.76472  0.97706  1.0000
  C   C662      1.0  0.97070  0.62895  0.89137  1.0000
  H   H800      1.0  0.84704  0.80293  0.91730  1.0000
  H   H801      1.0  0.94227  0.60554  0.90157  1.0000
  Fe  Fe87      1.0  0.89362  0.67627  0.90259  1.0000
  S   S173      1.0  0.88044  0.65210  0.85831  1.0000
  S   S174      1.0  0.90727  0.71168  0.89507  1.0000
  Fe  Fe88      1.0  0.70187  0.86572  0.93611  1.0000
  S   S175      1.0  0.73889  0.86719  0.91576  1.0000
  H   H802      1.0  0.94790  0.62143  0.80417  1.0000
  C   C663      1.0  0.80237  0.77811  0.98651  1.0000
  C   C664      1.0  0.96146  0.65739  0.84327  1.0000
  H   H803      1.0  0.82630  0.74761  0.98914  1.0000
  C   C665      1.0  0.85446  0.71888  0.84507  1.0000
  H   H804      1.0  0.90542  0.51531  0.75954  1.0000
  H   H805      1.0  0.76621  0.78161  0.84255  1.0000
  Fe  Fe89      1.0  0.92374  0.56463  0.59130  1.0000
  S   S176      1.0  0.91977  0.52989  0.61908  1.0000
  S   S177      1.0  0.93733  0.56275  0.53118  1.0000
  Fe  Fe90      1.0  0.91582  0.59147  0.66607  1.0000
  S   S178      1.0  0.91076  0.55874  0.69849  1.0000
  S   S179      1.0  0.92001  0.62639  0.69490  1.0000
  Fe  Fe91      1.0  0.94098  0.54355  0.66461  1.0000
  S   S180      1.0  0.97112  0.52294  0.68927  1.0000
  Fe  Fe92      1.0  0.88985  0.54785  0.65008  1.0000
  S   S181      1.0  0.85634  0.53033  0.66114  1.0000
  S   S182      1.0  0.94770  0.57678  0.63496  1.0000
  S   S183      1.0  0.89205  0.58219  0.61948  1.0000
  H   H806      1.0  0.96219  0.64748  0.51777  1.0000
  H   H807      1.0  0.85722  0.73006  0.82015  1.0000
  H   H808      1.0  0.79415  0.77793  0.89385  1.0000
  C   C666      1.0  0.98649  0.54315  0.71382  1.0000
  H   H809      1.0  0.78993  0.77102  0.00583  1.0000
  C   C667      1.0  0.79686  0.73201  0.81463  1.0000
  H   H810      1.0  0.95606  0.56564  0.72581  1.0000
  S   S184      1.0  0.70080  0.90028  0.96502  1.0000
  H   H811      1.0  0.97054  0.64455  0.68542  1.0000
  C   C668      1.0  0.68829  0.85763  0.79122  1.0000
  C   C669      1.0  0.78017  0.75070  0.81431  1.0000
  H   H812      1.0  0.83050  0.70711  0.90586  1.0000
  H   H813      1.0  0.77588  0.94321  0.98039  1.0000
  H   H814      1.0  0.81063  0.82632  0.93385  1.0000
  H   H815      1.0  0.72266  0.95302  0.79095  1.0000
  H   H816      1.0  0.98827  0.62792  0.79982  1.0000
  S   S185      1.0  0.87035  0.68667  0.95181  1.0000
  C   C670      1.0  0.83939  0.77356  0.95216  1.0000
  C   C671      1.0  0.89255  0.64498  0.81354  1.0000
  C   C672      1.0  0.88617  0.62449  0.79612  1.0000
  C   C673      1.0  0.89481  0.61834  0.76021  1.0000
  C   C674      1.0  0.90964  0.63287  0.74095  1.0000
  C   C675      1.0  0.91610  0.65338  0.75842  1.0000
  C   C676      1.0  0.90770  0.65937  0.79460  1.0000
  H   H817      1.0  0.87437  0.61329  0.81040  1.0000
  H   H818      1.0  0.88955  0.60261  0.74710  1.0000
  H   H819      1.0  0.92744  0.66483  0.74368  1.0000
  H   H820      1.0  0.91254  0.67534  0.80745  1.0000
  H   H821      1.0  0.70401  0.85832  0.77428  1.0000
  C   C677      1.0  0.97503  0.62555  0.96999  1.0000
  S   S186      1.0  0.77120  0.81646  0.98465  1.0000
  H   H822      1.0  0.94543  0.66329  0.85932  1.0000
  H   H823      1.0  0.76788  0.75245  0.79186  1.0000
  C   C678      1.0  0.76807  0.95999  0.97230  1.0000
  C   C679      1.0  0.98699  0.58058  0.74464  1.0000
  C   C680      1.0  0.83460  0.79588  0.93669  1.0000
  C   C681      1.0  0.81315  0.72936  0.84383  1.0000
  C   C682      1.0  0.74166  0.98318  0.93385  1.0000
  S   S187      1.0  0.71114  0.84646  0.98907  1.0000
  H   H824      1.0  0.97425  0.73507  0.97390  1.0000
  C   C683      1.0  0.68969  0.85814  0.83040  1.0000
  H   H825      1.0  0.99587  0.60747  0.83609  1.0000
  C   C684      1.0  0.95608  0.61489  0.91336  1.0000
  C   C685      1.0  0.99000  0.62594  0.83053  1.0000
  H   H826      1.0  0.70638  0.85914  0.84340  1.0000
  H   H827      1.0  0.74573  0.96522  0.84393  1.0000
  C   C686      1.0  0.99189  0.72832  0.96825  1.0000
  H   H828      1.0  0.80965  0.69026  0.88313  1.0000
  C   C687      1.0  0.72269  0.97137  0.79793  1.0000
  S   S188      1.0  0.91543  0.71267  0.98619  1.0000
  Fe  Fe93      1.0  0.90105  0.67678  0.98800  1.0000
  H   H829      1.0  0.97772  0.59619  0.75505  1.0000
  C   C688      1.0  0.75131  0.96124  0.94461  1.0000
  C   C689      1.0  0.81171  0.74657  0.87219  1.0000
  H   H830      1.0  0.69791  0.92245  0.88271  1.0000
  C   C690      1.0  0.77584  0.98060  0.98778  1.0000
  C   C691      1.0  0.98994  0.63904  0.94917  1.0000
  C   C692      1.0  0.99354  0.64264  0.54906  1.0000
  H   H831      1.0  0.72862  0.98428  0.91265  1.0000
  H   H832      1.0  0.84357  0.67840  0.81666  1.0000
  N   N46       1.0  0.83089  0.70971  0.84560  1.0000
  C   C693      1.0  0.94953  0.61852  0.83476  1.0000
  H   H833      1.0  0.89498  0.59213  0.51979  1.0000
  H   H834      1.0  0.98600  0.58513  0.53163  1.0000
  N   N47       1.0  0.96785  0.63246  0.85074  1.0000
  C   C694      1.0  0.83003  0.69298  0.81422  1.0000
  H   H835      1.0  0.69978  0.98148  0.75473  1.0000
  H   H836      1.0  0.95190  0.63148  0.63252  1.0000
  H   H837      1.0  0.97531  0.66900  0.85132  1.0000
  H   H838      1.0  0.83997  0.68092  0.88238  1.0000
  C   C695      1.0  0.97468  0.56325  0.72799  1.0000
  H   H839      1.0  0.68719  0.93011  0.74460  1.0000
  Fe  Fe94      1.0  0.73821  0.90125  0.94764  1.0000
  H   H840      1.0  0.95344  0.59951  0.83879  1.0000
  H   H841      1.0  0.94633  0.60336  0.96855  1.0000
  H   H842      1.0  0.90356  0.50708  0.71110  1.0000
  C   C696      1.0  0.82757  0.69648  0.88073  1.0000
  C   C697      1.0  0.70952  0.98797  0.77744  1.0000
  S   S189      1.0  0.86565  0.75739  0.93830  1.0000
  H   H843      1.0  0.93068  0.51403  0.72993  1.0000
  C   C698      1.0  0.81390  0.80922  0.94600  1.0000
  H   H844      1.0  0.93625  0.63973  0.57174  1.0000
  H   H845      1.0  0.81301  0.68475  0.81364  1.0000
  H   H846      1.0  0.83341  0.70154  0.78690  1.0000
  H   H847      1.0  0.82361  0.74582  0.89509  1.0000
  C   C699      1.0  0.77918  0.76717  0.84280  1.0000
  C   C700      1.0  0.79493  0.76510  0.87167  1.0000
  C   C701      1.0  0.99615  0.71052  0.94211  1.0000
  H   H848      1.0  0.97040  0.61326  0.68086  1.0000
  H   H849      1.0  0.97235  0.68379  0.99749  1.0000
  H   H850      1.0  0.85758  0.72959  0.87007  1.0000
  C   C702      1.0  0.73576  0.97819  0.82783  1.0000
  Fe  Fe95      1.0  0.88573  0.72189  0.94667  1.0000
  H   H851      1.0  0.99026  0.62580  0.71105  1.0000
  S   S190      1.0  0.74396  0.93622  0.91986  1.0000
  H   H852      1.0  0.79662  0.71991  0.79173  1.0000
  Fe  Fe96      1.0  0.74874  0.84991  0.97062  1.0000
  H   H853      1.0  0.86829  0.70450  0.84452  1.0000
  S   S191      1.0  0.97351  0.69887  0.91694  1.0000
  C   C703      1.0  0.79760  0.80045  0.97108  1.0000
  C   C704      1.0  0.73585  0.00168  0.83725  1.0000
  H   H854      1.0  0.72029  0.98435  0.00491  1.0000
  C   C705      1.0  0.95494  0.63941  0.57520  1.0000
  C   C706      1.0  0.95827  0.61337  0.95210  1.0000
  C   C707      1.0  0.98789  0.64069  0.91050  1.0000
  C   C708      1.0  0.96952  0.64367  0.54478  1.0000
  H   H855      1.0  0.69307  0.96409  0.89895  1.0000
  C   C709      1.0  0.96425  0.63461  0.61024  1.0000
  H   H856      1.0  0.93209  0.62343  0.84733  1.0000
  C   C710      1.0  0.98177  0.62816  0.68363  1.0000
  H   H857      1.0  0.95822  0.66072  0.81320  1.0000
  C   C711      1.0  0.68506  0.95786  0.87409  1.0000
  H   H858      1.0  0.68018  0.90322  0.76650  1.0000
  C   C712      1.0  0.98866  0.63384  0.61576  1.0000
  H   H859      1.0  0.97612  0.62492  0.00010  1.0000
  N   N48       1.0  0.99915  0.62895  0.65248  1.0000
  C   C713      1.0  0.68785  0.93436  0.86487  1.0000
  H   H860      1.0  0.00089  0.59179  0.64454  1.0000
  H   H861      1.0  0.67987  0.90752  0.82772  1.0000
  C   C714      1.0  0.67764  0.92604  0.83296  1.0000
  H   H862      1.0  0.78948  0.97952  0.00809  1.0000
  C   C715      1.0  0.74894  0.00375  0.95007  1.0000
  C   C716      1.0  0.67268  0.91890  0.75206  1.0000
  S   S192      1.0  0.75124  0.88433  0.00066  1.0000
  H   H863      1.0  0.99925  0.65214  0.89586  1.0000
  C   C717      1.0  0.76645  0.00254  0.97652  1.0000
  C   C718      1.0  0.00304  0.63756  0.58388  1.0000
  H   H864      1.0  0.00267  0.64893  0.96305  1.0000
  C   C719      1.0  0.67192  0.97313  0.85152  1.0000
  C   C720      1.0  0.91436  0.50525  0.73643  1.0000
