data_image0
_chemical_formula_structural       FeS2FeS2FeSFeS3HCSHCNFeS2FeS2Fe2S3H2FeS2FeS2FeSFeS3FeS2FeS2FeSHS2C6H4C2HC3HCH2C6H4C6H4CHCHC6H4C6H4C8H2C6H2C3NH2NC8H11NC9H17C2HC2HCH2CHC2H4CH2CHC2H2CH2CHC3NH2C2H4CH10CHCFeCH5C2HC3H2C2H9CHNH5SHC2HCHC2HCH2CHN2HC3HCH3CH2C2NH2CHCH2CHCH2CH2SC3H5CH5CH4C2H2CHC2H2C2SCHC3HCHCH4CSHCH3CH2NHSH4NCH5C2SCHFeS2FeS2CFeS3FeS2FeS2HFeS3FeS2FeSFeH5C2S2HCFeS2FeS2FeSFeS3CHC5H3C6H4C6H4C6H4C6H4C6H4C6H5C3H5CHSH3C2NC6H2CH3FeH8CSNC9H15CSHC2H2CHCH2NCHCH3C3HCHNCH3NH2C2HCH2C2H3C2H6C2H3CH2CHCH5C4HCH2C2NHFeCHC2H4CFeHNH2C2HC4HCSCHCH3CFeSC2H2C4H2NC3SHSC2H4C4H7C2H2FeCFeCH5CHC3H2CHCH2SCHCHFeHNHC2HNSH2CHSH3C2H2C3HCSFeS2FeS2FeSFeCS2CHFeS2FeSFeS3C2HFeSCHC3HCSHNCHCH3C2H2C6H4CHSHCH3FeSC2HC3H2C6H4C6H4C6H3NC9H2CH2CH2CH2C2HCH3CH2CHCH3FeS2HNC9H13SFeH3C4H5SHS2H5CHFeHCH2CFeCFeCHSCFeH3FeH3C2HCSH2CHCHCH3C4HCH2SCHC3H2CSH4C2HCHFeHCH3CHFeH2SCHCHC2HSNFeCHCH2CHCNHCHC2HCSHCHCH3C2H2C2H3S2HC2NCH3C3H2NCH3SCH2S3CFeS4CHSH2FeHSFeSHSHSC6H4C2H3CHC9H4N2SC3H3FeH3SH10C2FeHSHNC6HC2H11C3H2C3HSNCH2SC2S2FeHCHFeC2HCHFeC2H2CHFeCHCHCNCHFeCNSC4SH9C6HCH3S2H2C2HC2H5CHC3S2C2HCHCHCH6CNHSH2CHC2HCH4CHCH2C3H2Fe2CSCHFeS2FeS2FeNFeS3FeS2FeS2FeSFeS3FeSHFeS2FeSFeS2FeS2H4SHCSHC2HC2FeSCFeSHFeS2FeSFeS2H2C9H7SCHC2H3C7HCH2CH2C3H2CHC7H4C6H4C6H5C3H2C6H2C6H4CFeH2CH3C2HCH2CNC9H6CH9CH2CNCHCH3SCFeHSH2C2HNH4CH2SCHC3H2CH6C2HC2NHCHC4H4SH5C3H3NH6C2H3C2H4CHCHCHC5H5NC9H18NH4CHCHCHC2HC4H3C2H2CS2HCH5C4HNH2NH2CH2CH2C3HC3HS2HFeCH2CSH3C3FeSC2HSFeS2FeS2FeSFeS3H2C2H2CHSH2FeS2FeHFeSCSC4HCH4C2HC6H2CHC6H6NHCHC3H2SH2C7H5SH5CNHCH2NHCNC4HC2H11CSFeCHC3H6CHCHC3SH4CHCHC2HFeC2H3CH2CHC2H5CH6SCSNC2HC4H2CFeS2FeS2FeSFeS4H2FeH2FeS2FeS2FeSFeS4HC2S2FeSCSFeSFeHSHC2HCNH2CHSC4H2C6H5C3H2C6H4C6H4NC2FeSC2H3C9HC2H2C2H3C2HFeSHC2H7SC3HNH2SCHCSCHCH2CH2C2NHC3HFeH4C2H3CHCHC3HNC9H14CH4NHC2H2CFeNH2C2HCH8CNC9H8CHC2H2SC3H2CHCH2CH5C2H3CHCH5CH2CH3CH6FeSHFeHFeS2FeS2FeS2FeSFeS3FeSHSHFeHFeS2FeS2H2NHC2HC7H4C6H4C7SH2C6H5C2H2CH4CH3SNC6HC2H11C4HNC4SH2CSCH5SHC3FeSFeH3CH2CHC3HCH5NC9H15CH3CHSCH2CHCH4C2HC6H2C2SH2CHC2H2FeNSFeHCHC3SH2CH3CH3C2HCNHCH2SH2C2HC2NH3C2SC2HFeS2FeS2FeSFeS3H2SCFeS2FeSFeS4FeS2FeS2FeSFeS3FeSHFeS2FeSFeCS2HC8H4C6H4C6H4C6H4CH2C7H4C6H4C3H7C7H5CH3CNC9H14C4H3CHCHC4H2C2HCFeCHCH2NH2CH3SH2C6H5NC2H7CHC5H4CSFeHCH8NHCHC4HCHC2H2CHCH4CHCHNH2CSH4CHNCH4CH2C2H2NCH2CH2CHCHC3H3CH2NH3CH2SH2CHCH2NC3HCH3CHCHCHCH3CHFeHSFeCSHFeHS2HFeS2FeS2FeSFeS3HFeS2FeS2FeSFeS3FeS2FeS2HFeS3C7H6C3HCH3C6H4C6H4C6H3C7H4C6H4C6H3C2NC9H10NC9H15CH2C2H3CNC4H2CHSHSCH2C2H4C3H2N2CH5CH3CH2C3H3C4NH5NSC2H2SNH2C2HC2H2C2HCHSCH2CHCHCH4CH2CNH15FeCH2C3HCH6CHCHCH8FeC3SH2CHSCH2CHCH2CH2CH2C3NCHSFeHCH3CHC3HFeS2FeS2FeSFeS3FeS2FeS2FeSFeS3HFeS2H3FeSHSCH3NHFeSCSCFeHCSHCH4C2SCFeCH2NFeSH4C6H4C6H4C6H4C2H3CS2CHCH3C5HC2HC2H2CH2C6H4CNC6FeC2H10FeH3NC9H14NC10H4CH9SC2HC2HFeH3CHSC2NHC3HC2HCH7CH6CHC3H3SHCNCHCHC3HSCH3CH2C3HSC3HCH2NSCH2C4HC2H3CH2SH2CH3CSCHC2HCHCHC5H2C2HCSH2FeSC2FeH2FeSNHFeS4FeS2C2HC6H3SHCSH2CHC7H4CH4SCH2NH2CHCHFeHC4HSH3CH3CHCHCHFeHC2SCH2CNHSHCSFeSHCHFeSHCHFeCHCH6FeC2SC2HC3FeC3SHCH2CHC2H2CSH2CHSC2HCH2C2H4C2H4CHC2H3CNC5HCH2NH4CHCHCH8C3HC3HC2HCSH3NC7HCHCHCHSHSCHCHS2HCH2CHCH4C3H9C2H2C3H4NH2SCHFeS2FeSHFeHFeS3CFeSFeS2FeS2FeCFeS3FeS2FeS2FeSFeS3C3HCH2C2H6CFeHCHC2HCHCHC6H4C6H4C6H4SHCH3CH3CHSHC5H4C4H4CHC2HCFeCH2CH2SHCHCH3FeC2H2CHCHC4H2CH4SC3HNC2HCH2SCH2SH4C6HFeC5HNCNC9H12SCS2CH5CNH4CHC2NH2CHC5HC2SHCH3C3H4CH2CH3CHNH2CHCH4CHCSCH2CH2CSH2FeCH2NCH5CH2CHNFeH2CHCSH3CHC4HFeS2FeSCFeSHS2HFeS2FeSHFe2S3FeS2FeS2FeSFeS3H3CHCFeNH4C7H8C2H5NCH4CHSC6H4C6H4C2H2CH2CHC3H3C5H6CHNH2CNSHNH2NH2C3HCH3SCHC3HCHC2H2C2H6SCHC3HCH2CH3CHNCHCHC2H2C2H5CH3C4HCHCHCHCHC3H5CH2SCNH3CH2C2SHFeS2FeS2FeSFeS3FeS2FeS2FeSFeS3HSH2SCFeSC2SCFeS2FeS2FeHFeS3HSC6H4C3H6C2H6SHC6H4C6H4C4H2C6H4C6H4C6HCH2C6H2CH5C2H4CH4C4HCH2NC9H13CH3NHC2H2CH3NCHC2H3NC3SHNCHC4H4CH2NH2CHCHCHCHCH2CHCHCH2C3H2C2NCHCSC2H2C2HCH2C2HC2HCFeH3FeCH3CH2CH2CH2CFeHCH7CFeSHSFeSHS2H2CSH2FeS2FeHFeCS2CFeS2FeS2FeSFeS3HS2HFeS2H2C6H4C6H3C6H7C7H2C8H5CHCH4CHCH2CHSH2FeH4NC2H3CH3C3HC2SHC6H3CH2C2HNH2CFeCNHC3HSC3H2CH3CHCH2CHCNHCH2CH2SH2C2H2CH3FeHCHNC4H3CH2CH2C4SCHCHC2H3SC2H5C2H2CHCH2FeNH4FeCHCHFe2H5SCHC4HC2SC3H2
_chemical_formula_sum              "Fe256 S512 H2304 C1920 N128"
_cell_length_a       81.8089
_cell_length_b       81.9815
_cell_length_c       81.5641
_cell_angle_alpha    75.3153
_cell_angle_beta     75.2101
_cell_angle_gamma    75.4265

_space_group_name_H-M_alt    "P 1"
_space_group_IT_number       1

loop_
  _space_group_symop_operation_xyz
  'x, y, z'

loop_
  _atom_site_type_symbol
  _atom_site_label
  _atom_site_symmetry_multiplicity
  _atom_site_fract_x
  _atom_site_fract_y
  _atom_site_fract_z
  _atom_site_occupancy
  Fe  Fe1       1.0  0.16308  0.14764  0.10241  1.0000
  S   S1        1.0  0.15960  0.17450  0.08664  1.0000
  S   S2        1.0  0.18854  0.12927  0.10133  1.0000
  Fe  Fe2       1.0  0.12509  0.15025  0.11725  1.0000
  S   S3        1.0  0.11809  0.17727  0.10272  1.0000
  S   S4        1.0  0.10720  0.13367  0.13503  1.0000
  Fe  Fe3       1.0  0.13716  0.16805  0.08009  1.0000
  S   S5        1.0  0.13211  0.17574  0.05279  1.0000
  Fe  Fe4       1.0  0.14101  0.18111  0.11068  1.0000
  S   S6        1.0  0.14013  0.20502  0.11982  1.0000
  S   S7        1.0  0.14229  0.14065  0.09406  1.0000
  S   S8        1.0  0.14649  0.15475  0.12696  1.0000
  H   H1        1.0  0.18391  0.10488  0.06014  1.0000
  C   C1        1.0  0.06019  0.14656  0.06464  1.0000
  S   S9        1.0  0.13398  0.11897  0.01170  1.0000
  H   H2        1.0  0.13860  0.11664  0.04561  1.0000
  C   C2        1.0  0.10731  0.15475  0.29616  1.0000
  N   N1        1.0  0.18607  0.13145  0.04887  1.0000
  Fe  Fe5       1.0  0.11760  0.05773  0.17597  1.0000
  S   S10       1.0  0.11568  0.04590  0.20408  1.0000
  S   S11       1.0  0.09490  0.06498  0.16315  1.0000
  Fe  Fe6       1.0  0.15625  0.05491  0.16952  1.0000
  S   S12       1.0  0.15748  0.04248  0.19723  1.0000
  S   S13       1.0  0.18111  0.05698  0.15019  1.0000
  Fe  Fe7       1.0  0.13930  0.02694  0.19499  1.0000
  Fe  Fe8       1.0  0.13391  0.06276  0.20333  1.0000
  S   S14       1.0  0.12777  0.07873  0.22386  1.0000
  S   S15       1.0  0.13997  0.03790  0.16681  1.0000
  S   S16       1.0  0.13385  0.07619  0.17571  1.0000
  H   H3        1.0  0.13695  0.06548  0.11733  1.0000
  H   H4        1.0  0.13649  0.13859  0.06242  1.0000
  Fe  Fe9       1.0  0.16530  0.18902  0.20902  1.0000
  S   S17       1.0  0.18393  0.17180  0.22516  1.0000
  S   S18       1.0  0.17408  0.20358  0.18208  1.0000
  Fe  Fe10      1.0  0.13390  0.18171  0.23644  1.0000
  S   S19       1.0  0.14989  0.16355  0.25491  1.0000
  S   S20       1.0  0.10499  0.19038  0.23859  1.0000
  Fe  Fe11      1.0  0.16686  0.18361  0.24743  1.0000
  S   S21       1.0  0.17636  0.18962  0.26947  1.0000
  Fe  Fe12      1.0  0.16580  0.15345  0.23124  1.0000
  S   S22       1.0  0.17713  0.12635  0.22656  1.0000
  S   S23       1.0  0.14953  0.20233  0.23053  1.0000
  S   S24       1.0  0.14847  0.17007  0.21367  1.0000
  Fe  Fe13      1.0  0.02619  0.11758  0.21711  1.0000
  S   S25       1.0  0.01509  0.12504  0.24273  1.0000
  S   S26       1.0  0.02925  0.08951  0.21756  1.0000
  Fe  Fe14      1.0  0.02801  0.15441  0.19885  1.0000
  S   S27       1.0  0.01631  0.16481  0.22318  1.0000
  S   S28       1.0  0.03715  0.17219  0.17411  1.0000
  Fe  Fe15      1.0  0.03460  0.14211  0.23514  1.0000
  S   S29       1.0  0.05312  0.14001  0.25255  1.0000
  H   H5        1.0  0.16808  0.00987  0.17648  1.0000
  S   S30       1.0  0.04706  0.13269  0.21055  1.0000
  S   S31       1.0  0.00844  0.13821  0.20263  1.0000
  C   C3        1.0  0.06829  0.15363  0.24656  1.0000
  C   C4        1.0  0.08468  0.14725  0.25074  1.0000
  C   C5        1.0  0.09645  0.15819  0.24748  1.0000
  C   C6        1.0  0.09159  0.17575  0.24074  1.0000
  C   C7        1.0  0.07531  0.18208  0.23637  1.0000
  C   C8        1.0  0.06382  0.17101  0.23895  1.0000
  H   H6        1.0  0.08822  0.13386  0.25675  1.0000
  H   H7        1.0  0.23142  0.20949  0.30396  1.0000
  H   H8        1.0  0.07143  0.19566  0.23121  1.0000
  H   H9        1.0  0.05117  0.17610  0.23585  1.0000
  C   C9        1.0  0.22902  0.19424  0.24924  1.0000
  C   C10       1.0  0.08839  0.17936  0.28297  1.0000
  H   H10       1.0  0.05068  0.14363  0.07637  1.0000
  C   C11       1.0  0.18661  0.20490  0.27346  1.0000
  C   C12       1.0  0.19023  0.20265  0.29000  1.0000
  C   C13       1.0  0.09847  0.19022  0.28436  1.0000
  H   H11       1.0  0.23574  0.21834  0.23517  1.0000
  C   C14       1.0  0.19133  0.21900  0.26081  1.0000
  H   H12       1.0  0.18189  0.14692  0.06799  1.0000
  H   H13       1.0  0.12391  0.06453  0.09579  1.0000
  C   C15       1.0  0.07607  0.07133  0.17785  1.0000
  C   C16       1.0  0.06558  0.08751  0.17372  1.0000
  C   C17       1.0  0.05130  0.09332  0.18604  1.0000
  C   C18       1.0  0.04703  0.08254  0.20210  1.0000
  C   C19       1.0  0.05705  0.06605  0.20591  1.0000
  C   C20       1.0  0.07181  0.06058  0.19393  1.0000
  H   H14       1.0  0.06878  0.09574  0.16123  1.0000
  H   H15       1.0  0.04354  0.10607  0.18307  1.0000
  H   H16       1.0  0.05366  0.05769  0.21832  1.0000
  H   H17       1.0  0.07984  0.04805  0.19716  1.0000
  C   C21       1.0  0.14149  0.09229  0.22383  1.0000
  C   C22       1.0  0.15891  0.08937  0.21565  1.0000
  C   C23       1.0  0.16978  0.09969  0.21687  1.0000
  C   C24       1.0  0.16321  0.11333  0.22575  1.0000
  C   C25       1.0  0.14574  0.11645  0.23362  1.0000
  C   C26       1.0  0.13496  0.10587  0.23279  1.0000
  H   H18       1.0  0.16411  0.07882  0.20889  1.0000
  H   H19       1.0  0.18334  0.09698  0.21101  1.0000
  H   H20       1.0  0.14057  0.12688  0.24056  1.0000
  H   H21       1.0  0.12150  0.10826  0.23910  1.0000
  C   C27       1.0  0.11954  0.07768  0.08963  1.0000
  H   H22       1.0  0.10200  0.19736  0.19909  1.0000
  C   C28       1.0  0.13065  0.20474  0.27551  1.0000
  H   H23       1.0  0.20797  0.12625  0.06087  1.0000
  C   C29       1.0  0.08711  0.14470  0.14446  1.0000
  C   C30       1.0  0.08304  0.16268  0.14136  1.0000
  C   C31       1.0  0.06733  0.17115  0.15003  1.0000
  C   C32       1.0  0.05585  0.16162  0.16199  1.0000
  C   C33       1.0  0.05970  0.14366  0.16464  1.0000
  C   C34       1.0  0.07525  0.13524  0.15577  1.0000
  H   H24       1.0  0.09204  0.17007  0.13251  1.0000
  H   H25       1.0  0.06423  0.18506  0.14779  1.0000
  H   H26       1.0  0.05070  0.13626  0.17355  1.0000
  H   H27       1.0  0.07834  0.12136  0.15814  1.0000
  C   C35       1.0  0.18620  0.10942  0.11523  1.0000
  C   C36       1.0  0.20035  0.09567  0.11524  1.0000
  C   C37       1.0  0.19862  0.07965  0.12605  1.0000
  C   C38       1.0  0.18281  0.07734  0.13704  1.0000
  C   C39       1.0  0.16869  0.09116  0.13717  1.0000
  C   C40       1.0  0.17034  0.10716  0.12619  1.0000
  H   H28       1.0  0.21264  0.09736  0.10683  1.0000
  H   H29       1.0  0.20960  0.06902  0.12592  1.0000
  H   H30       1.0  0.15648  0.08949  0.14562  1.0000
  H   H31       1.0  0.15933  0.11771  0.12624  1.0000
  C   C41       1.0  0.14976  0.20367  0.13727  1.0000
  C   C42       1.0  0.15718  0.21733  0.13716  1.0000
  C   C43       1.0  0.16449  0.21713  0.15100  1.0000
  C   C44       1.0  0.16380  0.20365  0.16548  1.0000
  C   C45       1.0  0.15592  0.19017  0.16588  1.0000
  C   C46       1.0  0.14931  0.18993  0.15160  1.0000
  C   C47       1.0  0.13872  0.18663  0.30140  1.0000
  C   C48       1.0  0.26191  0.21397  0.28395  1.0000
  H   H32       1.0  0.15534  0.17977  0.17696  1.0000
  H   H33       1.0  0.14361  0.17932  0.15180  1.0000
  C   C49       1.0  0.13233  0.15999  0.04143  1.0000
  C   C50       1.0  0.12989  0.16500  0.02429  1.0000
  C   C51       1.0  0.13031  0.15258  0.01492  1.0000
  C   C52       1.0  0.13340  0.13510  0.02265  1.0000
  C   C53       1.0  0.13594  0.13015  0.03970  1.0000
  C   C54       1.0  0.13505  0.14255  0.04916  1.0000
  H   H34       1.0  0.12774  0.17851  0.01822  1.0000
  H   H35       1.0  0.16679  0.16003  0.99739  1.0000
  C   C55       1.0  0.17568  0.14785  0.02113  1.0000
  C   C56       1.0  0.18653  0.11707  0.02484  1.0000
  C   C57       1.0  0.21160  0.99730  0.16940  1.0000
  N   N2        1.0  0.19363  0.99572  0.17814  1.0000
  H   H36       1.0  0.12576  0.07012  0.13792  1.0000
  H   H37       1.0  0.09152  0.08838  0.12828  1.0000
  N   N3        1.0  0.09923  0.18781  0.17751  1.0000
  C   C58       1.0  0.08113  0.18673  0.18610  1.0000
  C   C59       1.0  0.09974  0.19524  0.15879  1.0000
  C   C60       1.0  0.11012  0.17037  0.18077  1.0000
  C   C61       1.0  0.11588  0.15977  0.16822  1.0000
  C   C62       1.0  0.11403  0.16291  0.19737  1.0000
  C   C63       1.0  0.12527  0.14294  0.17206  1.0000
  C   C64       1.0  0.12337  0.14612  0.20107  1.0000
  C   C65       1.0  0.12892  0.13608  0.18850  1.0000
  H   H38       1.0  0.07973  0.18186  0.20032  1.0000
  H   H39       1.0  0.07227  0.19950  0.18407  1.0000
  H   H40       1.0  0.07633  0.17778  0.18102  1.0000
  H   H41       1.0  0.09360  0.18820  0.15286  1.0000
  H   H42       1.0  0.09252  0.20880  0.15655  1.0000
  H   H43       1.0  0.11321  0.19530  0.15142  1.0000
  H   H44       1.0  0.11307  0.16407  0.15540  1.0000
  H   H45       1.0  0.10955  0.16981  0.20785  1.0000
  H   H46       1.0  0.12916  0.13498  0.16238  1.0000
  H   H47       1.0  0.12583  0.14078  0.21398  1.0000
  H   H48       1.0  0.13565  0.12284  0.19168  1.0000
  N   N4        1.0  0.18502  0.13603  0.16919  1.0000
  C   C66       1.0  0.18040  0.12167  0.16441  1.0000
  C   C67       1.0  0.20000  0.12872  0.17773  1.0000
  C   C68       1.0  0.17014  0.14309  0.18188  1.0000
  C   C69       1.0  0.18917  0.15007  0.15430  1.0000
  C   C70       1.0  0.18826  0.15002  0.13714  1.0000
  C   C71       1.0  0.19364  0.16476  0.15688  1.0000
  C   C72       1.0  0.19111  0.16405  0.12361  1.0000
  C   C73       1.0  0.19655  0.17868  0.14324  1.0000
  C   C74       1.0  0.19507  0.17842  0.12668  1.0000
  H   H49       1.0  0.19117  0.11550  0.15506  1.0000
  H   H50       1.0  0.17744  0.11131  0.17591  1.0000
  H   H51       1.0  0.16869  0.12616  0.15863  1.0000
  H   H52       1.0  0.21166  0.12375  0.16847  1.0000
  H   H53       1.0  0.19733  0.11799  0.18891  1.0000
  H   H54       1.0  0.20329  0.13833  0.18319  1.0000
  H   H55       1.0  0.17344  0.15208  0.18812  1.0000
  H   H56       1.0  0.15911  0.15018  0.17558  1.0000
  H   H57       1.0  0.16556  0.13284  0.19264  1.0000
  H   H58       1.0  0.18509  0.13942  0.13383  1.0000
  H   H59       1.0  0.19425  0.16597  0.16960  1.0000
  H   H60       1.0  0.18997  0.16386  0.11070  1.0000
  H   H61       1.0  0.19926  0.19003  0.14572  1.0000
  H   H62       1.0  0.19674  0.18949  0.11628  1.0000
  H   H63       1.0  0.19212  0.10478  0.03192  1.0000
  H   H64       1.0  0.17884  0.11830  0.07541  1.0000
  H   H65       1.0  0.11465  0.06306  0.12573  1.0000
  C   C75       1.0  0.17946  0.14799  0.05491  1.0000
  C   C76       1.0  0.11770  0.08043  0.07247  1.0000
  H   H66       1.0  0.14778  0.17715  0.29395  1.0000
  C   C77       1.0  0.17784  0.11815  0.06209  1.0000
  C   C78       1.0  0.08527  0.15870  0.04987  1.0000
  H   H67       1.0  0.13279  0.09790  0.12978  1.0000
  C   C79       1.0  0.11013  0.10832  0.08878  1.0000
  H   H68       1.0  0.20111  0.21202  0.30661  1.0000
  H   H69       1.0  0.16529  0.15224  0.05579  1.0000
  C   C80       1.0  0.09280  0.16167  0.28884  1.0000
  H   H70       1.0  0.09812  0.21353  0.18080  1.0000
  C   C81       1.0  0.23671  0.20828  0.24664  1.0000
  C   C82       1.0  0.10485  0.20000  0.18469  1.0000
  H   H71       1.0  0.11897  0.19961  0.18011  1.0000
  H   H72       1.0  0.12078  0.06967  0.06600  1.0000
  H   H73       1.0  0.21163  0.13648  0.03829  1.0000
  H   H74       1.0  0.13454  0.17992  0.31496  1.0000
  C   C83       1.0  0.18168  0.01075  0.17030  1.0000
  H   H75       1.0  0.12684  0.11303  0.11157  1.0000
  H   H76       1.0  0.16392  0.12022  0.06196  1.0000
  C   C84       1.0  0.12414  0.07116  0.12451  1.0000
  H   H77       1.0  0.18657  0.19195  0.30000  1.0000
  C   C85       1.0  0.18265  0.13224  0.03166  1.0000
  C   C86       1.0  0.19866  0.21400  0.29377  1.0000
  H   H78       1.0  0.00801  0.09129  0.17601  1.0000
  H   H79       1.0  0.10284  0.09539  0.14058  1.0000
  C   C87       1.0  0.08847  0.09163  0.20812  1.0000
  H   H80       1.0  0.27639  0.18386  0.29933  1.0000
  H   H81       1.0  0.00575  0.08268  0.19911  1.0000
  C   C88       1.0  0.20493  0.12683  0.04811  1.0000
  H   H82       1.0  0.11098  0.09912  0.05013  1.0000
  C   C89       1.0  0.11590  0.09162  0.09829  1.0000
  C   C90       1.0  0.10141  0.09595  0.12721  1.0000
  C   C91       1.0  0.11206  0.09699  0.06354  1.0000
  N   N5        1.0  0.11809  0.08933  0.11626  1.0000
  H   H83       1.0  0.08914  0.11739  0.02254  1.0000
  H   H84       1.0  0.14377  0.09468  0.10832  1.0000
  C   C92       1.0  0.24488  0.20988  0.25912  1.0000
  C   C93       1.0  0.08930  0.01573  0.17740  1.0000
  H   H85       1.0  0.06963  0.15445  0.99104  1.0000
  H   H86       1.0  0.18862  0.22110  0.24805  1.0000
  H   H87       1.0  0.13870  0.19546  0.26742  1.0000
  H   H88       1.0  0.10723  0.11959  0.09443  1.0000
  C   C94       1.0  0.13099  0.09911  0.11641  1.0000
  H   H89       1.0  0.21483  0.00902  0.17132  1.0000
  H   H90       1.0  0.14449  0.00300  0.16881  1.0000
  H   H91       1.0  0.21074  0.11405  0.04464  1.0000
  H   H92       1.0  0.10387  0.12376  0.06470  1.0000
  H   H93       1.0  0.05900  0.16726  0.00714  1.0000
  H   H94       1.0  0.07742  0.18464  0.27672  1.0000
  H   H95       1.0  0.09918  0.13471  0.00958  1.0000
  H   H96       1.0  0.09603  0.10966  0.12229  1.0000
  H   H97       1.0  0.09662  0.06501  0.23685  1.0000
  H   H98       1.0  0.18591  0.15843  0.04628  1.0000
  C   C95       1.0  0.09766  0.00103  0.18720  1.0000
  H   H99       1.0  0.24992  0.22144  0.25654  1.0000
  C   C96       1.0  0.10812  0.11087  0.07174  1.0000
  Fe  Fe16      1.0  0.99809  0.14661  0.22803  1.0000
  C   C97       1.0  0.19144  0.99667  0.19656  1.0000
  H   H100      1.0  0.22303  0.17103  0.26646  1.0000
  H   H101      1.0  0.09613  0.09638  0.18028  1.0000
  H   H102      1.0  0.26430  0.17081  0.29475  1.0000
  H   H103      1.0  0.11085  0.14093  0.30044  1.0000
  H   H104      1.0  0.18381  0.02307  0.17195  1.0000
  C   C98       1.0  0.09333  0.10172  0.19179  1.0000
  C   C99       1.0  0.09427  0.11877  0.19018  1.0000
  H   H105      1.0  0.09779  0.12659  0.17750  1.0000
  C   C100      1.0  0.08461  0.09834  0.22343  1.0000
  C   C101      1.0  0.05922  0.09366  0.24512  1.0000
  C   C102      1.0  0.09030  0.12584  0.20485  1.0000
  H   H106      1.0  0.09029  0.13932  0.20354  1.0000
  H   H107      1.0  0.12862  0.15922  0.30330  1.0000
  C   C103      1.0  0.08564  0.11581  0.22123  1.0000
  C   C104      1.0  0.07050  0.15727  0.00345  1.0000
  H   H108      1.0  0.09457  0.15745  0.02333  1.0000
  H   H109      1.0  0.08218  0.12213  0.23203  1.0000
  H   H110      1.0  0.08775  0.07865  0.20839  1.0000
  H   H111      1.0  0.23787  0.17285  0.28818  1.0000
  H   H112      1.0  0.09526  0.16519  0.05008  1.0000
  H   H113      1.0  0.05357  0.08653  0.25801  1.0000
  H   H114      1.0  0.08033  0.10472  0.25696  1.0000
  H   H115      1.0  0.05518  0.10761  0.24536  1.0000
  H   H116      1.0  0.05708  0.12112  0.02783  1.0000
  C   C105      1.0  0.08556  0.09155  0.25428  1.0000
  H   H117      1.0  0.05318  0.09147  0.23532  1.0000
  N   N6        1.0  0.07822  0.08831  0.24077  1.0000
  H   H118      1.0  0.17793  0.99624  0.20375  1.0000
  H   H119      1.0  0.18314  0.01193  0.15616  1.0000
  H   H120      1.0  0.08242  0.08276  0.26697  1.0000
  H   H121      1.0  0.07534  0.06562  0.23369  1.0000
  H   H122      1.0  0.07898  0.06201  0.25490  1.0000
  S   S32       1.0  0.28899  0.22996  0.31279  1.0000
  H   H123      1.0  0.09986  0.08974  0.25041  1.0000
  C   C106      1.0  0.08253  0.06943  0.24151  1.0000
  C   C107      1.0  0.18301  0.11740  0.00884  1.0000
  H   H124      1.0  0.09165  0.02825  0.17714  1.0000
  C   C108      1.0  0.07171  0.14600  0.03378  1.0000
  H   H125      1.0  0.06638  0.99803  0.16008  1.0000
  C   C109      1.0  0.05667  0.13361  0.01838  1.0000
  C   C110      1.0  0.08471  0.15429  0.03458  1.0000
  H   H126      1.0  0.25166  0.22582  0.28270  1.0000
  C   C111      1.0  0.07804  0.01433  0.16782  1.0000
  H   H127      1.0  0.00933  0.10393  0.19035  1.0000
  H   H128      1.0  0.32200  0.23158  0.29092  1.0000
  C   C112      1.0  0.07303  0.15486  0.06487  1.0000
  H   H129      1.0  0.27809  0.18233  0.27731  1.0000
  N   N7        1.0  0.07145  0.14155  0.01735  1.0000
  N   N8        1.0  0.12377  0.19550  0.29309  1.0000
  H   H130      1.0  0.08754  0.12502  0.00020  1.0000
  C   C113      1.0  0.08749  0.12915  0.01222  1.0000
  C   C114      1.0  0.24220  0.19810  0.30485  1.0000
  C   C115      1.0  0.11285  0.20832  0.30338  1.0000
  H   H131      1.0  0.08208  0.16309  0.00039  1.0000
  C   C116      1.0  0.24576  0.19717  0.27459  1.0000
  H   H132      1.0  0.15745  0.22805  0.12622  1.0000
  H   H133      1.0  0.24850  0.19853  0.31529  1.0000
  H   H134      1.0  0.05683  0.13069  0.00567  1.0000
  C   C117      1.0  0.23790  0.18295  0.27673  1.0000
  H   H135      1.0  0.10896  0.15319  0.25093  1.0000
  H   H136      1.0  0.22211  0.19339  0.23986  1.0000
  C   C118      1.0  0.19988  0.23028  0.26455  1.0000
  C   C119      1.0  0.11331  0.18366  0.29182  1.0000
  N   N9        1.0  0.25456  0.19821  0.28800  1.0000
  H   H137      1.0  0.07349  0.15838  0.07669  1.0000
  H   H138      1.0  0.08513  0.15331  0.28734  1.0000
  C   C120      1.0  0.11747  0.16550  0.29770  1.0000
  H   H139      1.0  0.04410  0.14239  0.02189  1.0000
  C   C121      1.0  0.07517  0.99817  0.16789  1.0000
  H   H140      1.0  0.17208  0.16005  0.02519  1.0000
  H   H141      1.0  0.14657  0.19581  0.30177  1.0000
  C   C122      1.0  0.05946  0.14215  0.04937  1.0000
  H   H142      1.0  0.07160  0.02588  0.16024  1.0000
  C   C123      1.0  0.00243  0.09433  0.18908  1.0000
  H   H143      1.0  0.23637  0.18649  0.30934  1.0000
  H   H144      1.0  0.13905  0.21343  0.27580  1.0000
  C   C124      1.0  0.22954  0.18164  0.26428  1.0000
  H   H145      1.0  0.21382  0.99847  0.15516  1.0000
  H   H146      1.0  0.04915  0.13580  0.05011  1.0000
  S   S33       1.0  0.14148  0.99833  0.20606  1.0000
  C   C125      1.0  0.26894  0.18314  0.28993  1.0000
  C   C126      1.0  0.14298  0.99005  0.17482  1.0000
  C   C127      1.0  0.20384  0.22782  0.28098  1.0000
  H   H147      1.0  0.10642  0.00221  0.19465  1.0000
  H   H148      1.0  0.19402  0.00897  0.19782  1.0000
  H   H149      1.0  0.10675  0.20185  0.31644  1.0000
  H   H150      1.0  0.17056  0.22758  0.15056  1.0000
  H   H151      1.0  0.26820  0.21450  0.29438  1.0000
  C   C128      1.0  0.17253  0.14806  0.00500  1.0000
  H   H152      1.0  0.27189  0.21462  0.27178  1.0000
  H   H153      1.0  0.99525  0.06697  0.18605  1.0000
  H   H154      1.0  0.12035  0.21272  0.26858  1.0000
  H   H155      1.0  0.12051  0.21698  0.30519  1.0000
  H   H156      1.0  0.12848  0.15652  0.00171  1.0000
  C   C129      1.0  0.17597  0.13286  0.99897  1.0000
  H   H157      1.0  0.09474  0.20378  0.27910  1.0000
  H   H158      1.0  0.18547  0.10559  0.00415  1.0000
  H   H159      1.0  0.10234  0.21681  0.29703  1.0000
  H   H160      1.0  0.17287  0.13302  0.98677  1.0000
  C   C130      1.0  0.28586  0.22575  0.52146  1.0000
  C   C131      1.0  0.31058  0.21770  0.39943  1.0000
  H   H161      1.0  0.34050  0.19993  0.43959  1.0000
  H   H162      1.0  0.33433  0.22437  0.37175  1.0000
  C   C132      1.0  0.35325  0.21339  0.41531  1.0000
  H   H163      1.0  0.36314  0.20223  0.41283  1.0000
  C   C133      1.0  0.26063  0.22085  0.39075  1.0000
  C   C134      1.0  0.27588  0.22391  0.39303  1.0000
  H   H164      1.0  0.38898  0.22333  0.41123  1.0000
  H   H165      1.0  0.41869  0.20820  0.40296  1.0000
  C   C135      1.0  0.32724  0.22622  0.43340  1.0000
  C   C136      1.0  0.34046  0.21207  0.43043  1.0000
  S   S34       1.0  0.23851  0.23192  0.32659  1.0000
  C   C137      1.0  0.27406  0.21793  0.36142  1.0000
  H   H166      1.0  0.30168  0.22319  0.41039  1.0000
  C   C138      1.0  0.29094  0.22353  0.37967  1.0000
  C   C139      1.0  0.35291  0.22889  0.40316  1.0000
  C   C140      1.0  0.25962  0.21815  0.37489  1.0000
  H   H167      1.0  0.27870  0.22445  0.57819  1.0000
  C   C141      1.0  0.41685  0.21497  0.38969  1.0000
  H   H168      1.0  0.28714  0.23477  0.65048  1.0000
  C   C142      1.0  0.32239  0.22239  0.36892  1.0000
  H   H169      1.0  0.32451  0.20859  0.36828  1.0000
  H   H170      1.0  0.32081  0.22685  0.54863  1.0000
  H   H171      1.0  0.27319  0.21596  0.34904  1.0000
  H   H172      1.0  0.29137  0.21586  0.51383  1.0000
  C   C143      1.0  0.38640  0.23360  0.64252  1.0000
  S   S35       1.0  0.31032  0.22367  0.45140  1.0000
  H   H173      1.0  0.24928  0.22122  0.40115  1.0000
  C   C144      1.0  0.28957  0.22044  0.36372  1.0000
  H   H174      1.0  0.32367  0.21807  0.40069  1.0000
  H   H175      1.0  0.30989  0.20389  0.40167  1.0000
  H   H176      1.0  0.42691  0.20814  0.38031  1.0000
  C   C145      1.0  0.29322  0.22621  0.53501  1.0000
  H   H177      1.0  0.24750  0.21656  0.37299  1.0000
  H   H178      1.0  0.30424  0.21625  0.53765  1.0000
  N   N10       1.0  0.30684  0.22723  0.38223  1.0000
  H   H179      1.0  0.30019  0.22010  0.35271  1.0000
  S   S36       1.0  0.36801  0.22943  0.38363  1.0000
  H   H180      1.0  0.29881  0.21234  0.56856  1.0000
  H   H181      1.0  0.27560  0.22687  0.40531  1.0000
  H   H182      1.0  0.40431  0.21334  0.38794  1.0000
  H   H183      1.0  0.29841  0.22473  0.58394  1.0000
  N   N11       1.0  0.41769  0.23344  0.38655  1.0000
  C   C146      1.0  0.29264  0.22464  0.57295  1.0000
  H   H184      1.0  0.43832  0.23006  0.39985  1.0000
  H   H185      1.0  0.32153  0.23044  0.35582  1.0000
  H   H186      1.0  0.40024  0.22916  0.63917  1.0000
  H   H187      1.0  0.44539  0.22604  0.37818  1.0000
  H   H188      1.0  0.42352  0.23575  0.35877  1.0000
  C   C147      1.0  0.43566  0.23429  0.38653  1.0000
  C   C148      1.0  0.39130  0.23573  0.41119  1.0000
  S   S37       1.0  0.15082  0.12516  0.96066  1.0000
  C   C149      1.0  0.09779  0.09148  0.83116  1.0000
  H   H189      1.0  0.21744  0.14716  0.82754  1.0000
  Fe  Fe17      1.0  0.02778  0.11648  0.89121  1.0000
  S   S38       1.0  0.01792  0.12369  0.86663  1.0000
  S   S39       1.0  0.03351  0.08977  0.90656  1.0000
  Fe  Fe18      1.0  0.03076  0.15266  0.89046  1.0000
  S   S40       1.0  0.02022  0.16344  0.86621  1.0000
  S   S41       1.0  0.04315  0.16855  0.90065  1.0000
  C   C150      1.0  0.23661  0.22170  0.69094  1.0000
  Fe  Fe19      1.0  0.03772  0.14042  0.85697  1.0000
  S   S42       1.0  0.05615  0.14305  0.83128  1.0000
  S   S43       1.0  0.00986  0.13764  0.90353  1.0000
  S   S44       1.0  0.04936  0.13065  0.88035  1.0000
  Fe  Fe20      1.0  0.11846  0.02584  0.91407  1.0000
  S   S45       1.0  0.14538  0.01105  0.90726  1.0000
  S   S46       1.0  0.10753  0.03494  0.93907  1.0000
  Fe  Fe21      1.0  0.11159  0.02977  0.87834  1.0000
  S   S47       1.0  0.13814  0.01596  0.86796  1.0000
  S   S48       1.0  0.09133  0.04206  0.86256  1.0000
  H   H190      1.0  0.07829  0.19944  0.87294  1.0000
  Fe  Fe22      1.0  0.14691  0.03091  0.88260  1.0000
  S   S49       1.0  0.16776  0.04627  0.87453  1.0000
  S   S50       1.0  0.10676  0.01033  0.90291  1.0000
  S   S51       1.0  0.12072  0.04653  0.89031  1.0000
  Fe  Fe23      1.0  0.10182  0.13032  0.96391  1.0000
  S   S52       1.0  0.12043  0.13033  0.93846  1.0000
  S   S53       1.0  0.07353  0.13093  0.96757  1.0000
  Fe  Fe24      1.0  0.13262  0.14692  0.94773  1.0000
  S   S54       1.0  0.14299  0.16932  0.92980  1.0000
  Fe  Fe25      1.0  0.13703  0.10861  0.95326  1.0000
  H   H191      1.0  0.19353  0.11618  0.90691  1.0000
  H   H192      1.0  0.19961  0.10659  0.83434  1.0000
  H   H193      1.0  0.09702  0.20034  0.91806  1.0000
  H   H194      1.0  0.24048  0.15853  0.79277  1.0000
  H   H195      1.0  0.12644  0.07600  0.84627  1.0000
  C   C151      1.0  0.04694  0.02864  0.89530  1.0000
  C   C152      1.0  0.19975  0.09749  0.84657  1.0000
  S   S55       1.0  0.31095  0.21450  0.71504  1.0000
  S   S56       1.0  0.15217  0.08705  0.94004  1.0000
  H   H196      1.0  0.99609  0.15008  0.84422  1.0000
  C   C153      1.0  0.21298  0.18111  0.82200  1.0000
  Fe  Fe26      1.0  0.13973  0.16937  0.82596  1.0000
  S   S57       1.0  0.16239  0.18151  0.82307  1.0000
  S   S58       1.0  0.11241  0.18143  0.83630  1.0000
  Fe  Fe27      1.0  0.16178  0.13591  0.81785  1.0000
  S   S59       1.0  0.18651  0.14463  0.81436  1.0000
  S   S60       1.0  0.16056  0.11042  0.81327  1.0000
  Fe  Fe28      1.0  0.17342  0.15581  0.83788  1.0000
  S   S61       1.0  0.18847  0.15441  0.85783  1.0000
  Fe  Fe29      1.0  0.17372  0.16959  0.79964  1.0000
  S   S62       1.0  0.18957  0.18063  0.77393  1.0000
  S   S63       1.0  0.14990  0.14469  0.84284  1.0000
  S   S64       1.0  0.14988  0.15985  0.80113  1.0000
  C   C154      1.0  0.04742  0.02607  0.91272  1.0000
  H   H197      1.0  0.18719  0.08994  0.92233  1.0000
  C   C155      1.0  0.19651  0.20724  0.78434  1.0000
  C   C156      1.0  0.20111  0.19663  0.77225  1.0000
  C   C157      1.0  0.21546  0.19850  0.75866  1.0000
  C   C158      1.0  0.22530  0.21078  0.75724  1.0000
  C   C159      1.0  0.20885  0.21714  0.71874  1.0000
  H   H198      1.0  0.18540  0.20596  0.79478  1.0000
  H   H199      1.0  0.21921  0.19013  0.74943  1.0000
  H   H200      1.0  0.23654  0.21187  0.74692  1.0000
  C   C160      1.0  0.15571  0.16431  0.91014  1.0000
  C   C161      1.0  0.15016  0.15534  0.90074  1.0000
  C   C162      1.0  0.15983  0.15280  0.88433  1.0000
  C   C163      1.0  0.17546  0.15849  0.87770  1.0000
  C   C164      1.0  0.18118  0.16701  0.88733  1.0000
  C   C165      1.0  0.17112  0.17028  0.90330  1.0000
  H   H201      1.0  0.13815  0.15087  0.90585  1.0000
  H   H202      1.0  0.15533  0.14623  0.87696  1.0000
  H   H203      1.0  0.19324  0.17142  0.88230  1.0000
  H   H204      1.0  0.17540  0.17730  0.91047  1.0000
  C   C166      1.0  0.12059  0.04835  0.94044  1.0000
  C   C167      1.0  0.13548  0.05039  0.92774  1.0000
  C   C168      1.0  0.14528  0.06204  0.92793  1.0000
  C   C169      1.0  0.14019  0.07183  0.94078  1.0000
  C   C170      1.0  0.12543  0.06967  0.95368  1.0000
  C   C171      1.0  0.11564  0.05789  0.95353  1.0000
  H   H205      1.0  0.13950  0.04308  0.91762  1.0000
  H   H206      1.0  0.15667  0.06356  0.91793  1.0000
  H   H207      1.0  0.12154  0.07702  0.96377  1.0000
  H   H208      1.0  0.10415  0.05631  0.96340  1.0000
  C   C172      1.0  0.16327  0.06429  0.85824  1.0000
  C   C173      1.0  0.16318  0.06216  0.84181  1.0000
  C   C174      1.0  0.16197  0.07649  0.82815  1.0000
  C   C175      1.0  0.16083  0.09295  0.83091  1.0000
  C   C176      1.0  0.16002  0.09518  0.84756  1.0000
  C   C177      1.0  0.16123  0.08084  0.86122  1.0000
  H   H209      1.0  0.16477  0.04938  0.83946  1.0000
  H   H210      1.0  0.16245  0.07475  0.81530  1.0000
  H   H211      1.0  0.15915  0.10781  0.84977  1.0000
  H   H212      1.0  0.16127  0.08244  0.87396  1.0000
  C   C178      1.0  0.05163  0.15772  0.91913  1.0000
  C   C179      1.0  0.06710  0.16082  0.92093  1.0000
  C   C180      1.0  0.07400  0.15247  0.93567  1.0000
  C   C181      1.0  0.06526  0.14120  0.94884  1.0000
  C   C182      1.0  0.04982  0.13804  0.94704  1.0000
  C   C183      1.0  0.04313  0.14609  0.93207  1.0000
  H   H213      1.0  0.07385  0.16955  0.91082  1.0000
  H   H214      1.0  0.08588  0.15503  0.93698  1.0000
  H   H215      1.0  0.04305  0.12928  0.95717  1.0000
  H   H216      1.0  0.03120  0.14362  0.93073  1.0000
  C   C184      1.0  0.04970  0.07694  0.89404  1.0000
  C   C185      1.0  0.06157  0.06400  0.90204  1.0000
  C   C186      1.0  0.07456  0.05355  0.89225  1.0000
  C   C187      1.0  0.07541  0.05566  0.87452  1.0000
  C   C188      1.0  0.06357  0.06866  0.86644  1.0000
  C   C189      1.0  0.05083  0.07947  0.87617  1.0000
  H   H217      1.0  0.06073  0.06201  0.91585  1.0000
  H   H218      1.0  0.08353  0.04349  0.89864  1.0000
  H   H219      1.0  0.06431  0.07042  0.85268  1.0000
  H   H220      1.0  0.04167  0.08947  0.86994  1.0000
  C   C190      1.0  0.07168  0.15415  0.83215  1.0000
  C   C191      1.0  0.08732  0.15347  0.82003  1.0000
  C   C192      1.0  0.10008  0.16152  0.82137  1.0000
  C   C193      1.0  0.09690  0.17091  0.83439  1.0000
  C   C194      1.0  0.08109  0.17194  0.84619  1.0000
  C   C195      1.0  0.06868  0.16331  0.84529  1.0000
  H   H221      1.0  0.08967  0.14662  0.80966  1.0000
  H   H222      1.0  0.11216  0.16085  0.81206  1.0000
  H   H223      1.0  0.07844  0.17925  0.85621  1.0000
  H   H224      1.0  0.05667  0.16403  0.85468  1.0000
  H   H225      1.0  0.04313  0.20963  0.91933  1.0000
  C   C196      1.0  0.36212  0.21056  0.71036  1.0000
  C   C197      1.0  0.34595  0.20675  0.71189  1.0000
  C   C198      1.0  0.33098  0.21952  0.71367  1.0000
  H   H226      1.0  0.26156  0.21235  0.79355  1.0000
  H   H227      1.0  0.20129  0.17613  0.82271  1.0000
  H   H228      1.0  0.37361  0.20058  0.70908  1.0000
  H   H229      1.0  0.34503  0.19385  0.71175  1.0000
  H   H230      1.0  0.20726  0.07542  0.83463  1.0000
  C   C199      1.0  0.27324  0.19114  0.81138  1.0000
  H   H231      1.0  0.21724  0.16234  0.79808  1.0000
  S   S65       1.0  0.11240  0.14907  0.97208  1.0000
  H   H232      1.0  0.24048  0.14249  0.82291  1.0000
  H   H233      1.0  0.11935  0.08683  0.86390  1.0000
  H   H234      1.0  0.23661  0.20031  0.79618  1.0000
  C   C200      1.0  0.22869  0.16740  0.79805  1.0000
  C   C201      1.0  0.00240  0.15556  0.83087  1.0000
  N   N12       1.0  0.10864  0.19455  0.88386  1.0000
  C   C202      1.0  0.11160  0.20643  0.86678  1.0000
  C   C203      1.0  0.12214  0.19473  0.89298  1.0000
  C   C204      1.0  0.11112  0.17684  0.88107  1.0000
  C   C205      1.0  0.09083  0.19961  0.89356  1.0000
  C   C206      1.0  0.08706  0.20179  0.91099  1.0000
  C   C207      1.0  0.07652  0.20147  0.88590  1.0000
  H   H235      1.0  0.10917  0.21999  0.86831  1.0000
  H   H236      1.0  0.12089  0.20764  0.89576  1.0000
  C   C208      1.0  0.16924  0.10538  0.89699  1.0000
  H   H237      1.0  0.19837  0.21438  0.72949  1.0000
  H   H238      1.0  0.12504  0.20310  0.85938  1.0000
  H   H239      1.0  0.34489  0.22191  0.75123  1.0000
  Fe  Fe30      1.0  0.13402  0.99743  0.89355  1.0000
  H   H240      1.0  0.13539  0.19127  0.88522  1.0000
  H   H241      1.0  0.12158  0.18512  0.90539  1.0000
  H   H242      1.0  0.10195  0.17589  0.87355  1.0000
  H   H243      1.0  0.12433  0.17249  0.87365  1.0000
  H   H244      1.0  0.10908  0.16750  0.89362  1.0000
  H   H245      1.0  0.46686  0.20036  0.71807  1.0000
  H   H246      1.0  0.21519  0.19066  0.71608  1.0000
  H   H247      1.0  0.09942  0.00209  0.87265  1.0000
  C   C209      1.0  0.19403  0.09166  0.87841  1.0000
  S   S66       1.0  0.38410  0.23163  0.70787  1.0000
  N   N13       1.0  0.08834  0.09733  0.91774  1.0000
  C   C210      1.0  0.09493  0.07975  0.91400  1.0000
  C   C211      1.0  0.09410  0.09812  0.93326  1.0000
  C   C212      1.0  0.06917  0.10004  0.92185  1.0000
  C   C213      1.0  0.09505  0.11042  0.90307  1.0000
  C   C214      1.0  0.11267  0.10768  0.89443  1.0000
  C   C215      1.0  0.08465  0.12667  0.89766  1.0000
  C   C216      1.0  0.11903  0.11994  0.88043  1.0000
  C   C217      1.0  0.09110  0.13884  0.88372  1.0000
  C   C218      1.0  0.10818  0.13541  0.87494  1.0000
  H   H248      1.0  0.10899  0.07527  0.91351  1.0000
  H   H249      1.0  0.08898  0.06987  0.92432  1.0000
  H   H250      1.0  0.09216  0.07902  0.90157  1.0000
  H   H251      1.0  0.08960  0.08836  0.94470  1.0000
  H   H252      1.0  0.08905  0.11099  0.93679  1.0000
  H   H253      1.0  0.10841  0.09577  0.93110  1.0000
  H   H254      1.0  0.06402  0.10109  0.91016  1.0000
  H   H255      1.0  0.06442  0.08922  0.93177  1.0000
  H   H256      1.0  0.06304  0.11170  0.92742  1.0000
  H   H257      1.0  0.12174  0.09615  0.89853  1.0000
  H   H258      1.0  0.07140  0.13030  0.90404  1.0000
  H   H259      1.0  0.13245  0.11745  0.87387  1.0000
  H   H260      1.0  0.08265  0.15101  0.87979  1.0000
  H   H261      1.0  0.11301  0.14486  0.86399  1.0000
  H   H262      1.0  0.05848  0.00963  0.93384  1.0000
  C   C219      1.0  0.09043  0.99734  0.86764  1.0000
  S   S67       1.0  0.11737  0.10694  0.97797  1.0000
  H   H263      1.0  0.07880  0.07806  0.79810  1.0000
  C   C220      1.0  0.07002  0.20557  0.92005  1.0000
  C   C221      1.0  0.26044  0.19996  0.80211  1.0000
  H   H264      1.0  0.09839  0.98838  0.85910  1.0000
  H   H265      1.0  0.16608  0.11555  0.88572  1.0000
  C   C222      1.0  0.08701  0.10367  0.82071  1.0000
  H   H266      1.0  0.22837  0.15285  0.84085  1.0000
  C   C223      1.0  0.24613  0.19290  0.80368  1.0000
  H   H267      1.0  0.10885  0.12139  0.82731  1.0000
  H   H268      1.0  0.04007  0.03573  0.92017  1.0000
  N   N14       1.0  0.18800  0.09813  0.89477  1.0000
  C   C224      1.0  0.22899  0.15220  0.82722  1.0000
  H   H269      1.0  0.22800  0.17980  0.78859  1.0000
  C   C225      1.0  0.24420  0.17666  0.81453  1.0000
  H   H270      1.0  0.10679  0.07269  0.86182  1.0000
  H   H271      1.0  0.09458  0.10906  0.86583  1.0000
  H   H272      1.0  0.12234  0.11286  0.84280  1.0000
  C   C226      1.0  0.11468  0.08245  0.85437  1.0000
  C   C227      1.0  0.09003  0.10553  0.85573  1.0000
  C   C228      1.0  0.10191  0.07427  0.82861  1.0000
  H   H273      1.0  0.08065  0.09700  0.86240  1.0000
  C   C229      1.0  0.27171  0.17525  0.82232  1.0000
  H   H274      1.0  0.08280  0.11771  0.84907  1.0000
  N   N15       1.0  0.10455  0.09694  0.84368  1.0000
  C   C230      1.0  0.11594  0.10924  0.83412  1.0000
  H   H275      1.0  0.12628  0.10360  0.82408  1.0000
  H   H276      1.0  0.11035  0.06412  0.83560  1.0000
  H   H277      1.0  0.21149  0.19411  0.81356  1.0000
  N   N16       1.0  0.22905  0.16936  0.81554  1.0000
  H   H278      1.0  0.08387  0.11707  0.82148  1.0000
  H   H279      1.0  0.21264  0.18272  0.83524  1.0000
  C   C231      1.0  0.19708  0.11187  0.89433  1.0000
  C   C232      1.0  0.06763  0.00139  0.89281  1.0000
  H   H280      1.0  0.21132  0.10735  0.89132  1.0000
  C   C233      1.0  0.05781  0.01137  0.92038  1.0000
  H   H281      1.0  0.31467  0.23575  0.76136  1.0000
  H   H282      1.0  0.19737  0.06391  0.88965  1.0000
  C   C234      1.0  0.08021  0.09887  0.80898  1.0000
  C   C235      1.0  0.09495  0.06954  0.81694  1.0000
  H   H283      1.0  0.25706  0.15572  0.83263  1.0000
  H   H284      1.0  0.09804  0.05623  0.81556  1.0000
  H   H285      1.0  0.16182  0.09521  0.89856  1.0000
  C   C236      1.0  0.19836  0.07381  0.87804  1.0000
  C   C237      1.0  0.20407  0.07992  0.84669  1.0000
  H   H286      1.0  0.18289  0.07473  0.91289  1.0000
  H   H287      1.0  0.06741  0.20687  0.93343  1.0000
  H   H288      1.0  0.07196  0.10851  0.80123  1.0000
  H   H289      1.0  0.38526  0.22601  0.67001  1.0000
  H   H290      1.0  0.20475  0.07799  0.90907  1.0000
  H   H291      1.0  0.19371  0.12368  0.88463  1.0000
  C   C238      1.0  0.08408  0.08179  0.80718  1.0000
  C   C239      1.0  0.25742  0.16804  0.82395  1.0000
  H   H292      1.0  0.19067  0.11707  0.86134  1.0000
  H   H293      1.0  0.20587  0.05446  0.86244  1.0000
  H   H294      1.0  0.10323  0.20588  0.85822  1.0000
  C   C240      1.0  0.36350  0.22728  0.71019  1.0000
  H   H295      1.0  0.28436  0.19665  0.81007  1.0000
  H   H296      1.0  0.35425  0.23606  0.67774  1.0000
  C   C241      1.0  0.05957  0.20526  0.89508  1.0000
  H   H297      1.0  0.28171  0.16846  0.82954  1.0000
  C   C242      1.0  0.19466  0.10333  0.86216  1.0000
  H   H298      1.0  0.23984  0.19472  0.69150  1.0000
  H   H299      1.0  0.16427  0.11120  0.90872  1.0000
  H   H300      1.0  0.03260  0.13020  0.82102  1.0000
  H   H301      1.0  0.04888  0.20594  0.88916  1.0000
  H   H302      1.0  0.08388  0.00861  0.85918  1.0000
  C   C243      1.0  0.20337  0.06813  0.86237  1.0000
  C   C244      1.0  0.05631  0.20723  0.91214  1.0000
  C   C245      1.0  0.19095  0.08456  0.91033  1.0000
  C   C246      1.0  0.21846  0.20328  0.71111  1.0000
  H   H303      1.0  0.99344  0.08920  0.83464  1.0000
  C   C247      1.0  0.03003  0.10408  0.82904  1.0000
  H   H304      1.0  0.04339  0.09954  0.83032  1.0000
  H   H305      1.0  0.05650  0.01942  0.87185  1.0000
  C   C248      1.0  0.22077  0.22131  0.76941  1.0000
  C   C249      1.0  0.23235  0.20553  0.69729  1.0000
  N   N17       1.0  0.07816  0.98887  0.88201  1.0000
  H   H306      1.0  0.02307  0.15260  0.80033  1.0000
  Fe  Fe31      1.0  0.12956  0.12561  0.98431  1.0000
  C   C250      1.0  0.05691  0.01656  0.88544  1.0000
  H   H307      1.0  0.03928  0.04039  0.88925  1.0000
  C   C251      1.0  0.02369  0.12166  0.82381  1.0000
  C   C252      1.0  0.06773  0.99912  0.91068  1.0000
  H   H308      1.0  0.20274  0.22771  0.79233  1.0000
  H   H309      1.0  0.05993  0.99293  0.86553  1.0000
  H   H310      1.0  0.32727  0.23217  0.67858  1.0000
  H   H311      1.0  0.00407  0.16802  0.79650  1.0000
  C   C253      1.0  0.20630  0.21957  0.78289  1.0000
  Fe  Fe32      1.0  0.00117  0.14599  0.87805  1.0000
  H   H312      1.0  0.07572  0.98822  0.91739  1.0000
  N   N18       1.0  0.99960  0.14699  0.81810  1.0000
  H   H313      1.0  0.01631  0.15415  0.83079  1.0000
  H   H314      1.0  0.32458  0.22878  0.65866  1.0000
  C   C254      1.0  0.45201  0.22206  0.70366  1.0000
  C   C255      1.0  0.37799  0.23184  0.65983  1.0000
  H   H315      1.0  0.02402  0.07880  0.83726  1.0000
  C   C256      1.0  0.47820  0.22285  0.71199  1.0000
  C   C257      1.0  0.34190  0.23497  0.75336  1.0000
  C   C258      1.0  0.46583  0.21382  0.71179  1.0000
  C   C259      1.0  0.33227  0.23618  0.71381  1.0000
  H   H316      1.0  0.44234  0.21512  0.70366  1.0000
  C   C260      1.0  0.01914  0.09241  0.83300  1.0000
  S   S68       1.0  0.23326  0.23619  0.76877  1.0000
  C   C261      1.0  0.00910  0.15401  0.80069  1.0000
  H   H317      1.0  0.48846  0.21571  0.71862  1.0000
  C   C262      1.0  0.00612  0.12819  0.82273  1.0000
  H   H318      1.0  0.24741  0.22349  0.68017  1.0000
  H   H319      1.0  0.00801  0.14731  0.79083  1.0000
  H   H320      1.0  0.99693  0.16963  0.82842  1.0000
  C   C263      1.0  0.00193  0.09829  0.83155  1.0000
  Fe  Fe33      1.0  0.28817  0.23544  0.72131  1.0000
  S   S69       1.0  0.26127  0.23417  0.72029  1.0000
  C   C264      1.0  0.99545  0.11589  0.82644  1.0000
  C   C265      1.0  0.21302  0.23377  0.71275  1.0000
  H   H321      1.0  0.99367  0.09653  0.91149  1.0000
  H   H322      1.0  0.19465  0.23458  0.74630  1.0000
  C   C266      1.0  0.22708  0.23563  0.69847  1.0000
  C   C267      1.0  0.33115  0.25822  0.31187  1.0000
  C   C268      1.0  0.28957  0.45144  0.29662  1.0000
  C   C269      1.0  0.31989  0.32022  0.28399  1.0000
  H   H323      1.0  0.32622  0.29418  0.28147  1.0000
  H   H324      1.0  0.30976  0.27046  0.25788  1.0000
  N   N19       1.0  0.29711  0.29104  0.27180  1.0000
  C   C270      1.0  0.28344  0.29525  0.26149  1.0000
  C   C271      1.0  0.27705  0.46702  0.29475  1.0000
  C   C272      1.0  0.28844  0.32218  0.27536  1.0000
  S   S70       1.0  0.25128  0.26066  0.29318  1.0000
  H   H325      1.0  0.31028  0.34671  0.28640  1.0000
  S   S71       1.0  0.24567  0.30714  0.29888  1.0000
  C   C273      1.0  0.24524  0.33724  0.30778  1.0000
  C   C274      1.0  0.30770  0.33555  0.28338  1.0000
  H   H326      1.0  0.30102  0.27649  0.29677  1.0000
  H   H327      1.0  0.31892  0.28951  0.25044  1.0000
  H   H328      1.0  0.28180  0.28367  0.25778  1.0000
  H   H329      1.0  0.27048  0.30021  0.26893  1.0000
  C   C275      1.0  0.30645  0.46675  0.30634  1.0000
  C   C276      1.0  0.31651  0.30586  0.28013  1.0000
  C   C277      1.0  0.27129  0.43703  0.28714  1.0000
  C   C278      1.0  0.29126  0.27993  0.28857  1.0000
  H   H330      1.0  0.28642  0.30494  0.24941  1.0000
  H   H331      1.0  0.46434  0.30693  0.30202  1.0000
  H   H332      1.0  0.32256  0.27446  0.27020  1.0000
  H   H333      1.0  0.48592  0.32177  0.29697  1.0000
  H   H334      1.0  0.27579  0.32363  0.27276  1.0000
  H   H335      1.0  0.28887  0.26772  0.28687  1.0000
  H   H336      1.0  0.28241  0.34837  0.27904  1.0000
  C   C279      1.0  0.31277  0.28106  0.26214  1.0000
  C   C280      1.0  0.29199  0.33649  0.27918  1.0000
  H   H337      1.0  0.27909  0.28649  0.29600  1.0000
  H   H338      1.0  0.25632  0.33818  0.29733  1.0000
  Fe  Fe34      1.0  0.23968  0.28048  0.30977  1.0000
  C   C281      1.0  0.30082  0.30651  0.27526  1.0000
  Fe  Fe35      1.0  0.22715  0.24950  0.30433  1.0000
  C   C282      1.0  0.46903  0.34988  0.30913  1.0000
  H   H339      1.0  0.25981  0.44055  0.29735  1.0000
  H   H340      1.0  0.30014  0.41839  0.31315  1.0000
  H   H341      1.0  0.27039  0.44683  0.27498  1.0000
  H   H342      1.0  0.33199  0.31934  0.28768  1.0000
  H   H343      1.0  0.31481  0.42681  0.28278  1.0000
  C   C283      1.0  0.27938  0.48194  0.29844  1.0000
  H   H344      1.0  0.31754  0.46662  0.31140  1.0000
  C   C284      1.0  0.32030  0.23924  0.30048  1.0000
  C   C285      1.0  0.30214  0.42995  0.27886  1.0000
  C   C286      1.0  0.45228  0.32755  0.31668  1.0000
  H   H345      1.0  0.30279  0.44030  0.26698  1.0000
  H   H346      1.0  0.24559  0.36077  0.31490  1.0000
  C   C287      1.0  0.33302  0.24831  0.29960  1.0000
  H   H347      1.0  0.43764  0.30028  0.30049  1.0000
  C   C288      1.0  0.43721  0.31067  0.30670  1.0000
  H   H348      1.0  0.20363  0.24092  0.25451  1.0000
  H   H349      1.0  0.30082  0.41814  0.27532  1.0000
  S   S72       1.0  0.34594  0.27178  0.30828  1.0000
  C   C289      1.0  0.30514  0.24058  0.31318  1.0000
  H   H350      1.0  0.46868  0.35164  0.29523  1.0000
  C   C290      1.0  0.45252  0.31457  0.30784  1.0000
  H   H351      1.0  0.40954  0.31580  0.31397  1.0000
  Fe  Fe36      1.0  0.26146  0.24467  0.31643  1.0000
  H   H352      1.0  0.48459  0.30686  0.31773  1.0000
  N   N20       1.0  0.28763  0.43537  0.29279  1.0000
  H   H353      1.0  0.29925  0.30252  0.31434  1.0000
  C   C291      1.0  0.23708  0.32323  0.31132  1.0000
  C   C292      1.0  0.23918  0.35004  0.31774  1.0000
  H   H354      1.0  0.34435  0.24773  0.28926  1.0000
  N   N21       1.0  0.46820  0.33194  0.31835  1.0000
  S   S73       1.0  0.21573  0.24203  0.28447  1.0000
  H   H355      1.0  0.32540  0.34205  0.30967  1.0000
  H   H356      1.0  0.45814  0.35935  0.31482  1.0000
  C   C293      1.0  0.29400  0.48179  0.30428  1.0000
  H   H357      1.0  0.48115  0.35344  0.30973  1.0000
  S   S74       1.0  0.29814  0.37135  0.31527  1.0000
  H   H358      1.0  0.27011  0.42467  0.28461  1.0000
  H   H359      1.0  0.26511  0.46795  0.29090  1.0000
  H   H360      1.0  0.31435  0.44045  0.30443  1.0000
  C   C294      1.0  0.28787  0.42152  0.30849  1.0000
  C   C295      1.0  0.30438  0.45181  0.30247  1.0000
  H   H361      1.0  0.28617  0.40927  0.30622  1.0000
  H   H362      1.0  0.27642  0.30813  0.31781  1.0000
  C   C296      1.0  0.42130  0.31941  0.31434  1.0000
  C   C297      1.0  0.48431  0.32059  0.31115  1.0000
  C   C298      1.0  0.26073  0.28136  0.64939  1.0000
  H   H363      1.0  0.35948  0.30777  0.44095  1.0000
  C   C299      1.0  0.38135  0.26114  0.42378  1.0000
  S   S75       1.0  0.32866  0.36698  0.62691  1.0000
  Fe  Fe37      1.0  0.33368  0.28979  0.58454  1.0000
  S   S76       1.0  0.30996  0.29412  0.60507  1.0000
  S   S77       1.0  0.35979  0.28415  0.59132  1.0000
  Fe  Fe38      1.0  0.31299  0.29053  0.55778  1.0000
  S   S78       1.0  0.28749  0.29509  0.57637  1.0000
  S   S79       1.0  0.31798  0.28448  0.53109  1.0000
  Fe  Fe39      1.0  0.29908  0.31364  0.58390  1.0000
  S   S80       1.0  0.28431  0.33875  0.59116  1.0000
  Fe  Fe40      1.0  0.30097  0.27528  0.59576  1.0000
  C   C300      1.0  0.26441  0.25092  0.52716  1.0000
  S   S81       1.0  0.32359  0.31076  0.56374  1.0000
  S   S82       1.0  0.32555  0.26926  0.57680  1.0000
  C   C301      1.0  0.31368  0.23936  0.55203  1.0000
  H   H364      1.0  0.28664  0.28788  0.32916  1.0000
  Fe  Fe41      1.0  0.28172  0.28254  0.42887  1.0000
  S   S83       1.0  0.25487  0.28879  0.44422  1.0000
  S   S84       1.0  0.29410  0.29922  0.40538  1.0000
  Fe  Fe42      1.0  0.26706  0.27578  0.46732  1.0000
  S   S85       1.0  0.25964  0.28737  0.49126  1.0000
  Fe  Fe43      1.0  0.25336  0.26231  0.44265  1.0000
  S   S86       1.0  0.27208  0.39973  0.35007  1.0000
  S   S87       1.0  0.29411  0.27204  0.45179  1.0000
  S   S88       1.0  0.27923  0.25718  0.42539  1.0000
  C   C302      1.0  0.27193  0.32789  0.65229  1.0000
  C   C303      1.0  0.30423  0.24593  0.38145  1.0000
  H   H365      1.0  0.46724  0.31724  0.34429  1.0000
  Fe  Fe44      1.0  0.25437  0.38386  0.36910  1.0000
  S   S89       1.0  0.25436  0.37599  0.39751  1.0000
  C   C304      1.0  0.23783  0.44374  0.38069  1.0000
  H   H366      1.0  0.32519  0.42997  0.58193  1.0000
  C   C305      1.0  0.37700  0.24122  0.62953  1.0000
  C   C306      1.0  0.43030  0.28223  0.34443  1.0000
  C   C307      1.0  0.34014  0.24332  0.40641  1.0000
  H   H367      1.0  0.32839  0.40011  0.58420  1.0000
  C   C308      1.0  0.27439  0.47014  0.39734  1.0000
  S   S90       1.0  0.29166  0.25302  0.61506  1.0000
  H   H368      1.0  0.30915  0.26682  0.64580  1.0000
  N   N22       1.0  0.25539  0.47239  0.39976  1.0000
  C   C309      1.0  0.24381  0.42749  0.38998  1.0000
  H   H369      1.0  0.29434  0.25549  0.57672  1.0000
  C   C310      1.0  0.27649  0.47392  0.34615  1.0000
  H   H370      1.0  0.38313  0.37242  0.63039  1.0000
  H   H371      1.0  0.32001  0.24154  0.56164  1.0000
  H   H372      1.0  0.48215  0.37444  0.39458  1.0000
  C   C311      1.0  0.27068  0.44666  0.34478  1.0000
  C   C312      1.0  0.28108  0.45598  0.34839  1.0000
  H   H373      1.0  0.27445  0.43291  0.34674  1.0000
  H   H374      1.0  0.29282  0.44923  0.35287  1.0000
  C   C313      1.0  0.28375  0.32074  0.40394  1.0000
  C   C314      1.0  0.28691  0.33219  0.38817  1.0000
  C   C315      1.0  0.27860  0.34945  0.38661  1.0000
  C   C316      1.0  0.26698  0.35526  0.40071  1.0000
  C   C317      1.0  0.26439  0.34400  0.41676  1.0000
  C   C318      1.0  0.27278  0.32667  0.41837  1.0000
  H   H375      1.0  0.29571  0.32768  0.37714  1.0000
  H   H376      1.0  0.28119  0.35830  0.37446  1.0000
  H   H377      1.0  0.25561  0.34855  0.42780  1.0000
  H   H378      1.0  0.27086  0.31799  0.43078  1.0000
  C   C319      1.0  0.24150  0.45842  0.38363  1.0000
  H   H379      1.0  0.29050  0.44110  0.61836  1.0000
  S   S91       1.0  0.34195  0.31740  0.36591  1.0000
  H   H380      1.0  0.27118  0.33402  0.32969  1.0000
  C   C320      1.0  0.42059  0.33234  0.32288  1.0000
  H   H381      1.0  0.36077  0.37213  0.63221  1.0000
  H   H382      1.0  0.43840  0.24746  0.38120  1.0000
  H   H383      1.0  0.28098  0.46728  0.38434  1.0000
  Fe  Fe45      1.0  0.48491  0.30133  0.37300  1.0000
  S   S92       1.0  0.25164  0.26506  0.33223  1.0000
  C   C321      1.0  0.32669  0.30573  0.47578  1.0000
  C   C322      1.0  0.42061  0.29058  0.35782  1.0000
  H   H384      1.0  0.34276  0.28189  0.42196  1.0000
  C   C323      1.0  0.27992  0.25954  0.63434  1.0000
  C   C324      1.0  0.40624  0.25954  0.40019  1.0000
  C   C325      1.0  0.27065  0.27644  0.63400  1.0000
  H   H385      1.0  0.26924  0.39417  0.58567  1.0000
  H   H386      1.0  0.27067  0.28556  0.62180  1.0000
  C   C326      1.0  0.30127  0.28478  0.52088  1.0000
  C   C327      1.0  0.30507  0.27573  0.50745  1.0000
  C   C328      1.0  0.29234  0.27621  0.49849  1.0000
  C   C329      1.0  0.27576  0.28601  0.50269  1.0000
  C   C330      1.0  0.27186  0.29478  0.51637  1.0000
  C   C331      1.0  0.28455  0.29412  0.52550  1.0000
  H   H387      1.0  0.31795  0.26840  0.50387  1.0000
  H   H388      1.0  0.29540  0.26909  0.48826  1.0000
  H   H389      1.0  0.25902  0.30228  0.51977  1.0000
  H   H390      1.0  0.28152  0.30119  0.53580  1.0000
  C   C332      1.0  0.31611  0.35932  0.61706  1.0000
  C   C333      1.0  0.29808  0.36384  0.62077  1.0000
  C   C334      1.0  0.28833  0.35763  0.61271  1.0000
  C   C335      1.0  0.29655  0.34666  0.60110  1.0000
  C   C336      1.0  0.31455  0.34218  0.59736  1.0000
  C   C337      1.0  0.32431  0.34860  0.60522  1.0000
  H   H391      1.0  0.29158  0.37220  0.62972  1.0000
  H   H392      1.0  0.27441  0.36132  0.61550  1.0000
  H   H393      1.0  0.32101  0.33393  0.58821  1.0000
  H   H394      1.0  0.33826  0.34508  0.60224  1.0000
  C   C338      1.0  0.35663  0.30187  0.64090  1.0000
  C   C339      1.0  0.34414  0.30960  0.63087  1.0000
  C   C340      1.0  0.34526  0.30441  0.61546  1.0000
  C   C341      1.0  0.35913  0.29186  0.60974  1.0000
  C   C342      1.0  0.37223  0.28497  0.61919  1.0000
  C   C343      1.0  0.37085  0.28976  0.63491  1.0000
  H   H395      1.0  0.33355  0.31957  0.63506  1.0000
  H   H396      1.0  0.33554  0.31029  0.60784  1.0000
  H   H397      1.0  0.38323  0.27556  0.61460  1.0000
  N   N23       1.0  0.28713  0.30973  0.33902  1.0000
  C   C344      1.0  0.32318  0.26179  0.64155  1.0000
  C   C345      1.0  0.28407  0.32866  0.33308  1.0000
  C   C346      1.0  0.27309  0.30518  0.35378  1.0000
  C   C347      1.0  0.25615  0.30733  0.35114  1.0000
  C   C348      1.0  0.27564  0.29874  0.37101  1.0000
  C   C349      1.0  0.24275  0.30275  0.36471  1.0000
  C   C350      1.0  0.26207  0.29447  0.38460  1.0000
  C   C351      1.0  0.24570  0.29640  0.38143  1.0000
  C   C352      1.0  0.41405  0.24169  0.36916  1.0000
  H   H398      1.0  0.28477  0.33507  0.34333  1.0000
  H   H399      1.0  0.20140  0.24870  0.42980  1.0000
  C   C353      1.0  0.28768  0.25543  0.56642  1.0000
  H   H400      1.0  0.25316  0.31251  0.33850  1.0000
  H   H401      1.0  0.23003  0.30408  0.36220  1.0000
  C   C354      1.0  0.30009  0.30806  0.64642  1.0000
  H   H402      1.0  0.23527  0.29294  0.39197  1.0000
  H   H403      1.0  0.21617  0.31147  0.32761  1.0000
  C   C355      1.0  0.27185  0.25172  0.54052  1.0000
  H   H404      1.0  0.36341  0.30072  0.41481  1.0000
  H   H405      1.0  0.25025  0.26107  0.40189  1.0000
  C   C356      1.0  0.22451  0.34923  0.33099  1.0000
  C   C357      1.0  0.37959  0.24489  0.42309  1.0000
  H   H406      1.0  0.19506  0.24575  0.40287  1.0000
  C   C358      1.0  0.37795  0.33994  0.63688  1.0000
  H   H407      1.0  0.40097  0.24071  0.36834  1.0000
  H   H408      1.0  0.35361  0.30562  0.47208  1.0000
  H   H409      1.0  0.27383  0.25620  0.57277  1.0000
  C   C359      1.0  0.33323  0.33139  0.33410  1.0000
  H   H410      1.0  0.20470  0.33472  0.34452  1.0000
  H   H411      1.0  0.31478  0.26668  0.33459  1.0000
  C   C360      1.0  0.33294  0.30812  0.43941  1.0000
  H   H412      1.0  0.32427  0.30477  0.48970  1.0000
  C   C361      1.0  0.25119  0.45718  0.39625  1.0000
  H   H413      1.0  0.34186  0.32041  0.32967  1.0000
  H   H414      1.0  0.30408  0.31675  0.63381  1.0000
  H   H415      1.0  0.25341  0.26071  0.52381  1.0000
  Fe  Fe46      1.0  0.22774  0.25400  0.34059  1.0000
  S   S93       1.0  0.37056  0.29474  0.32837  1.0000
  S   S94       1.0  0.21639  0.36557  0.34319  1.0000
  H   H416      1.0  0.40669  0.29322  0.36013  1.0000
  N   N24       1.0  0.21835  0.34125  0.40019  1.0000
  C   C362      1.0  0.20650  0.35775  0.39495  1.0000
  C   C363      1.0  0.22220  0.34158  0.41694  1.0000
  C   C364      1.0  0.23474  0.34050  0.38720  1.0000
  C   C365      1.0  0.21066  0.32646  0.40096  1.0000
  C   C366      1.0  0.20458  0.32530  0.38654  1.0000
  C   C367      1.0  0.20966  0.31253  0.41549  1.0000
  C   C368      1.0  0.19773  0.31123  0.38674  1.0000
  C   C369      1.0  0.20278  0.29852  0.41554  1.0000
  C   C370      1.0  0.19687  0.29784  0.40120  1.0000
  H   H417      1.0  0.19350  0.35829  0.40359  1.0000
  H   H418      1.0  0.21152  0.36906  0.39535  1.0000
  H   H419      1.0  0.20486  0.35984  0.38140  1.0000
  H   H420      1.0  0.21044  0.34175  0.42744  1.0000
  H   H421      1.0  0.22732  0.35323  0.41608  1.0000
  H   H422      1.0  0.23236  0.33038  0.42093  1.0000
  H   H423      1.0  0.24072  0.35158  0.38610  1.0000
  H   H424      1.0  0.24430  0.32860  0.39082  1.0000
  H   H425      1.0  0.23285  0.34088  0.37405  1.0000
  H   H426      1.0  0.20541  0.33514  0.37483  1.0000
  H   H427      1.0  0.21430  0.31196  0.42693  1.0000
  H   H428      1.0  0.23309  0.47539  0.42029  1.0000
  H   H429      1.0  0.20233  0.28791  0.42667  1.0000
  S   S95       1.0  0.24285  0.44368  0.33311  1.0000
  Fe  Fe47      1.0  0.35835  0.27250  0.32986  1.0000
  H   H430      1.0  0.27881  0.43939  0.60345  1.0000
  H   H431      1.0  0.33997  0.25538  0.39712  1.0000
  H   H432      1.0  0.31642  0.42234  0.62277  1.0000
  C   C371      1.0  0.31527  0.39948  0.58455  1.0000
  C   C372      1.0  0.26123  0.48253  0.34044  1.0000
  C   C373      1.0  0.28428  0.40783  0.59367  1.0000
  C   C374      1.0  0.27987  0.24781  0.65018  1.0000
  H   H433      1.0  0.27664  0.31748  0.62874  1.0000
  H   H434      1.0  0.32408  0.25286  0.63293  1.0000
  H   H435      1.0  0.27986  0.45946  0.40710  1.0000
  H   H436      1.0  0.28116  0.42265  0.62263  1.0000
  H   H437      1.0  0.38111  0.32619  0.64345  1.0000
  S   S96       1.0  0.23027  0.39961  0.36071  1.0000
  H   H438      1.0  0.31459  0.44555  0.59507  1.0000
  S   S97       1.0  0.38102  0.25314  0.33820  1.0000
  S   S98       1.0  0.29063  0.48488  0.35007  1.0000
  H   H439      1.0  0.39595  0.28121  0.41267  1.0000
  H   H440      1.0  0.40851  0.33383  0.64252  1.0000
  H   H441      1.0  0.48006  0.33342  0.33856  1.0000
  H   H442      1.0  0.26598  0.26238  0.54698  1.0000
  H   H443      1.0  0.38880  0.34288  0.62598  1.0000
  C   C375      1.0  0.42893  0.29572  0.36818  1.0000
  H   H444      1.0  0.19329  0.31055  0.37552  1.0000
  Fe  Fe48      1.0  0.28925  0.24703  0.44984  1.0000
  H   H445      1.0  0.32430  0.33638  0.41563  1.0000
  C   C376      1.0  0.30104  0.40998  0.59358  1.0000
  H   H446      1.0  0.23059  0.44493  0.37084  1.0000
  H   H447      1.0  0.23682  0.47051  0.37560  1.0000
  C   C377      1.0  0.34640  0.30741  0.44786  1.0000
  Fe  Fe49      1.0  0.36618  0.25481  0.36507  1.0000
  C   C378      1.0  0.44700  0.29276  0.36516  1.0000
  Fe  Fe50      1.0  0.35607  0.29357  0.35581  1.0000
  C   C379      1.0  0.45675  0.28460  0.35163  1.0000
  H   H448      1.0  0.35289  0.25361  0.62301  1.0000
  S   S99       1.0  0.45671  0.29933  0.37878  1.0000
  C   C380      1.0  0.37114  0.36954  0.63967  1.0000
  Fe  Fe51      1.0  0.24827  0.41446  0.34015  1.0000
  H   H449      1.0  0.29284  0.25043  0.39120  1.0000
  H   H450      1.0  0.30725  0.28997  0.34881  1.0000
  H   H451      1.0  0.30102  0.37042  0.35000  1.0000
  Fe  Fe52      1.0  0.23553  0.38146  0.34256  1.0000
  H   H452      1.0  0.26427  0.28964  0.39770  1.0000
  H   H453      1.0  0.42132  0.30214  0.37855  1.0000
  H   H454      1.0  0.28917  0.26735  0.55642  1.0000
  C   C381      1.0  0.28207  0.39598  0.58513  1.0000
  C   C382      1.0  0.39461  0.26849  0.41229  1.0000
  H   H455      1.0  0.30039  0.30600  0.47569  1.0000
  C   C383      1.0  0.28663  0.23941  0.54478  1.0000
  S   S100      1.0  0.25854  0.36482  0.35226  1.0000
  H   H456      1.0  0.36678  0.34118  0.63084  1.0000
  H   H457      1.0  0.38073  0.28398  0.64235  1.0000
  C   C384      1.0  0.25569  0.45516  0.33859  1.0000
  H   H458      1.0  0.28800  0.29696  0.37433  1.0000
  C   C385      1.0  0.33316  0.29324  0.41725  1.0000
  H   H459      1.0  0.41450  0.25556  0.36595  1.0000
  C   C386      1.0  0.25328  0.42582  0.40247  1.0000
  H   H460      1.0  0.31561  0.24932  0.38396  1.0000
  H   H461      1.0  0.31496  0.30660  0.33183  1.0000
  H   H462      1.0  0.31826  0.34920  0.36979  1.0000
  C   C387      1.0  0.31985  0.34760  0.35667  1.0000
  C   C388      1.0  0.24142  0.34699  0.64065  1.0000
  C   C389      1.0  0.24734  0.47413  0.41788  1.0000
  C   C390      1.0  0.31002  0.35959  0.34549  1.0000
  H   H463      1.0  0.26422  0.43844  0.41554  1.0000
  C   C391      1.0  0.31632  0.30731  0.45006  1.0000
  H   H464      1.0  0.31204  0.30135  0.65131  1.0000
  H   H465      1.0  0.30196  0.25352  0.36855  1.0000
  S   S101      1.0  0.48942  0.32733  0.37288  1.0000
  C   C392      1.0  0.22618  0.25521  0.41770  1.0000
  H   H466      1.0  0.31048  0.40249  0.62348  1.0000
  C   C393      1.0  0.25092  0.47316  0.33654  1.0000
  C   C394      1.0  0.32319  0.32407  0.41303  1.0000
  C   C395      1.0  0.23813  0.25799  0.40200  1.0000
  H   H467      1.0  0.32394  0.37930  0.56985  1.0000
  H   H468      1.0  0.32504  0.32550  0.39876  1.0000
  C   C396      1.0  0.31182  0.35752  0.32860  1.0000
  S   S102      1.0  0.34265  0.27247  0.35671  1.0000
  H   H469      1.0  0.23932  0.47987  0.33180  1.0000
  H   H470      1.0  0.19184  0.28679  0.40121  1.0000
  H   H471      1.0  0.32907  0.27292  0.63371  1.0000
  H   H472      1.0  0.27267  0.41491  0.60047  1.0000
  C   C397      1.0  0.22260  0.32219  0.32482  1.0000
  C   C398      1.0  0.31289  0.38762  0.57615  1.0000
  H   H473      1.0  0.22989  0.35440  0.63610  1.0000
  C   C399      1.0  0.44840  0.27930  0.34134  1.0000
  H   H474      1.0  0.47069  0.28215  0.34925  1.0000
  Fe  Fe53      1.0  0.31422  0.37787  0.65044  1.0000
  H   H475      1.0  0.31590  0.24952  0.54019  1.0000
  C   C400      1.0  0.30453  0.30400  0.34338  1.0000
  H   H476      1.0  0.30598  0.31091  0.35292  1.0000
  H   H477      1.0  0.35603  0.32383  0.41279  1.0000
  H   H478      1.0  0.29970  0.33991  0.65131  1.0000
  C   C401      1.0  0.33116  0.33323  0.35114  1.0000
  H   H479      1.0  0.30550  0.30730  0.44472  1.0000
  Fe  Fe54      1.0  0.39143  0.27538  0.34000  1.0000
  H   H480      1.0  0.33415  0.29401  0.40317  1.0000
  H   H481      1.0  0.25792  0.41307  0.40961  1.0000
  S   S103      1.0  0.42013  0.27521  0.33149  1.0000
  C   C402      1.0  0.40519  0.24270  0.39948  1.0000
  H   H482      1.0  0.32879  0.40865  0.60818  1.0000
  C   C403      1.0  0.25686  0.44041  0.40568  1.0000
  H   H483      1.0  0.36900  0.23932  0.43175  1.0000
  C   C404      1.0  0.31327  0.30636  0.46790  1.0000
  C   C405      1.0  0.20706  0.24930  0.40247  1.0000
  H   H484      1.0  0.30428  0.44252  0.57930  1.0000
  S   S104      1.0  0.37777  0.27586  0.36748  1.0000
  N   N25       1.0  0.33573  0.30932  0.42050  1.0000
  Fe  Fe55      1.0  0.27368  0.38243  0.33217  1.0000
  C   C406      1.0  0.28785  0.43176  0.61201  1.0000
  H   H485      1.0  0.37236  0.26804  0.43321  1.0000
  C   C407      1.0  0.21618  0.33533  0.33445  1.0000
  H   H486      1.0  0.35463  0.31323  0.39670  1.0000
  H   H487      1.0  0.24119  0.41612  0.38745  1.0000
  C   C408      1.0  0.29632  0.38593  0.57637  1.0000
  H   H488      1.0  0.30966  0.32251  0.41822  1.0000
  C   C409      1.0  0.31542  0.41369  0.61463  1.0000
  N   N26       1.0  0.30396  0.42258  0.60222  1.0000
  H   H489      1.0  0.29453  0.37634  0.57028  1.0000
  C   C410      1.0  0.23428  0.25679  0.38640  1.0000
  H   H490      1.0  0.32022  0.29048  0.42391  1.0000
  C   C411      1.0  0.21068  0.25091  0.41777  1.0000
  C   C412      1.0  0.31238  0.43572  0.58904  1.0000
  H   H491      1.0  0.31714  0.25300  0.42384  1.0000
  C   C413      1.0  0.35326  0.31189  0.41091  1.0000
  S   S105      1.0  0.26306  0.24964  0.46729  1.0000
  H   H492      1.0  0.45723  0.33942  0.34327  1.0000
  C   C414      1.0  0.26812  0.32597  0.63689  1.0000
  H   H493      1.0  0.36720  0.37886  0.64848  1.0000
  C   C415      1.0  0.25310  0.33545  0.63121  1.0000
  H   H494      1.0  0.25311  0.29427  0.64903  1.0000
  H   H495      1.0  0.25231  0.46288  0.42745  1.0000
  H   H496      1.0  0.24344  0.25899  0.37429  1.0000
  C   C416      1.0  0.21874  0.25222  0.38671  1.0000
  C   C417      1.0  0.46811  0.33048  0.33687  1.0000
  H   H497      1.0  0.45598  0.27287  0.33098  1.0000
  H   H498      1.0  0.25077  0.33405  0.61917  1.0000
  C   C418      1.0  0.32722  0.24196  0.42152  1.0000
  C   C419      1.0  0.34322  0.30620  0.46580  1.0000
  H   H499      1.0  0.29148  0.25157  0.33547  1.0000
  H   H500      1.0  0.29461  0.29797  0.64400  1.0000
  H   H501      1.0  0.27821  0.48191  0.39834  1.0000
  S   S106      1.0  0.21308  0.24938  0.36823  1.0000
  S   S107      1.0  0.22935  0.25733  0.43765  1.0000
  H   H502      1.0  0.41599  0.26600  0.39127  1.0000
  C   C420      1.0  0.32379  0.34365  0.32276  1.0000
  C   C421      1.0  0.35920  0.24743  0.63378  1.0000
  N   N27       1.0  0.29493  0.23983  0.55879  1.0000
  C   C422      1.0  0.27152  0.23813  0.51751  1.0000
  H   H503      1.0  0.38356  0.24279  0.61604  1.0000
  H   H504      1.0  0.29382  0.33267  0.32142  1.0000
  H   H505      1.0  0.26598  0.23798  0.50681  1.0000
  C   C423      1.0  0.35027  0.24605  0.65134  1.0000
  C   C424      1.0  0.31635  0.25897  0.32516  1.0000
  C   C425      1.0  0.28735  0.30172  0.32449  1.0000
  H   H506      1.0  0.48841  0.36990  0.36463  1.0000
  H   H507      1.0  0.28711  0.47581  0.65010  1.0000
  N   N28       1.0  0.37391  0.35152  0.64939  1.0000
  C   C426      1.0  0.43581  0.33650  0.32394  1.0000
  H   H508      1.0  0.43456  0.34663  0.33071  1.0000
  H   H509      1.0  0.40816  0.33897  0.32896  1.0000
  H   H510      1.0  0.48761  0.38302  0.33465  1.0000
  S   S108      1.0  0.25096  0.39799  0.32082  1.0000
  C   C427      1.0  0.30317  0.25045  0.32561  1.0000
  H   H511      1.0  0.24984  0.48574  0.42083  1.0000
  H   H512      1.0  0.27726  0.42536  0.31921  1.0000
  S   S109      1.0  0.21470  0.27100  0.31915  1.0000
  S   S110      1.0  0.36384  0.28103  0.70440  1.0000
  S   S111      1.0  0.31155  0.36145  0.67709  1.0000
  C   C428      1.0  0.30638  0.40812  0.72964  1.0000
  Fe  Fe56      1.0  0.38246  0.29284  0.71108  1.0000
  S   S112      1.0  0.37576  0.30734  0.73246  1.0000
  S   S113      1.0  0.40442  0.27024  0.70903  1.0000
  S   S114      1.0  0.24944  0.27186  0.73196  1.0000
  S   S115      1.0  0.47855  0.31357  0.70924  1.0000
  C   C429      1.0  0.28242  0.30554  0.67500  1.0000
  H   H513      1.0  0.23558  0.35791  0.66336  1.0000
  S   S116      1.0  0.32452  0.39750  0.65740  1.0000
  H   H514      1.0  0.17945  0.23988  0.73212  1.0000
  H   H515      1.0  0.35137  0.35892  0.66880  1.0000
  Fe  Fe57      1.0  0.28480  0.37739  0.68147  1.0000
  H   H516      1.0  0.32078  0.24608  0.71543  1.0000
  S   S117      1.0  0.26232  0.36452  0.69432  1.0000
  Fe  Fe58      1.0  0.31891  0.38271  0.68464  1.0000
  S   S118      1.0  0.33629  0.38118  0.70255  1.0000
  H   H517      1.0  0.31505  0.27161  0.67118  1.0000
  S   S119      1.0  0.29184  0.39749  0.69103  1.0000
  H   H518      1.0  0.44311  0.31057  0.71575  1.0000
  S   S120      1.0  0.28822  0.29039  0.73659  1.0000
  C   C430      1.0  0.26881  0.34440  0.70729  1.0000
  C   C431      1.0  0.25903  0.33168  0.71088  1.0000
  C   C432      1.0  0.26493  0.31506  0.71987  1.0000
  C   C433      1.0  0.28039  0.31124  0.72569  1.0000
  C   C434      1.0  0.28980  0.32419  0.72269  1.0000
  C   C435      1.0  0.28410  0.34069  0.71339  1.0000
  H   H519      1.0  0.24708  0.33455  0.70635  1.0000
  H   H520      1.0  0.25745  0.30527  0.72232  1.0000
  H   H521      1.0  0.30164  0.32146  0.72732  1.0000
  H   H522      1.0  0.29145  0.35059  0.71112  1.0000
  C   C436      1.0  0.32057  0.46960  0.67023  1.0000
  C   C437      1.0  0.32509  0.45163  0.67285  1.0000
  H   H523      1.0  0.33324  0.25966  0.67999  1.0000
  H   H524      1.0  0.27323  0.31210  0.68505  1.0000
  H   H525      1.0  0.31883  0.42845  0.67053  1.0000
  C   C438      1.0  0.25958  0.33952  0.66173  1.0000
  H   H526      1.0  0.33587  0.44495  0.67890  1.0000
  C   C439      1.0  0.32891  0.26562  0.66757  1.0000
  C   C440      1.0  0.21537  0.25571  0.72665  1.0000
  C   C441      1.0  0.18941  0.24454  0.73579  1.0000
  C   C442      1.0  0.36403  0.32769  0.72484  1.0000
  C   C443      1.0  0.35407  0.32972  0.71257  1.0000
  C   C444      1.0  0.34482  0.34601  0.70632  1.0000
  C   C445      1.0  0.34618  0.36043  0.71166  1.0000
  C   C446      1.0  0.35610  0.35841  0.72397  1.0000
  C   C447      1.0  0.36481  0.34199  0.73077  1.0000
  H   H527      1.0  0.35337  0.31873  0.70793  1.0000
  H   H528      1.0  0.33688  0.34737  0.69719  1.0000
  H   H529      1.0  0.35720  0.36953  0.72814  1.0000
  H   H530      1.0  0.37259  0.34045  0.74020  1.0000
  N   N29       1.0  0.48939  0.25081  0.70439  1.0000
  N   N30       1.0  0.20338  0.24873  0.72065  1.0000
  S   S121      1.0  0.28706  0.26234  0.70595  1.0000
  C   C448      1.0  0.29674  0.32958  0.66277  1.0000
  C   C449      1.0  0.30705  0.47833  0.66171  1.0000
  C   C450      1.0  0.44850  0.29641  0.67851  1.0000
  H   H531      1.0  0.30158  0.43139  0.75010  1.0000
  H   H532      1.0  0.30596  0.40382  0.71789  1.0000
  H   H533      1.0  0.29344  0.40883  0.73840  1.0000
  Fe  Fe59      1.0  0.27723  0.27000  0.73170  1.0000
  H   H534      1.0  0.31557  0.39754  0.73615  1.0000
  H   H535      1.0  0.29369  0.29814  0.68082  1.0000
  H   H536      1.0  0.22251  0.24553  0.73562  1.0000
  S   S122      1.0  0.35363  0.30714  0.66115  1.0000
  H   H537      1.0  0.47200  0.29453  0.65916  1.0000
  H   H538      1.0  0.48766  0.26727  0.67926  1.0000
  H   H539      1.0  0.31336  0.45936  0.71656  1.0000
  H   H540      1.0  0.35965  0.33610  0.67105  1.0000
  H   H541      1.0  0.26469  0.44860  0.69790  1.0000
  H   H542      1.0  0.18758  0.27366  0.71314  1.0000
  H   H543      1.0  0.23091  0.24788  0.69307  1.0000
  H   H544      1.0  0.48870  0.27336  0.71399  1.0000
  H   H545      1.0  0.20853  0.26630  0.73368  1.0000
  H   H546      1.0  0.26945  0.47820  0.69326  1.0000
  C   C451      1.0  0.40474  0.33952  0.65384  1.0000
  C   C452      1.0  0.30177  0.45098  0.65979  1.0000
  Fe  Fe60      1.0  0.38639  0.25948  0.69984  1.0000
  H   H547      1.0  0.18261  0.25596  0.74160  1.0000
  S   S123      1.0  0.24790  0.27588  0.68428  1.0000
  H   H548      1.0  0.22509  0.26114  0.71578  1.0000
  N   N31       1.0  0.33013  0.28782  0.75935  1.0000
  C   C453      1.0  0.33188  0.29875  0.74176  1.0000
  C   C454      1.0  0.31246  0.29347  0.76921  1.0000
  C   C455      1.0  0.34238  0.29093  0.76837  1.0000
  C   C456      1.0  0.33398  0.26958  0.75773  1.0000
  C   C457      1.0  0.32087  0.25987  0.76117  1.0000
  C   C458      1.0  0.35111  0.26137  0.75130  1.0000
  H   H549      1.0  0.36809  0.23839  0.74408  1.0000
  C   C459      1.0  0.38775  0.34883  0.65908  1.0000
  C   C460      1.0  0.46285  0.24843  0.69568  1.0000
  H   H550      1.0  0.32327  0.29637  0.73437  1.0000
  H   H551      1.0  0.32874  0.31271  0.74208  1.0000
  H   H552      1.0  0.34522  0.29601  0.73416  1.0000
  H   H553      1.0  0.30239  0.29373  0.76220  1.0000
  H   H554      1.0  0.31033  0.30688  0.77113  1.0000
  H   H555      1.0  0.30998  0.28494  0.78219  1.0000
  H   H556      1.0  0.35589  0.28902  0.76098  1.0000
  H   H557      1.0  0.33940  0.30448  0.77012  1.0000
  H   H558      1.0  0.34215  0.28222  0.78130  1.0000
  H   H559      1.0  0.30735  0.26535  0.76498  1.0000
  H   H560      1.0  0.36161  0.26825  0.74712  1.0000
  C   C461      1.0  0.32261  0.23874  0.66643  1.0000
  C   C462      1.0  0.27494  0.45081  0.70277  1.0000
  C   C463      1.0  0.29770  0.46902  0.65645  1.0000
  H   H561      1.0  0.28308  0.42435  0.71250  1.0000
  H   H562      1.0  0.20532  0.26748  0.69653  1.0000
  C   C464      1.0  0.29989  0.43932  0.71683  1.0000
  C   C465      1.0  0.47485  0.30379  0.68060  1.0000
  C   C466      1.0  0.44942  0.30720  0.70333  1.0000
  H   H563      1.0  0.27583  0.29628  0.67263  1.0000
  S   S124      1.0  0.39020  0.30719  0.68411  1.0000
  N   N32       1.0  0.31208  0.42484  0.72507  1.0000
  C   C467      1.0  0.46565  0.29811  0.67148  1.0000
  H   H564      1.0  0.32790  0.42006  0.70069  1.0000
  H   H565      1.0  0.47420  0.25970  0.72741  1.0000
  S   S125      1.0  0.28948  0.43940  0.65387  1.0000
  C   C468      1.0  0.30236  0.45648  0.71363  1.0000
  C   C469      1.0  0.35750  0.34845  0.66152  1.0000
  S   S126      1.0  0.39527  0.27076  0.67179  1.0000
  S   S127      1.0  0.43809  0.28717  0.66778  1.0000
  Fe  Fe61      1.0  0.25954  0.26202  0.70732  1.0000
  H   H566      1.0  0.37217  0.36363  0.67857  1.0000
  C   C470      1.0  0.46682  0.30820  0.69665  1.0000
  H   H567      1.0  0.42996  0.32883  0.65986  1.0000
  Fe  Fe62      1.0  0.41105  0.28386  0.68138  1.0000
  C   C471      1.0  0.32905  0.42281  0.71300  1.0000
  C   C472      1.0  0.27049  0.25294  0.66565  1.0000
  H   H568      1.0  0.39414  0.35764  0.69572  1.0000
  C   C473      1.0  0.47701  0.24055  0.70395  1.0000
  H   H569      1.0  0.34930  0.25291  0.71206  1.0000
  Fe  Fe63      1.0  0.25346  0.24396  0.74511  1.0000
  C   C474      1.0  0.39716  0.35273  0.68391  1.0000
  C   C475      1.0  0.41347  0.34299  0.67879  1.0000
  H   H570      1.0  0.42312  0.34026  0.68661  1.0000
  H   H571      1.0  0.28918  0.33585  0.67372  1.0000
  C   C476      1.0  0.44031  0.30117  0.69437  1.0000
  H   H572      1.0  0.42704  0.29999  0.69987  1.0000
  Fe  Fe64      1.0  0.37372  0.29312  0.67697  1.0000
  C   C477      1.0  0.32488  0.24280  0.75906  1.0000
  H   H573      1.0  0.32243  0.41716  0.74838  1.0000
  C   C478      1.0  0.45057  0.23934  0.69557  1.0000
  H   H574      1.0  0.33464  0.43458  0.70961  1.0000
  C   C479      1.0  0.28581  0.43689  0.71109  1.0000
  N   N33       1.0  0.33157  0.25296  0.65648  1.0000
  C   C480      1.0  0.48008  0.26486  0.71378  1.0000
  H   H575      1.0  0.26134  0.34134  0.67375  1.0000
  Fe  Fe65      1.0  0.29688  0.41084  0.66319  1.0000
  C   C481      1.0  0.31429  0.42836  0.74128  1.0000
  N   N34       1.0  0.28758  0.31793  0.65887  1.0000
  S   S128      1.0  0.33117  0.48061  0.67892  1.0000
  C   C482      1.0  0.36019  0.23779  0.66418  1.0000
  C   C483      1.0  0.31556  0.44232  0.66791  1.0000
  C   C484      1.0  0.35497  0.24427  0.74937  1.0000
  C   C485      1.0  0.26062  0.26962  0.66521  1.0000
  S   S129      1.0  0.28061  0.24297  0.74720  1.0000
  H   H576      1.0  0.33628  0.27602  0.66090  1.0000
  H   H577      1.0  0.29372  0.48324  0.70287  1.0000
  H   H578      1.0  0.18694  0.25746  0.70206  1.0000
  H   H579      1.0  0.48822  0.30450  0.67531  1.0000
  H   H580      1.0  0.33863  0.41187  0.71851  1.0000
  H   H581      1.0  0.30922  0.32259  0.66657  1.0000
  H   H582      1.0  0.46098  0.26183  0.68936  1.0000
  H   H583      1.0  0.46942  0.27336  0.70775  1.0000
  H   H584      1.0  0.32087  0.43933  0.73882  1.0000
  C   C486      1.0  0.29120  0.47032  0.70565  1.0000
  C   C487      1.0  0.19545  0.26240  0.70754  1.0000
  C   C488      1.0  0.24464  0.34898  0.65592  1.0000
  C   C489      1.0  0.41731  0.33659  0.66368  1.0000
  C   C490      1.0  0.27758  0.46749  0.70013  1.0000
  C   C491      1.0  0.38455  0.35588  0.67409  1.0000
  H   H585      1.0  0.27050  0.24386  0.67787  1.0000
  C   C492      1.0  0.34852  0.24009  0.71184  1.0000
  H   H586      1.0  0.34763  0.34762  0.65471  1.0000
  H   H587      1.0  0.30846  0.24341  0.67041  1.0000
  H   H588      1.0  0.43979  0.24584  0.68927  1.0000
  S   S130      1.0  0.28683  0.39233  0.65415  1.0000
  S   S131      1.0  0.20278  0.72056  0.30504  1.0000
  H   H589      1.0  0.14929  0.71572  0.28190  1.0000
  H   H590      1.0  0.29541  0.49319  0.30782  1.0000
  C   C493      1.0  0.15381  0.69466  0.26913  1.0000
  C   C494      1.0  0.16464  0.69293  0.29464  1.0000
  H   H591      1.0  0.34611  0.57355  0.31279  1.0000
  C   C495      1.0  0.18478  0.72240  0.25575  1.0000
  C   C496      1.0  0.19747  0.70857  0.26154  1.0000
  H   H592      1.0  0.41070  0.66497  0.31335  1.0000
  H   H593      1.0  0.26948  0.49356  0.29739  1.0000
  H   H594      1.0  0.24210  0.63335  0.31357  1.0000
  H   H595      1.0  0.17669  0.65467  0.28103  1.0000
  H   H596      1.0  0.33872  0.59917  0.27287  1.0000
  C   C497      1.0  0.32171  0.60404  0.29683  1.0000
  H   H597      1.0  0.16562  0.69991  0.30383  1.0000
  C   C498      1.0  0.16160  0.67750  0.26899  1.0000
  C   C499      1.0  0.18311  0.73454  0.28048  1.0000
  C   C500      1.0  0.19590  0.72079  0.28620  1.0000
  S   S132      1.0  0.23444  0.67373  0.30755  1.0000
  S   S133      1.0  0.28467  0.66871  0.30280  1.0000
  C   C501      1.0  0.15513  0.70226  0.28206  1.0000
  C   C502      1.0  0.32936  0.59440  0.28396  1.0000
  H   H598      1.0  0.14705  0.70222  0.25898  1.0000
  C   C503      1.0  0.17299  0.67544  0.29473  1.0000
  H   H599      1.0  0.20110  0.64853  0.29112  1.0000
  C   C504      1.0  0.31315  0.57243  0.29969  1.0000
  H   H600      1.0  0.20951  0.65104  0.30812  1.0000
  C   C505      1.0  0.20311  0.70783  0.27666  1.0000
  H   H601      1.0  0.30966  0.56023  0.30076  1.0000
  H   H602      1.0  0.20305  0.69849  0.25420  1.0000
  H   H603      1.0  0.40914  0.68599  0.29904  1.0000
  H   H604      1.0  0.21320  0.69740  0.28079  1.0000
  H   H605      1.0  0.43208  0.67956  0.31236  1.0000
  H   H606      1.0  0.21251  0.73375  0.22970  1.0000
  C   C506      1.0  0.32506  0.57863  0.28537  1.0000
  N   N35       1.0  0.18342  0.66517  0.30766  1.0000
  H   H607      1.0  0.16062  0.67169  0.25881  1.0000
  S   S134      1.0  0.17834  0.72303  0.23653  1.0000
  H   H608      1.0  0.33097  0.57119  0.27537  1.0000
  H   H609      1.0  0.31948  0.65036  0.30311  1.0000
  C   C507      1.0  0.17092  0.66794  0.28168  1.0000
  H   H610      1.0  0.26097  0.60752  0.30324  1.0000
  C   C508      1.0  0.30964  0.59804  0.31170  1.0000
  C   C509      1.0  0.31613  0.65898  0.31205  1.0000
  H   H611      1.0  0.20727  0.66842  0.28972  1.0000
  C   C510      1.0  0.20103  0.65802  0.29874  1.0000
  H   H612      1.0  0.17447  0.64172  0.31050  1.0000
  H   H613      1.0  0.32536  0.61627  0.29501  1.0000
  H   H614      1.0  0.39117  0.67546  0.30606  1.0000
  H   H615      1.0  0.39164  0.71183  0.31065  1.0000
  C   C511      1.0  0.40213  0.67781  0.31033  1.0000
  H   H616      1.0  0.19178  0.68622  0.31243  1.0000
  C   C512      1.0  0.30558  0.58189  0.31272  1.0000
  H   H617      1.0  0.28082  0.62216  0.31136  1.0000
  H   H618      1.0  0.29879  0.63251  0.30587  1.0000
  C   C513      1.0  0.29982  0.66983  0.31416  1.0000
  C   C514      1.0  0.29082  0.62488  0.31676  1.0000
  C   C515      1.0  0.25188  0.60607  0.31550  1.0000
  H   H619      1.0  0.37371  0.70108  0.31565  1.0000
  H   H620      1.0  0.23117  0.73407  0.27696  1.0000
  Fe  Fe66      1.0  0.25731  0.67616  0.31667  1.0000
  Fe  Fe67      1.0  0.22134  0.69809  0.31724  1.0000
  C   C516      1.0  0.17521  0.65069  0.31835  1.0000
  S   S135      1.0  0.26479  0.57155  0.31837  1.0000
  C   C517      1.0  0.17758  0.73537  0.26528  1.0000
  H   H621      1.0  0.23189  0.73566  0.21369  1.0000
  Fe  Fe68      1.0  0.28471  0.65472  0.56236  1.0000
  S   S136      1.0  0.26232  0.66303  0.58302  1.0000
  S   S137      1.0  0.28421  0.65661  0.53445  1.0000
  Fe  Fe69      1.0  0.30992  0.64263  0.58654  1.0000
  S   S138      1.0  0.28984  0.64926  0.60962  1.0000
  S   S139      1.0  0.33769  0.63085  0.58764  1.0000
  Fe  Fe70      1.0  0.27275  0.63822  0.59961  1.0000
  N   N36       1.0  0.33503  0.54559  0.41836  1.0000
  Fe  Fe71      1.0  0.28108  0.67350  0.59138  1.0000
  S   S140      1.0  0.27401  0.69971  0.59813  1.0000
  S   S141      1.0  0.29371  0.62897  0.57834  1.0000
  S   S142      1.0  0.30256  0.66779  0.56890  1.0000
  Fe  Fe72      1.0  0.25358  0.60876  0.48614  1.0000
  S   S143      1.0  0.25069  0.63418  0.46754  1.0000
  S   S144      1.0  0.24576  0.60879  0.51475  1.0000
  Fe  Fe73      1.0  0.26903  0.58843  0.45742  1.0000
  S   S145      1.0  0.26771  0.61219  0.43658  1.0000
  S   S146      1.0  0.28192  0.56350  0.44862  1.0000
  Fe  Fe74      1.0  0.27714  0.62344  0.45387  1.0000
  S   S147      1.0  0.29701  0.63997  0.44282  1.0000
  Fe  Fe75      1.0  0.24147  0.62061  0.45210  1.0000
  S   S148      1.0  0.21979  0.63207  0.43784  1.0000
  S   S149      1.0  0.28086  0.59894  0.47356  1.0000
  S   S150      1.0  0.24188  0.59586  0.47186  1.0000
  Fe  Fe76      1.0  0.27164  0.55029  0.34043  1.0000
  S   S151      1.0  0.29771  0.53272  0.33701  1.0000
  H   H622      1.0  0.45240  0.57996  0.36523  1.0000
  Fe  Fe77      1.0  0.26218  0.53548  0.37870  1.0000
  S   S152      1.0  0.28710  0.51648  0.37833  1.0000
  S   S153      1.0  0.24436  0.53679  0.40461  1.0000
  Fe  Fe78      1.0  0.29919  0.53844  0.36199  1.0000
  S   S154      1.0  0.32066  0.54411  0.37083  1.0000
  Fe  Fe79      1.0  0.28307  0.51241  0.35359  1.0000
  S   S155      1.0  0.27445  0.55782  0.36386  1.0000
  S   S156      1.0  0.25677  0.52960  0.35532  1.0000
  Fe  Fe80      1.0  0.23599  0.68603  0.35003  1.0000
  S   S157      1.0  0.25011  0.66070  0.34329  1.0000
  S   S158      1.0  0.23901  0.69144  0.37457  1.0000
  H   H623      1.0  0.25676  0.65614  0.49028  1.0000
  H   H624      1.0  0.28128  0.58561  0.56836  1.0000
  H   H625      1.0  0.37277  0.58622  0.63517  1.0000
  H   H626      1.0  0.16184  0.65549  0.32510  1.0000
  S   S159      1.0  0.21485  0.63675  0.34381  1.0000
  H   H627      1.0  0.24082  0.72258  0.44144  1.0000
  C   C518      1.0  0.26081  0.68118  0.44028  1.0000
  S   S160      1.0  0.21121  0.68460  0.34423  1.0000
  H   H628      1.0  0.26593  0.72909  0.61324  1.0000
  C   C519      1.0  0.25267  0.66795  0.49584  1.0000
  C   C520      1.0  0.26146  0.59008  0.63707  1.0000
  H   H629      1.0  0.48873  0.70508  0.40682  1.0000
  C   C521      1.0  0.32728  0.61436  0.63606  1.0000
  C   C522      1.0  0.25269  0.56048  0.59775  1.0000
  Fe  Fe81      1.0  0.48034  0.65620  0.38413  1.0000
  S   S161      1.0  0.45154  0.66344  0.38582  1.0000
  C   C523      1.0  0.27122  0.58863  0.56050  1.0000
  Fe  Fe82      1.0  0.37006  0.61184  0.33576  1.0000
  S   S162      1.0  0.34800  0.62101  0.35617  1.0000
  H   H630      1.0  0.30864  0.62186  0.34095  1.0000
  Fe  Fe83      1.0  0.39496  0.62815  0.34555  1.0000
  S   S163      1.0  0.37483  0.63836  0.36693  1.0000
  S   S164      1.0  0.42214  0.63303  0.33766  1.0000
  Fe  Fe84      1.0  0.36746  0.61266  0.37311  1.0000
  S   S165      1.0  0.36095  0.59702  0.39985  1.0000
  Fe  Fe85      1.0  0.35753  0.64568  0.34777  1.0000
  S   S166      1.0  0.33913  0.67113  0.34457  1.0000
  S   S167      1.0  0.38902  0.60158  0.35332  1.0000
  H   H631      1.0  0.17157  0.60996  0.38761  1.0000
  H   H632      1.0  0.33325  0.57270  0.40699  1.0000
  C   C524      1.0  0.32458  0.58993  0.59114  1.0000
  C   C525      1.0  0.28039  0.57643  0.60814  1.0000
  C   C526      1.0  0.24767  0.57970  0.55465  1.0000
  C   C527      1.0  0.44331  0.65539  0.37218  1.0000
  C   C528      1.0  0.42614  0.65326  0.37685  1.0000
  C   C529      1.0  0.41949  0.64637  0.36640  1.0000
  C   C530      1.0  0.42989  0.64184  0.35109  1.0000
  C   C531      1.0  0.44690  0.64443  0.34619  1.0000
  C   C532      1.0  0.45362  0.65114  0.35673  1.0000
  H   H633      1.0  0.41807  0.65662  0.38874  1.0000
  H   H634      1.0  0.40642  0.64437  0.37039  1.0000
  H   H635      1.0  0.46675  0.65307  0.35282  1.0000
  H   H636      1.0  0.24616  0.54978  0.62504  1.0000
  H   H637      1.0  0.24671  0.71402  0.47047  1.0000
  H   H638      1.0  0.26467  0.67207  0.43173  1.0000
  H   H639      1.0  0.19327  0.66723  0.32905  1.0000
  S   S168      1.0  0.49156  0.62995  0.39787  1.0000
  C   C533      1.0  0.32453  0.70162  0.63958  1.0000
  H   H640      1.0  0.37925  0.68053  0.35086  1.0000
  C   C534      1.0  0.25090  0.57531  0.58424  1.0000
  C   C535      1.0  0.30810  0.68205  0.33430  1.0000
  H   H641      1.0  0.39357  0.69889  0.35447  1.0000
  H   H642      1.0  0.27781  0.58968  0.54661  1.0000
  H   H643      1.0  0.25260  0.50004  0.39130  1.0000
  C   C536      1.0  0.32840  0.71584  0.60353  1.0000
  C   C537      1.0  0.33349  0.55778  0.35591  1.0000
  C   C538      1.0  0.33479  0.56030  0.33804  1.0000
  C   C539      1.0  0.34511  0.57153  0.32659  1.0000
  C   C540      1.0  0.35377  0.58048  0.33306  1.0000
  C   C541      1.0  0.35268  0.57762  0.35088  1.0000
  C   C542      1.0  0.34263  0.56633  0.36220  1.0000
  H   H644      1.0  0.32800  0.55352  0.33306  1.0000
  C   C543      1.0  0.30726  0.59687  0.62650  1.0000
  H   H645      1.0  0.35954  0.58417  0.35602  1.0000
  H   H646      1.0  0.34184  0.56443  0.37588  1.0000
  C   C544      1.0  0.32959  0.56533  0.61391  1.0000
  H   H647      1.0  0.29904  0.59038  0.62322  1.0000
  H   H648      1.0  0.31669  0.64391  0.38812  1.0000
  C   C545      1.0  0.32815  0.65920  0.32153  1.0000
  C   C546      1.0  0.22796  0.60224  0.34683  1.0000
  C   C547      1.0  0.23917  0.58770  0.34139  1.0000
  H   H649      1.0  0.22712  0.57666  0.63232  1.0000
  H   H650      1.0  0.40161  0.60199  0.38887  1.0000
  C   C548      1.0  0.27925  0.56594  0.62468  1.0000
  H   H651      1.0  0.22740  0.65238  0.62449  1.0000
  C   C549      1.0  0.22906  0.61873  0.33688  1.0000
  C   C550      1.0  0.27073  0.55676  0.43658  1.0000
  C   C551      1.0  0.25397  0.55371  0.44335  1.0000
  C   C552      1.0  0.24593  0.54712  0.43378  1.0000
  C   C553      1.0  0.25458  0.54380  0.41738  1.0000
  C   C554      1.0  0.27129  0.54685  0.41077  1.0000
  C   C555      1.0  0.27925  0.55339  0.42025  1.0000
  H   H652      1.0  0.24735  0.55614  0.45606  1.0000
  H   H653      1.0  0.23299  0.54476  0.43901  1.0000
  H   H654      1.0  0.27825  0.54412  0.39833  1.0000
  H   H655      1.0  0.29201  0.55591  0.41480  1.0000
  C   C556      1.0  0.31574  0.62797  0.43214  1.0000
  C   C557      1.0  0.32821  0.63628  0.42018  1.0000
  C   C558      1.0  0.34216  0.62683  0.41017  1.0000
  C   C559      1.0  0.34411  0.60897  0.41277  1.0000
  C   C560      1.0  0.33220  0.60060  0.42547  1.0000
  C   C561      1.0  0.31778  0.61012  0.43477  1.0000
  H   H656      1.0  0.32693  0.65004  0.41837  1.0000
  H   H657      1.0  0.35151  0.63334  0.40067  1.0000
  H   H658      1.0  0.33388  0.58681  0.42794  1.0000
  H   H659      1.0  0.30831  0.60358  0.44404  1.0000
  C   C562      1.0  0.22405  0.64966  0.42111  1.0000
  C   C563      1.0  0.23683  0.65836  0.42078  1.0000
  C   C564      1.0  0.24094  0.67163  0.40668  1.0000
  C   C565      1.0  0.23273  0.67577  0.39264  1.0000
  C   C566      1.0  0.21995  0.66706  0.39297  1.0000
  C   C567      1.0  0.21530  0.65433  0.40741  1.0000
  H   H660      1.0  0.24352  0.65483  0.43140  1.0000
  H   H661      1.0  0.25083  0.67836  0.40637  1.0000
  H   H662      1.0  0.21342  0.67035  0.38225  1.0000
  H   H663      1.0  0.20524  0.64777  0.40777  1.0000
  H   H664      1.0  0.23853  0.57070  0.55899  1.0000
  C   C568      1.0  0.36402  0.55070  0.40055  1.0000
  C   C569      1.0  0.26972  0.68704  0.63361  1.0000
  C   C570      1.0  0.37408  0.58011  0.64829  1.0000
  H   H665      1.0  0.26600  0.70535  0.48992  1.0000
  H   H666      1.0  0.26428  0.54830  0.56665  1.0000
  C   C571      1.0  0.34562  0.64077  0.59983  1.0000
  C   C572      1.0  0.25867  0.69492  0.49646  1.0000
  C   C573      1.0  0.23102  0.59082  0.60601  1.0000
  C   C574      1.0  0.33653  0.65655  0.60394  1.0000
  C   C575      1.0  0.27175  0.55873  0.56341  1.0000
  C   C576      1.0  0.23118  0.68453  0.62494  1.0000
  H   H667      1.0  0.32473  0.66284  0.59939  1.0000
  H   H668      1.0  0.18683  0.63423  0.37995  1.0000
  C   C577      1.0  0.27477  0.64130  0.53059  1.0000
  C   C578      1.0  0.28153  0.63482  0.51539  1.0000
  C   C579      1.0  0.27275  0.62470  0.51059  1.0000
  C   C580      1.0  0.25718  0.62093  0.52101  1.0000
  C   C581      1.0  0.25061  0.62704  0.53647  1.0000
  C   C582      1.0  0.25946  0.63712  0.54133  1.0000
  H   H669      1.0  0.29347  0.63785  0.50714  1.0000
  H   H670      1.0  0.27797  0.62000  0.49870  1.0000
  H   H671      1.0  0.23844  0.62439  0.54445  1.0000
  H   H672      1.0  0.25405  0.64231  0.55296  1.0000
  C   C583      1.0  0.38598  0.67472  0.33942  1.0000
  Fe  Fe86      1.0  0.30385  0.53859  0.64944  1.0000
  H   H673      1.0  0.25763  0.49641  0.33856  1.0000
  H   H674      1.0  0.35137  0.70472  0.63500  1.0000
  C   C584      1.0  0.42211  0.60957  0.39541  1.0000
  H   H675      1.0  0.45495  0.64115  0.33425  1.0000
  H   H676      1.0  0.35413  0.71687  0.60441  1.0000
  H   H677      1.0  0.31567  0.56501  0.61759  1.0000
  C   C585      1.0  0.24399  0.56101  0.61482  1.0000
  C   C586      1.0  0.34011  0.70669  0.62959  1.0000
  H   H678      1.0  0.32832  0.54855  0.44501  1.0000
  C   C587      1.0  0.45176  0.59710  0.38232  1.0000
  H   H679      1.0  0.47903  0.58645  0.35601  1.0000
  H   H680      1.0  0.27867  0.55937  0.54966  1.0000
  C   C588      1.0  0.33990  0.54620  0.43451  1.0000
  N   N37       1.0  0.29062  0.65140  0.38378  1.0000
  C   C589      1.0  0.28366  0.64011  0.40007  1.0000
  C   C590      1.0  0.28165  0.65064  0.37037  1.0000
  C   C591      1.0  0.30920  0.64423  0.37839  1.0000
  C   C592      1.0  0.28851  0.66909  0.38649  1.0000
  C   C593      1.0  0.29445  0.67189  0.40024  1.0000
  C   C594      1.0  0.28100  0.68397  0.37550  1.0000
  C   C595      1.0  0.29255  0.68841  0.40314  1.0000
  C   C596      1.0  0.27900  0.70045  0.37858  1.0000
  C   C597      1.0  0.28474  0.70268  0.39238  1.0000
  H   H681      1.0  0.27007  0.64567  0.40539  1.0000
  H   H682      1.0  0.28412  0.62703  0.39818  1.0000
  H   H683      1.0  0.29112  0.63802  0.41028  1.0000
  H   H684      1.0  0.26763  0.65643  0.37357  1.0000
  H   H685      1.0  0.28274  0.63720  0.36911  1.0000
  H   H686      1.0  0.28730  0.65753  0.35733  1.0000
  C   C598      1.0  0.31103  0.70406  0.63065  1.0000
  H   H687      1.0  0.31148  0.63083  0.37645  1.0000
  H   H688      1.0  0.31492  0.65216  0.36609  1.0000
  H   H689      1.0  0.30065  0.66129  0.40886  1.0000
  H   H690      1.0  0.27629  0.68330  0.36452  1.0000
  H   H691      1.0  0.29713  0.69007  0.41386  1.0000
  H   H692      1.0  0.27261  0.67433  0.63084  1.0000
  H   H693      1.0  0.28315  0.71548  0.39469  1.0000
  H   H694      1.0  0.41683  0.70255  0.36610  1.0000
  H   H695      1.0  0.47285  0.72813  0.64570  1.0000
  C   C599      1.0  0.43995  0.60803  0.39296  1.0000
  H   H696      1.0  0.23675  0.67649  0.61546  1.0000
  H   H697      1.0  0.27044  0.66269  0.46077  1.0000
  C   C600      1.0  0.26319  0.60074  0.62061  1.0000
  N   N38       1.0  0.26028  0.57545  0.56609  1.0000
  C   C601      1.0  0.32336  0.53311  0.42312  1.0000
  H   H698      1.0  0.33020  0.51982  0.42777  1.0000
  C   C602      1.0  0.32422  0.67088  0.33251  1.0000
  H   H699      1.0  0.24956  0.70191  0.42182  1.0000
  H   H700      1.0  0.36813  0.62063  0.60237  1.0000
  H   H701      1.0  0.25416  0.57905  0.54097  1.0000
  S   S169      1.0  0.37809  0.63738  0.32580  1.0000
  C   C603      1.0  0.23956  0.59042  0.58888  1.0000
  Fe  Fe87      1.0  0.22616  0.66053  0.33507  1.0000
  H   H702      1.0  0.31404  0.56732  0.42171  1.0000
  S   S170      1.0  0.25427  0.62272  0.61836  1.0000
  H   H703      1.0  0.25387  0.66380  0.50964  1.0000
  H   H704      1.0  0.26371  0.60170  0.56181  1.0000
  C   C604      1.0  0.44455  0.58819  0.37394  1.0000
  C   C605      1.0  0.25096  0.58959  0.32558  1.0000
  H   H705      1.0  0.31209  0.53640  0.43363  1.0000
  N   N39       1.0  0.22774  0.65848  0.64878  1.0000
  H   H706      1.0  0.32222  0.60136  0.33839  1.0000
  H   H707      1.0  0.37896  0.63432  0.62031  1.0000
  H   H708      1.0  0.30508  0.69117  0.34270  1.0000
  H   H709      1.0  0.28184  0.55492  0.57137  1.0000
  C   C606      1.0  0.36098  0.63278  0.60567  1.0000
  H   H710      1.0  0.26118  0.54844  0.59568  1.0000
  H   H711      1.0  0.38537  0.59993  0.65144  1.0000
  S   S171      1.0  0.33097  0.52362  0.64561  1.0000
  C   C607      1.0  0.24925  0.48888  0.38831  1.0000
  H   H712      1.0  0.24460  0.70050  0.49884  1.0000
  C   C608      1.0  0.25096  0.70444  0.46251  1.0000
  C   C609      1.0  0.35821  0.65652  0.61951  1.0000
  C   C610      1.0  0.35169  0.58166  0.60007  1.0000
  H   H713      1.0  0.17265  0.68038  0.32745  1.0000
  H   H714      1.0  0.42142  0.58329  0.36964  1.0000
  C   C611      1.0  0.47501  0.61264  0.37095  1.0000
  H   H715      1.0  0.31046  0.59056  0.59457  1.0000
  H   H716      1.0  0.22056  0.63725  0.64298  1.0000
  H   H717      1.0  0.31775  0.53312  0.41201  1.0000
  H   H718      1.0  0.21844  0.60068  0.35876  1.0000
  H   H719      1.0  0.22303  0.60271  0.60936  1.0000
  H   H720      1.0  0.29901  0.70010  0.63722  1.0000
  C   C612      1.0  0.47572  0.59080  0.39701  1.0000
  C   C613      1.0  0.36710  0.64049  0.61584  1.0000
  H   H721      1.0  0.34838  0.53390  0.43932  1.0000
  C   C614      1.0  0.41983  0.69802  0.35407  1.0000
  C   C615      1.0  0.32513  0.56276  0.41164  1.0000
  N   N40       1.0  0.47060  0.59574  0.37993  1.0000
  H   H722      1.0  0.29684  0.58791  0.34664  1.0000
  C   C616      1.0  0.41029  0.68890  0.33216  1.0000
  H   H723      1.0  0.28558  0.66126  0.48039  1.0000
  C   C617      1.0  0.42667  0.58997  0.37637  1.0000
  C   C618      1.0  0.24122  0.62066  0.32134  1.0000
  C   C619      1.0  0.28968  0.60024  0.33999  1.0000
  C   C620      1.0  0.43697  0.69406  0.34562  1.0000
  H   H724      1.0  0.32661  0.60318  0.58500  1.0000
  H   H725      1.0  0.47002  0.60085  0.40492  1.0000
  H   H726      1.0  0.46830  0.62288  0.37842  1.0000
  H   H727      1.0  0.28989  0.68245  0.47681  1.0000
  S   S172      1.0  0.36614  0.66728  0.63090  1.0000
  H   H728      1.0  0.28412  0.63346  0.32609  1.0000
  H   H729      1.0  0.28567  0.61044  0.64254  1.0000
  H   H730      1.0  0.34890  0.60111  0.62076  1.0000
  H   H731      1.0  0.47143  0.61674  0.35803  1.0000
  H   H732      1.0  0.30261  0.71240  0.60631  1.0000
  C   C621      1.0  0.21969  0.70665  0.64830  1.0000
  C   C622      1.0  0.33513  0.60264  0.62515  1.0000
  C   C623      1.0  0.31452  0.61314  0.33164  1.0000
  H   H733      1.0  0.27874  0.59748  0.33606  1.0000
  H   H734      1.0  0.34060  0.65059  0.32001  1.0000
  H   H735      1.0  0.28509  0.67002  0.49832  1.0000
  N   N41       1.0  0.33278  0.58297  0.60641  1.0000
  H   H736      1.0  0.43460  0.68341  0.64752  1.0000
  H   H737      1.0  0.47864  0.56977  0.37553  1.0000
  H   H738      1.0  0.33616  0.67695  0.61622  1.0000
  H   H739      1.0  0.41336  0.61814  0.40345  1.0000
  H   H740      1.0  0.20651  0.65790  0.63798  1.0000
  H   H741      1.0  0.44439  0.61581  0.39917  1.0000
  C   C624      1.0  0.24750  0.70956  0.44579  1.0000
  C   C625      1.0  0.23329  0.57617  0.61896  1.0000
  H   H742      1.0  0.28326  0.68979  0.32700  1.0000
  H   H743      1.0  0.35878  0.57593  0.61082  1.0000
  H   H744      1.0  0.32999  0.58195  0.58109  1.0000
  C   C626      1.0  0.48127  0.58289  0.36949  1.0000
  C   C627      1.0  0.26421  0.67592  0.45695  1.0000
  H   H745      1.0  0.35700  0.57329  0.59036  1.0000
  H   H746      1.0  0.26201  0.68980  0.50952  1.0000
  H   H747      1.0  0.32383  0.61978  0.32133  1.0000
  H   H748      1.0  0.28383  0.60850  0.34975  1.0000
  C   C628      1.0  0.26227  0.72002  0.64085  1.0000
  H   H749      1.0  0.33560  0.55644  0.60477  1.0000
  C   C629      1.0  0.26969  0.70146  0.61998  1.0000
  H   H750      1.0  0.31989  0.56244  0.40042  1.0000
  C   C630      1.0  0.26595  0.71791  0.62370  1.0000
  H   H751      1.0  0.33493  0.55978  0.62574  1.0000
  C   C631      1.0  0.35064  0.54120  0.40505  1.0000
  C   C632      1.0  0.35241  0.52859  0.39518  1.0000
  C   C633      1.0  0.36654  0.52595  0.38157  1.0000
  C   C634      1.0  0.37807  0.54798  0.38691  1.0000
  C   C635      1.0  0.37930  0.53567  0.37739  1.0000
  H   H752      1.0  0.34675  0.55681  0.43276  1.0000
  H   H753      1.0  0.34266  0.52114  0.39713  1.0000
  H   H754      1.0  0.36723  0.51677  0.37379  1.0000
  H   H755      1.0  0.38773  0.55590  0.38338  1.0000
  H   H756      1.0  0.38994  0.53395  0.36649  1.0000
  N   N42       1.0  0.23612  0.59887  0.39888  1.0000
  C   C636      1.0  0.23573  0.59216  0.41762  1.0000
  C   C637      1.0  0.24756  0.58591  0.38905  1.0000
  C   C638      1.0  0.24399  0.61435  0.39366  1.0000
  C   C639      1.0  0.21843  0.60223  0.39568  1.0000
  C   C640      1.0  0.20932  0.58858  0.39983  1.0000
  C   C641      1.0  0.20975  0.61883  0.38850  1.0000
  C   C642      1.0  0.19262  0.59139  0.39695  1.0000
  C   C643      1.0  0.19303  0.62148  0.38570  1.0000
  C   C644      1.0  0.18448  0.60782  0.38991  1.0000
  H   H757      1.0  0.23109  0.57988  0.42237  1.0000
  H   H758      1.0  0.24871  0.58969  0.42077  1.0000
  H   H759      1.0  0.22688  0.60140  0.42545  1.0000
  H   H760      1.0  0.24323  0.57344  0.39291  1.0000
  H   H761      1.0  0.26099  0.58294  0.39120  1.0000
  H   H762      1.0  0.24793  0.59043  0.37491  1.0000
  H   H763      1.0  0.25725  0.61130  0.39626  1.0000
  H   H764      1.0  0.24487  0.62001  0.37960  1.0000
  H   H765      1.0  0.23643  0.62430  0.40119  1.0000
  H   H766      1.0  0.21510  0.57557  0.40531  1.0000
  H   H767      1.0  0.21564  0.62998  0.38465  1.0000
  H   H768      1.0  0.18598  0.58073  0.40019  1.0000
  H   H769      1.0  0.27361  0.60208  0.59339  1.0000
  H   H770      1.0  0.23752  0.60220  0.57934  1.0000
  H   H771      1.0  0.29660  0.57618  0.32346  1.0000
  H   H772      1.0  0.23833  0.57498  0.34915  1.0000
  H   H773      1.0  0.32998  0.72089  0.58971  1.0000
  H   H774      1.0  0.25951  0.73281  0.64354  1.0000
  N   N43       1.0  0.26303  0.68118  0.48626  1.0000
  H   H775      1.0  0.28775  0.57110  0.59701  1.0000
  H   H776      1.0  0.25529  0.48872  0.37448  1.0000
  H   H777      1.0  0.39454  0.66240  0.34397  1.0000
  H   H778      1.0  0.23988  0.59297  0.55423  1.0000
  C   C645      1.0  0.31297  0.71107  0.61292  1.0000
  H   H779      1.0  0.33507  0.62155  0.63928  1.0000
  C   C646      1.0  0.28165  0.67342  0.48535  1.0000
  H   H780      1.0  0.36335  0.56091  0.40700  1.0000
  C   C647      1.0  0.27256  0.59391  0.60612  1.0000
  H   H781      1.0  0.35491  0.59451  0.59371  1.0000
  C   C648      1.0  0.25951  0.68737  0.46856  1.0000
  C   C649      1.0  0.25240  0.69796  0.43470  1.0000
  H   H782      1.0  0.23872  0.67288  0.49566  1.0000
  C   C650      1.0  0.34298  0.66453  0.61352  1.0000
  C   C651      1.0  0.26982  0.57274  0.63916  1.0000
  C   C652      1.0  0.41547  0.60056  0.38713  1.0000
  C   C653      1.0  0.40665  0.69567  0.34740  1.0000
  H   H783      1.0  0.45615  0.59196  0.64634  1.0000
  H   H784      1.0  0.47164  0.57864  0.40465  1.0000
  H   H785      1.0  0.47636  0.71529  0.43352  1.0000
  C   C654      1.0  0.32522  0.59403  0.61944  1.0000
  C   C655      1.0  0.42794  0.68507  0.32380  1.0000
  H   H786      1.0  0.27276  0.71151  0.37023  1.0000
  H   H787      1.0  0.46401  0.68771  0.63894  1.0000
  C   C656      1.0  0.23002  0.70225  0.61900  1.0000
  S   S173      1.0  0.24508  0.70174  0.32393  1.0000
  S   S174      1.0  0.29044  0.54461  0.62711  1.0000
  H   H788      1.0  0.48996  0.58884  0.39558  1.0000
  C   C657      1.0  0.34193  0.71366  0.61184  1.0000
  H   H789      1.0  0.47661  0.70670  0.45596  1.0000
  H   H790      1.0  0.45440  0.68429  0.32418  1.0000
  H   H791      1.0  0.47971  0.68602  0.43006  1.0000
  H   H792      1.0  0.48904  0.61228  0.36880  1.0000
  H   H793      1.0  0.23449  0.70734  0.60537  1.0000
  C   C658      1.0  0.22433  0.71329  0.63066  1.0000
  C   C659      1.0  0.24628  0.65038  0.64717  1.0000
  C   C660      1.0  0.30949  0.61728  0.64222  1.0000
  C   C661      1.0  0.29576  0.68128  0.32542  1.0000
  H   H794      1.0  0.49094  0.72087  0.44330  1.0000
  N   N44       1.0  0.39609  0.68607  0.32566  1.0000
  H   H795      1.0  0.18263  0.64284  0.32843  1.0000
  H   H796      1.0  0.25350  0.65291  0.63355  1.0000
  N   N45       1.0  0.30129  0.60876  0.32488  1.0000
  H   H797      1.0  0.37831  0.70909  0.33200  1.0000
  H   H798      1.0  0.37569  0.67162  0.33475  1.0000
  C   C662      1.0  0.44099  0.68775  0.33045  1.0000
  H   H799      1.0  0.25408  0.59531  0.64826  1.0000
  H   H800      1.0  0.22420  0.72692  0.62605  1.0000
  C   C663      1.0  0.38446  0.70276  0.32077  1.0000
  H   H801      1.0  0.23497  0.49179  0.38983  1.0000
  H   H802      1.0  0.48322  0.67553  0.45113  1.0000
  C   C664      1.0  0.48498  0.71016  0.44301  1.0000
  C   C665      1.0  0.29953  0.60827  0.63772  1.0000
  C   C666      1.0  0.49122  0.69673  0.63998  1.0000
  H   H803      1.0  0.30337  0.62665  0.65032  1.0000
  C   C667      1.0  0.22015  0.65131  0.63811  1.0000
  C   C668      1.0  0.48978  0.68140  0.43801  1.0000
  C   C669      1.0  0.22609  0.67734  0.64277  1.0000
  H   H804      1.0  0.44719  0.69538  0.35115  1.0000
  S   S175      1.0  0.40465  0.62938  0.64906  1.0000
  S   S176      1.0  0.35920  0.55557  0.64425  1.0000
  H   H805      1.0  0.48503  0.70432  0.62899  1.0000
  Fe  Fe88      1.0  0.38155  0.65104  0.65047  1.0000
  C   C670      1.0  0.26585  0.68916  0.65089  1.0000
  H   H806      1.0  0.24823  0.63612  0.65160  1.0000
  H   H807      1.0  0.26894  0.56462  0.65196  1.0000
  C   C671      1.0  0.45652  0.69149  0.65081  1.0000
  S   S177      1.0  0.36448  0.59648  0.31929  1.0000
  H   H808      1.0  0.49264  0.68274  0.64048  1.0000
  H   H809      1.0  0.46188  0.60942  0.65168  1.0000
  H   H810      1.0  0.47645  0.58895  0.65210  1.0000
  C   C672      1.0  0.18531  0.67527  0.31959  1.0000
  C   C673      1.0  0.42895  0.69295  0.67095  1.0000
  C   C674      1.0  0.46265  0.59522  0.65519  1.0000
  Fe  Fe89      1.0  0.30382  0.54208  0.68550  1.0000
  S   S178      1.0  0.28911  0.55311  0.70899  1.0000
  C   C675      1.0  0.18381  0.72406  0.73263  1.0000
  C   C676      1.0  0.48119  0.64645  0.67667  1.0000
  H   H811      1.0  0.06352  0.73697  0.81064  1.0000
  S   S179      1.0  0.29515  0.52302  0.67575  1.0000
  Fe  Fe90      1.0  0.25595  0.68536  0.69659  1.0000
  S   S180      1.0  0.23242  0.67403  0.70268  1.0000
  S   S181      1.0  0.25786  0.70901  0.67577  1.0000
  Fe  Fe91      1.0  0.27125  0.65966  0.72537  1.0000
  S   S182      1.0  0.24913  0.64589  0.73340  1.0000
  S   S183      1.0  0.29043  0.65139  0.74270  1.0000
  Fe  Fe92      1.0  0.25135  0.64883  0.70491  1.0000
  S   S184      1.0  0.24987  0.63002  0.68985  1.0000
  Fe  Fe93      1.0  0.23263  0.67247  0.73052  1.0000
  S   S185      1.0  0.20880  0.67797  0.75125  1.0000
  S   S186      1.0  0.27504  0.66035  0.69698  1.0000
  S   S187      1.0  0.25466  0.68608  0.72417  1.0000
  H   H812      1.0  0.35494  0.60322  0.69226  1.0000
  H   H813      1.0  0.22975  0.64620  0.79996  1.0000
  C   C677      1.0  0.32193  0.61230  0.73387  1.0000
  C   C678      1.0  0.26214  0.70571  0.65449  1.0000
  H   H814      1.0  0.20503  0.65949  0.66926  1.0000
  H   H815      1.0  0.30174  0.60237  0.68006  1.0000
  C   C679      1.0  0.34520  0.60567  0.70356  1.0000
  H   H816      1.0  0.21597  0.71520  0.65739  1.0000
  S   S188      1.0  0.15349  0.73584  0.81725  1.0000
  H   H817      1.0  0.04785  0.72033  0.94087  1.0000
  H   H818      1.0  0.36324  0.61410  0.71318  1.0000
  Fe  Fe94      1.0  0.37995  0.65162  0.68746  1.0000
  S   S189      1.0  0.40304  0.63033  0.68988  1.0000
  S   S190      1.0  0.36585  0.66452  0.70966  1.0000
  Fe  Fe95      1.0  0.41484  0.64339  0.66346  1.0000
  H   H819      1.0  0.48387  0.61325  0.71324  1.0000
  Fe  Fe96      1.0  0.39147  0.61767  0.67554  1.0000
  S   S191      1.0  0.39227  0.58942  0.68597  1.0000
  C   C680      1.0  0.20939  0.72936  0.71103  1.0000
  S   S192      1.0  0.36721  0.63783  0.67548  1.0000
  C   C681      1.0  0.47232  0.65255  0.69171  1.0000
  C   C682      1.0  0.45424  0.65524  0.69586  1.0000
  C   C683      1.0  0.44511  0.65204  0.68491  1.0000
  C   C684      1.0  0.45405  0.64656  0.66956  1.0000
  H   H820      1.0  0.17635  0.71464  0.74054  1.0000
  C   C685      1.0  0.45225  0.60633  0.69714  1.0000
  H   H821      1.0  0.44727  0.65987  0.70752  1.0000
  H   H822      1.0  0.43116  0.65424  0.68813  1.0000
  H   H823      1.0  0.24240  0.69629  0.83470  1.0000
  H   H824      1.0  0.30513  0.69761  0.68243  1.0000
  C   C686      1.0  0.47209  0.64369  0.66553  1.0000
  C   C687      1.0  0.23294  0.69379  0.81337  1.0000
  H   H825      1.0  0.36622  0.54458  0.67898  1.0000
  C   C688      1.0  0.20671  0.69466  0.76213  1.0000
  C   C689      1.0  0.19413  0.69580  0.77736  1.0000
  C   C690      1.0  0.19260  0.70861  0.78664  1.0000
  C   C691      1.0  0.09130  0.73437  0.83634  1.0000
  C   C692      1.0  0.21618  0.71923  0.76543  1.0000
  C   C693      1.0  0.21754  0.70659  0.75607  1.0000
  H   H826      1.0  0.18567  0.68663  0.78212  1.0000
  H   H827      1.0  0.33855  0.60776  0.67075  1.0000
  C   C694      1.0  0.45236  0.70198  0.67710  1.0000
  H   H828      1.0  0.22699  0.70613  0.74416  1.0000
  C   C695      1.0  0.31100  0.65577  0.73290  1.0000
  C   C696      1.0  0.31771  0.65598  0.71527  1.0000
  C   C697      1.0  0.33469  0.65837  0.70805  1.0000
  C   C698      1.0  0.34472  0.66110  0.71832  1.0000
  C   C699      1.0  0.33779  0.66127  0.73583  1.0000
  C   C700      1.0  0.32109  0.65831  0.74317  1.0000
  H   H829      1.0  0.31007  0.65367  0.70739  1.0000
  H   H830      1.0  0.33997  0.65819  0.69457  1.0000
  H   H831      1.0  0.34549  0.66340  0.74380  1.0000
  H   H832      1.0  0.31596  0.65809  0.75681  1.0000
  H   H833      1.0  0.30385  0.60357  0.72526  1.0000
  H   H834      1.0  0.30864  0.67489  0.65619  1.0000
  N   N46       1.0  0.32249  0.59604  0.69389  1.0000
  H   H835      1.0  0.43840  0.61028  0.69888  1.0000
  C   C701      1.0  0.43949  0.68902  0.65554  1.0000
  H   H836      1.0  0.22001  0.63916  0.67112  1.0000
  C   C702      1.0  0.37042  0.55662  0.67298  1.0000
  C   C703      1.0  0.37825  0.56405  0.68194  1.0000
  C   C704      1.0  0.38352  0.57975  0.67425  1.0000
  H   H837      1.0  0.49205  0.67738  0.67143  1.0000
  H   H838      1.0  0.45132  0.56562  0.67047  1.0000
  S   S193      1.0  0.20249  0.73622  0.79218  1.0000
  H   H839      1.0  0.26961  0.65341  0.81148  1.0000
  H   H840      1.0  0.22619  0.68873  0.79199  1.0000
  C   C705      1.0  0.20369  0.72031  0.78070  1.0000
  C   C706      1.0  0.27718  0.57414  0.70406  1.0000
  C   C707      1.0  0.27367  0.58101  0.68751  1.0000
  C   C708      1.0  0.26505  0.59813  0.68342  1.0000
  C   C709      1.0  0.26002  0.60850  0.69579  1.0000
  C   C710      1.0  0.26324  0.60162  0.71246  1.0000
  C   C711      1.0  0.27174  0.58439  0.71662  1.0000
  H   H841      1.0  0.27735  0.57307  0.67793  1.0000
  H   H842      1.0  0.26241  0.60339  0.67059  1.0000
  H   H843      1.0  0.25919  0.60953  0.72212  1.0000
  H   H844      1.0  0.27431  0.57906  0.72949  1.0000
  H   H845      1.0  0.30804  0.62065  0.68351  1.0000
  S   S194      1.0  0.33105  0.52712  0.68487  1.0000
  H   H846      1.0  0.16763  0.72422  0.76658  1.0000
  H   H847      1.0  0.25246  0.65525  0.65513  1.0000
  H   H848      1.0  0.30895  0.57821  0.71372  1.0000
  H   H849      1.0  0.22289  0.70531  0.81389  1.0000
  H   H850      1.0  0.29551  0.60780  0.70071  1.0000
  C   C712      1.0  0.48039  0.59210  0.68372  1.0000
  N   N47       1.0  0.48126  0.70146  0.65668  1.0000
  H   H851      1.0  0.43276  0.61084  0.67164  1.0000
  C   C713      1.0  0.49104  0.69136  0.67019  1.0000
  H   H852      1.0  0.26560  0.67031  0.83321  1.0000
  H   H853      1.0  0.09274  0.71361  0.87503  1.0000
  N   N48       1.0  0.45449  0.58990  0.67367  1.0000
  H   H854      1.0  0.26580  0.67805  0.66138  1.0000
  C   C714      1.0  0.33525  0.59502  0.67741  1.0000
  N   N49       1.0  0.25010  0.65971  0.78569  1.0000
  C   C715      1.0  0.23378  0.65420  0.78698  1.0000
  C   C716      1.0  0.25423  0.67112  0.76859  1.0000
  C   C717      1.0  0.26407  0.64408  0.78625  1.0000
  C   C718      1.0  0.24808  0.66926  0.79949  1.0000
  H   H855      1.0  0.33052  0.59016  0.66825  1.0000
  C   C719      1.0  0.47790  0.60820  0.70565  1.0000
  C   C720      1.0  0.04517  0.73243  0.93190  1.0000
  H   H856      1.0  0.45223  0.62012  0.71642  1.0000
  H   H857      1.0  0.21707  0.68471  0.66819  1.0000
  H   H858      1.0  0.22296  0.66526  0.78475  1.0000
  H   H859      1.0  0.23502  0.64660  0.77700  1.0000
  H   H860      1.0  0.09477  0.73028  0.81049  1.0000
  H   H861      1.0  0.26662  0.67532  0.76683  1.0000
  H   H862      1.0  0.24410  0.68285  0.76665  1.0000
  H   H863      1.0  0.25553  0.66446  0.75792  1.0000
  H   H864      1.0  0.26174  0.63470  0.79869  1.0000
  H   H865      1.0  0.26513  0.63728  0.77566  1.0000
  H   H866      1.0  0.27696  0.64739  0.78415  1.0000
  C   C721      1.0  0.25914  0.66446  0.81157  1.0000
  S   S195      1.0  0.39294  0.66618  0.66247  1.0000
  Fe  Fe97      1.0  0.32292  0.50946  0.67268  1.0000
  C   C722      1.0  0.33858  0.61531  0.73064  1.0000
  H   H867      1.0  0.34243  0.62052  0.73972  1.0000
  C   C723      1.0  0.43563  0.59657  0.67531  1.0000
  C   C724      1.0  0.22049  0.68896  0.65435  1.0000
  C   C725      1.0  0.45733  0.57086  0.67833  1.0000
  H   H868      1.0  0.22506  0.65675  0.67618  1.0000
  H   H869      1.0  0.29470  0.70241  0.66474  1.0000
  H   H870      1.0  0.47125  0.56476  0.67629  1.0000
  H   H871      1.0  0.48881  0.58426  0.67489  1.0000
  H   H872      1.0  0.11059  0.72307  0.86173  1.0000
  H   H873      1.0  0.33126  0.56972  0.70586  1.0000
  C   C726      1.0  0.30629  0.60722  0.68934  1.0000
  H   H874      1.0  0.31285  0.61515  0.74554  1.0000
  C   C727      1.0  0.31681  0.60597  0.72199  1.0000
  H   H875      1.0  0.34726  0.58580  0.67973  1.0000
  C   C728      1.0  0.23493  0.68420  0.80083  1.0000
  C   C729      1.0  0.35022  0.61187  0.71560  1.0000
  C   C730      1.0  0.24395  0.68875  0.82504  1.0000
  S   S196      1.0  0.48351  0.65714  0.70533  1.0000
  H   H876      1.0  0.30360  0.49221  0.65945  1.0000
  H   H877      1.0  0.22110  0.72463  0.70228  1.0000
  H   H878      1.0  0.37993  0.55779  0.69495  1.0000
  H   H879      1.0  0.31897  0.66872  0.67431  1.0000
  C   C731      1.0  0.48806  0.59816  0.69388  1.0000
  H   H880      1.0  0.42831  0.59244  0.68866  1.0000
  C   C732      1.0  0.32820  0.60276  0.70628  1.0000
  H   H881      1.0  0.48501  0.69433  0.68321  1.0000
  C   C733      1.0  0.32028  0.67549  0.66051  1.0000
  C   C734      1.0  0.30675  0.70299  0.66825  1.0000
  H   H882      1.0  0.14885  0.72901  0.74598  1.0000
  Fe  Fe98      1.0  0.33671  0.54257  0.65789  1.0000
  C   C735      1.0  0.33723  0.69288  0.66585  1.0000
  C   C736      1.0  0.03624  0.73362  0.91899  1.0000
  H   H883      1.0  0.31566  0.57260  0.69290  1.0000
  H   H884      1.0  0.10510  0.73211  0.83529  1.0000
  H   H885      1.0  0.10300  0.72601  0.88325  1.0000
  C   C737      1.0  0.31944  0.57844  0.70196  1.0000
  H   H886      1.0  0.45150  0.56648  0.69221  1.0000
  H   H887      1.0  0.30730  0.71682  0.66606  1.0000
  C   C738      1.0  0.46224  0.59623  0.68482  1.0000
  H   H888      1.0  0.34919  0.68449  0.66007  1.0000
  C   C739      1.0  0.25700  0.67411  0.82416  1.0000
  C   C740      1.0  0.46346  0.69819  0.66145  1.0000
  H   H889      1.0  0.33489  0.68754  0.68003  1.0000
  H   H890      1.0  0.18301  0.70928  0.79848  1.0000
  H   H891      1.0  0.06476  0.73367  0.88601  1.0000
  H   H892      1.0  0.47507  0.72411  0.66781  1.0000
  H   H893      1.0  0.33980  0.70597  0.66411  1.0000
  C   C741      1.0  0.46005  0.61209  0.70740  1.0000
  H   H894      1.0  0.42729  0.70196  0.69395  1.0000
  H   H895      1.0  0.20213  0.70470  0.72012  1.0000
  H   H896      1.0  0.47907  0.63920  0.65381  1.0000
  H   H897      1.0  0.22474  0.72831  0.76074  1.0000
  H   H898      1.0  0.43011  0.59182  0.66667  1.0000
  H   H899      1.0  0.03217  0.72240  0.91796  1.0000
  S   S197      1.0  0.31013  0.55895  0.65936  1.0000
  C   C742      1.0  0.48070  0.71998  0.65523  1.0000
  S   S198      1.0  0.44321  0.64371  0.65477  1.0000
  N   N50       1.0  0.32237  0.69344  0.65821  1.0000
  C   C743      1.0  0.43539  0.69935  0.68175  1.0000
  C   C744      1.0  0.38132  0.58783  0.65746  1.0000
  H   H900      1.0  0.45680  0.70676  0.68603  1.0000
  C   C745      1.0  0.08551  0.73333  0.82199  1.0000
  C   C746      1.0  0.09857  0.72523  0.87169  1.0000
  C   C747      1.0  0.21896  0.65338  0.66709  1.0000
  C   C748      1.0  0.19866  0.71817  0.72100  1.0000
  H   H901      1.0  0.41593  0.69052  0.67476  1.0000
  H   H902      1.0  0.33163  0.66798  0.65284  1.0000
  C   C749      1.0  0.36839  0.56465  0.65611  1.0000
  Fe  Fe99      1.0  0.12353  0.82775  0.04576  1.0000
  S   S199      1.0  0.09914  0.84164  0.06038  1.0000
  S   S200      1.0  0.12517  0.83104  0.01710  1.0000
  Fe  Fe100     1.0  0.13854  0.81263  0.07813  1.0000
  S   S201      1.0  0.11541  0.82501  0.09543  1.0000
  S   S202      1.0  0.16165  0.79565  0.08799  1.0000
  Fe  Fe101     1.0  0.10043  0.81719  0.08029  1.0000
  S   S203      1.0  0.07726  0.80572  0.09386  1.0000
  Fe  Fe102     1.0  0.11642  0.84826  0.07395  1.0000
  S   S204      1.0  0.11163  0.87448  0.08001  1.0000
  S   S205      1.0  0.12343  0.80261  0.06473  1.0000
  S   S206      1.0  0.14091  0.83658  0.05761  1.0000
  S   S207      1.0  0.00523  0.85564  0.18990  1.0000
  H   H903      1.0  0.02776  0.88142  0.19588  1.0000
  H   H904      1.0  0.24798  0.77242  0.22047  1.0000
  Fe  Fe103     1.0  0.13169  0.77580  0.21870  1.0000
  H   H905      1.0  0.08398  0.79867  0.05827  1.0000
  H   H906      1.0  0.07868  0.81506  0.13705  1.0000
  Fe  Fe104     1.0  0.13688  0.88853  0.15746  1.0000
  S   S208      1.0  0.12016  0.91474  0.15255  1.0000
  S   S209      1.0  0.14896  0.86928  0.14029  1.0000
  Fe  Fe105     1.0  0.13408  0.88865  0.19486  1.0000
  S   S210      1.0  0.11699  0.91495  0.19396  1.0000
  S   S211      1.0  0.14285  0.87046  0.21801  1.0000
  Fe  Fe106     1.0  0.10344  0.90605  0.17816  1.0000
  S   S212      1.0  0.07472  0.91320  0.18020  1.0000
  Fe  Fe107     1.0  0.13485  0.92208  0.16852  1.0000
  S   S213      1.0  0.14292  0.94776  0.15803  1.0000
  S   S214      1.0  0.11865  0.87909  0.18158  1.0000
  S   S215      1.0  0.15332  0.89663  0.17092  1.0000
  S   S216      1.0  0.01125  0.81944  0.21832  1.0000
  H   H907      1.0  0.09904  0.81684  0.14061  1.0000
  C   C750      1.0  0.07780  0.82836  0.25283  1.0000
  C   C751      1.0  0.07603  0.76971  0.21017  1.0000
  S   S217      1.0  0.15512  0.77341  0.22945  1.0000
  S   S218      1.0  0.15036  0.75192  0.16443  1.0000
  Fe  Fe108     1.0  0.16705  0.78298  0.20182  1.0000
  S   S219      1.0  0.18476  0.80161  0.19399  1.0000
  C   C752      1.0  0.25350  0.76073  0.24526  1.0000
  S   S220      1.0  0.14295  0.78793  0.19159  1.0000
  Fe  Fe109     1.0  0.02227  0.84095  0.17002  1.0000
  S   S221      1.0  0.03019  0.85497  0.14291  1.0000
  Fe  Fe110     1.0  0.02818  0.80767  0.19635  1.0000
  H   H908      1.0  0.02391  0.75531  0.22706  1.0000
  S   S222      1.0  0.04273  0.82896  0.18539  1.0000
  H   H909      1.0  0.07379  0.77583  0.17047  1.0000
  C   C753      1.0  0.07298  0.79830  0.22427  1.0000
  C   C754      1.0  0.05933  0.79649  0.21791  1.0000
  H   H910      1.0  0.12486  0.77060  0.01975  1.0000
  C   C755      1.0  0.16448  0.75751  0.13007  1.0000
  N   N51       1.0  0.08955  0.79429  0.15599  1.0000
  H   H911      1.0  0.07162  0.80942  0.22966  1.0000
  H   H912      1.0  0.04761  0.80616  0.21870  1.0000
  C   C756      1.0  0.08659  0.81265  0.14697  1.0000
  H   H913      1.0  0.04213  0.90594  0.18015  1.0000
  S   S223      1.0  0.03776  0.85144  0.22171  1.0000
  C   C757      1.0  0.06444  0.89606  0.19182  1.0000
  C   C758      1.0  0.07234  0.88270  0.20351  1.0000
  C   C759      1.0  0.06402  0.86909  0.21269  1.0000
  C   C760      1.0  0.04830  0.89562  0.18917  1.0000
  H   H914      1.0  0.08471  0.88301  0.20575  1.0000
  H   H915      1.0  0.07014  0.85879  0.22171  1.0000
  C   C761      1.0  0.17341  0.82068  0.20084  1.0000
  C   C762      1.0  0.16981  0.82159  0.21835  1.0000
  C   C763      1.0  0.16081  0.83703  0.22362  1.0000
  C   C764      1.0  0.15499  0.85139  0.21145  1.0000
  C   C765      1.0  0.15842  0.85027  0.19402  1.0000
  C   C766      1.0  0.16778  0.83506  0.18871  1.0000
  H   H916      1.0  0.17419  0.81048  0.22778  1.0000
  H   H917      1.0  0.15841  0.83783  0.23708  1.0000
  H   H918      1.0  0.15398  0.86115  0.18451  1.0000
  H   H919      1.0  0.17053  0.83449  0.17519  1.0000
  H   H920      1.0  0.07891  0.84466  0.03188  1.0000
  C   C767      1.0  0.13895  0.96753  0.20025  1.0000
  C   C768      1.0  0.13902  0.95617  0.18983  1.0000
  C   C769      1.0  0.14144  0.96171  0.17183  1.0000
  H   H921      1.0  0.13743  0.96311  0.21413  1.0000
  H   H922      1.0  0.13771  0.94303  0.19566  1.0000
  C   C770      1.0  0.12346  0.87388  0.09533  1.0000
  C   C771      1.0  0.12109  0.88826  0.10262  1.0000
  C   C772      1.0  0.12932  0.88718  0.11612  1.0000
  C   C773      1.0  0.13961  0.87161  0.12253  1.0000
  C   C774      1.0  0.14208  0.85736  0.11507  1.0000
  C   C775      1.0  0.13433  0.85858  0.10128  1.0000
  H   H923      1.0  0.11275  0.90016  0.09794  1.0000
  H   H924      1.0  0.12752  0.89830  0.12169  1.0000
  H   H925      1.0  0.14979  0.84523  0.12008  1.0000
  H   H926      1.0  0.13659  0.84756  0.09546  1.0000
  C   C776      1.0  0.06390  0.81934  0.10739  1.0000
  C   C777      1.0  0.05149  0.81317  0.12136  1.0000
  C   C778      1.0  0.04128  0.82398  0.13259  1.0000
  C   C779      1.0  0.04313  0.84108  0.12947  1.0000
  C   C780      1.0  0.05542  0.84725  0.11543  1.0000
  C   C781      1.0  0.06599  0.83631  0.10458  1.0000
  H   H927      1.0  0.04995  0.80001  0.12361  1.0000
  H   H928      1.0  0.03175  0.81920  0.14340  1.0000
  H   H929      1.0  0.05686  0.86047  0.11299  1.0000
  H   H930      1.0  0.07558  0.84115  0.09389  1.0000
  N   N52       1.0  0.99794  0.76341  0.22220  1.0000
  C   C782      1.0  0.08839  0.78610  0.22324  1.0000
  C   C783      1.0  0.18185  0.95144  0.18734  1.0000
  Fe  Fe111     1.0  0.99350  0.83202  0.19975  1.0000
  S   S224      1.0  0.10554  0.78937  0.23056  1.0000
  C   C784      1.0  0.14786  0.79206  0.12319  1.0000
  C   C785      1.0  0.15815  0.78423  0.10953  1.0000
  H   H931      1.0  0.04332  0.80579  0.04313  1.0000
  H   H932      1.0  0.13814  0.78847  0.15090  1.0000
  H   H933      1.0  0.14142  0.80540  0.12048  1.0000
  C   C786      1.0  0.11926  0.81430  0.01159  1.0000
  C   C787      1.0  0.10876  0.81830  0.99945  1.0000
  C   C788      1.0  0.10371  0.80520  0.99492  1.0000
  C   C789      1.0  0.10958  0.78796  0.00209  1.0000
  C   C790      1.0  0.12031  0.78392  0.01409  1.0000
  C   C791      1.0  0.12506  0.79708  0.01893  1.0000
  C   C792      1.0  0.16672  0.76710  0.11311  1.0000
  C   C793      1.0  0.07562  0.95635  0.19569  1.0000
  C   C794      1.0  0.06082  0.78229  0.21072  1.0000
  H   H934      1.0  0.13334  0.79389  0.02820  1.0000
  C   C795      1.0  0.19158  0.97688  0.15899  1.0000
  C   C796      1.0  0.06850  0.96560  0.16761  1.0000
  H   H935      1.0  0.06366  0.79230  0.03521  1.0000
  H   H936      1.0  0.10220  0.97378  0.19471  1.0000
  C   C797      1.0  0.23478  0.74235  0.26448  1.0000
  C   C798      1.0  0.08364  0.98285  0.17765  1.0000
  H   H937      1.0  0.17480  0.76106  0.10265  1.0000
  H   H938      1.0  0.09799  0.79976  0.11975  1.0000
  H   H939      1.0  0.10988  0.79688  0.16693  1.0000
  C   C799      1.0  0.11367  0.85101  0.25048  1.0000
  C   C800      1.0  0.08699  0.84113  0.25218  1.0000
  H   H940      1.0  0.10907  0.81952  0.27070  1.0000
  Fe  Fe112     1.0  0.16344  0.74736  0.22239  1.0000
  S   S225      1.0  0.04407  0.78096  0.20152  1.0000
  H   H941      1.0  0.07258  0.97120  0.15363  1.0000
  C   C801      1.0  0.08991  0.77172  0.21623  1.0000
  C   C802      1.0  0.18815  0.96191  0.15648  1.0000
  H   H942      1.0  0.23811  0.76518  0.19945  1.0000
  H   H943      1.0  0.05552  0.97283  0.17279  1.0000
  H   H944      1.0  0.18016  0.93787  0.16863  1.0000
  H   H945      1.0  0.14514  0.98305  0.15051  1.0000
  H   H946      1.0  0.09673  0.94258  0.16894  1.0000
  H   H947      1.0  0.16347  0.83233  0.14847  1.0000
  H   H948      1.0  0.21099  0.74427  0.20818  1.0000
  S   S226      1.0  0.13877  0.74879  0.21418  1.0000
  C   C803      1.0  0.07697  0.85737  0.25535  1.0000
  C   C804      1.0  0.14105  0.98450  0.19275  1.0000
  C   C805      1.0  0.07265  0.78903  0.16230  1.0000
  H   H949      1.0  0.09834  0.78052  0.17969  1.0000
  N   N53       1.0  0.10606  0.83788  0.24702  1.0000
  H   H950      1.0  0.06695  0.95230  0.16821  1.0000
  H   H951      1.0  0.11124  0.80990  0.25251  1.0000
  S   S227      1.0  0.10365  0.77129  0.99637  1.0000
  C   C806      1.0  0.11460  0.77622  0.11584  1.0000
  H   H952      1.0  0.01566  0.76832  0.19774  1.0000
  C   C807      1.0  0.18505  0.96644  0.19003  1.0000
  S   S228      1.0  0.17712  0.75695  0.19537  1.0000
  C   C808      1.0  0.09502  0.98481  0.18726  1.0000
  H   H953      1.0  0.10930  0.85241  0.26422  1.0000
  C   C809      1.0  0.05691  0.80074  0.04470  1.0000
  H   H954      1.0  0.20017  0.77969  0.23285  1.0000
  H   H955      1.0  0.07727  0.75863  0.20469  1.0000
  C   C810      1.0  0.10828  0.76541  0.15176  1.0000
  H   H956      1.0  0.12529  0.83568  0.22359  1.0000
  H   H957      1.0  0.08847  0.80220  0.17967  1.0000
  C   C811      1.0  0.05893  0.86040  0.25914  1.0000
  C   C812      1.0  0.12230  0.75976  0.12324  1.0000
  N   N54       1.0  0.06597  0.81494  0.04272  1.0000
  H   H958      1.0  0.10608  0.76030  0.16552  1.0000
  C   C813      1.0  0.05697  0.82449  0.05681  1.0000
  C   C814      1.0  0.07340  0.85389  0.00666  1.0000
  C   C815      1.0  0.15425  0.76515  0.14376  1.0000
  H   H959      1.0  0.09058  0.79883  0.03550  1.0000
  Fe  Fe113     1.0  0.15182  0.76082  0.18773  1.0000
  H   H960      1.0  0.06331  0.79784  0.17028  1.0000
  H   H961      1.0  0.10792  0.95304  0.17797  1.0000
  H   H962      1.0  0.99320  0.77517  0.19667  1.0000
  H   H963      1.0  0.18879  0.96028  0.14353  1.0000
  C   C816      1.0  0.09694  0.79341  0.17113  1.0000
  C   C817      1.0  0.22476  0.77064  0.20569  1.0000
  H   H964      1.0  0.06455  0.83337  0.05826  1.0000
  H   H965      1.0  0.05482  0.81567  0.06969  1.0000
  H   H966      1.0  0.04417  0.83218  0.05450  1.0000
  C   C818      1.0  0.06027  0.82419  0.01201  1.0000
  H   H967      1.0  0.05655  0.79215  0.05775  1.0000
  C   C819      1.0  0.10389  0.78742  0.12633  1.0000
  H   H968      1.0  0.10170  0.76212  0.21556  1.0000
  C   C820      1.0  0.08379  0.80699  0.04516  1.0000
  C   C821      1.0  0.07335  0.84202  0.02237  1.0000
  C   C822      1.0  0.01094  0.76249  0.23242  1.0000
  H   H969      1.0  0.09166  0.81670  0.04368  1.0000
  N   N55       1.0  0.08417  0.86767  0.14760  1.0000
  C   C823      1.0  0.09113  0.88299  0.14664  1.0000
  C   C824      1.0  0.09056  0.86198  0.13079  1.0000
  C   C825      1.0  0.06511  0.87301  0.14992  1.0000
  C   C826      1.0  0.08998  0.85384  0.16179  1.0000
  C   C827      1.0  0.07852  0.84834  0.17742  1.0000
  C   C828      1.0  0.10774  0.84606  0.16065  1.0000
  C   C829      1.0  0.08440  0.83541  0.19069  1.0000
  C   C830      1.0  0.11350  0.83312  0.17400  1.0000
  C   C831      1.0  0.10181  0.82768  0.18892  1.0000
  H   H970      1.0  0.08610  0.88796  0.15884  1.0000
  H   H971      1.0  0.10540  0.88002  0.14480  1.0000
  H   H972      1.0  0.08766  0.89363  0.13577  1.0000
  H   H973      1.0  0.10480  0.85875  0.12727  1.0000
  H   H974      1.0  0.08653  0.87224  0.11982  1.0000
  H   H975      1.0  0.08555  0.85052  0.13095  1.0000
  H   H976      1.0  0.05935  0.87918  0.16131  1.0000
  H   H977      1.0  0.06112  0.88265  0.13857  1.0000
  H   H978      1.0  0.05900  0.86186  0.15152  1.0000
  H   H979      1.0  0.06495  0.85405  0.17987  1.0000
  H   H980      1.0  0.11741  0.85028  0.14964  1.0000
  H   H981      1.0  0.07532  0.83161  0.20252  1.0000
  H   H982      1.0  0.12715  0.82757  0.17290  1.0000
  H   H983      1.0  0.10628  0.81760  0.19922  1.0000
  C   C832      1.0  0.04795  0.86856  0.20995  1.0000
  H   H984      1.0  0.18431  0.84915  0.12667  1.0000
  H   H985      1.0  0.19444  0.75893  0.24085  1.0000
  H   H986      1.0  0.18390  0.80497  0.10644  1.0000
  H   H987      1.0  0.18184  0.85470  0.07394  1.0000
  N   N56       1.0  0.08136  0.96547  0.17767  1.0000
  H   H988      1.0  0.06684  0.78909  0.15132  1.0000
  C   C833      1.0  0.09805  0.95542  0.17003  1.0000
  C   C834      1.0  0.00271  0.77396  0.20474  1.0000
  H   H989      1.0  0.21643  0.77251  0.19620  1.0000
  H   H990      1.0  0.18315  0.86710  0.09816  1.0000
  C   C835      1.0  0.18334  0.94921  0.17062  1.0000
  Fe  Fe114     1.0  0.02470  0.84161  0.20621  1.0000
  N   N57       1.0  0.21864  0.75921  0.22229  1.0000
  H   H991      1.0  0.12800  0.84764  0.24785  1.0000
  H   H992      1.0  0.03639  0.85013  0.26193  1.0000
  C   C836      1.0  0.11894  0.75428  0.14115  1.0000
  C   C837      1.0  0.06686  0.85100  0.99369  1.0000
  H   H993      1.0  0.17755  0.94173  0.19831  1.0000
  C   C838      1.0  0.24899  0.74998  0.26121  1.0000
  H   H994      1.0  0.19243  0.77019  0.21956  1.0000
  H   H995      1.0  0.05522  0.81293  0.01305  1.0000
  H   H996      1.0  0.07315  0.94346  0.19603  1.0000
  H   H997      1.0  0.07873  0.86529  0.00450  1.0000
  H   H998      1.0  0.07922  0.82133  0.15605  1.0000
  H   H999      1.0  0.06352  0.96390  0.20224  1.0000
  H   H1000     1.0  0.18213  0.82362  0.07858  1.0000
  H   H1001     1.0  0.10348  0.96222  0.15684  1.0000
  C   C839      1.0  0.04020  0.88173  0.19800  1.0000
  N   N58       1.0  0.18479  0.81427  0.13717  1.0000
  C   C840      1.0  0.18899  0.79546  0.13753  1.0000
  C   C841      1.0  0.19745  0.81795  0.14529  1.0000
  C   C842      1.0  0.16728  0.81843  0.14785  1.0000
  C   C843      1.0  0.18508  0.82494  0.11950  1.0000
  C   C844      1.0  0.18423  0.81829  0.10531  1.0000
  C   C845      1.0  0.18482  0.84286  0.11635  1.0000
  C   C846      1.0  0.18324  0.82894  0.08907  1.0000
  C   C847      1.0  0.18397  0.85336  0.10003  1.0000
  C   C848      1.0  0.18309  0.84643  0.08643  1.0000
  H   H1002     1.0  0.20163  0.79171  0.12889  1.0000
  H   H1003     1.0  0.18959  0.78773  0.15082  1.0000
  H   H1004     1.0  0.17896  0.79122  0.13356  1.0000
  H   H1005     1.0  0.21043  0.81705  0.13659  1.0000
  H   H1006     1.0  0.19883  0.80882  0.15777  1.0000
  H   H1007     1.0  0.19352  0.83089  0.14865  1.0000
  H   H1008     1.0  0.15744  0.81555  0.14235  1.0000
  H   H1009     1.0  0.16647  0.81096  0.16141  1.0000
  C   C849      1.0  0.05977  0.83154  0.25659  1.0000
  H   H1010     1.0  0.15112  0.81071  0.98852  1.0000
  C   C850      1.0  0.14615  0.78256  0.14038  1.0000
  C   C851      1.0  0.06649  0.82694  0.02568  1.0000
  H   H1011     1.0  0.25647  0.74756  0.27112  1.0000
  H   H1012     1.0  0.08546  0.95384  0.20370  1.0000
  S   S229      1.0  0.00937  0.81824  0.17856  1.0000
  C   C852      1.0  0.06045  0.83613  0.99632  1.0000
  C   C853      1.0  0.19010  0.97965  0.17586  1.0000
  C   C854      1.0  0.10091  0.78259  0.14468  1.0000
  H   H1013     1.0  0.05301  0.82178  0.25644  1.0000
  H   H1014     1.0  0.18300  0.96755  0.20335  1.0000
  C   C855      1.0  0.05036  0.84752  0.25972  1.0000
  H   H1015     1.0  0.05151  0.87298  0.26106  1.0000
  C   C856      1.0  0.11103  0.83800  0.22821  1.0000
  H   H1016     1.0  0.10633  0.82784  0.22495  1.0000
  H   H1017     1.0  0.12823  0.81881  0.25380  1.0000
  C   C857      1.0  0.11389  0.82084  0.25648  1.0000
  H   H1018     1.0  0.10555  0.85060  0.22053  1.0000
  H   H1019     1.0  0.10405  0.83159  0.99398  1.0000
  H   H1020     1.0  0.11055  0.86380  0.24186  1.0000
  H   H1021     1.0  0.08443  0.81595  0.24989  1.0000
  H   H1022     1.0  0.08273  0.86811  0.25452  1.0000
  C   C858      1.0  0.22929  0.75622  0.23538  1.0000
  C   C859      1.0  0.20068  0.76732  0.22924  1.0000
  H   H1023     1.0  0.11700  0.78039  0.10187  1.0000
  H   H1024     1.0  0.17062  0.74405  0.13257  1.0000
  H   H1025     1.0  0.22423  0.78377  0.20759  1.0000
  C   C860      1.0  0.99900  0.74563  0.22018  1.0000
  H   H1026     1.0  0.00325  0.78719  0.20541  1.0000
  C   C861      1.0  0.14329  0.97869  0.16441  1.0000
  H   H1027     1.0  0.26456  0.76668  0.24282  1.0000
  H   H1028     1.0  0.16766  0.74597  0.26102  1.0000
  H   H1029     1.0  0.01320  0.77537  0.23221  1.0000
  H   H1030     1.0  0.05551  0.83384  0.98614  1.0000
  H   H1031     1.0  0.00699  0.75611  0.24617  1.0000
  C   C862      1.0  0.24383  0.76390  0.23247  1.0000
  H   H1032     1.0  0.17751  0.74462  0.28783  1.0000
  H   H1033     1.0  0.00256  0.84387  0.13108  1.0000
  C   C863      1.0  0.21856  0.74254  0.21829  1.0000
  H   H1034     1.0  0.01244  0.73951  0.21477  1.0000
  H   H1035     1.0  0.13096  0.75129  0.11508  1.0000
  H   H1036     1.0  0.99469  0.73727  0.23286  1.0000
  C   C864      1.0  0.22509  0.74538  0.25178  1.0000
  H   H1037     1.0  0.12509  0.74151  0.14692  1.0000
  H   H1038     1.0  0.21420  0.73920  0.25495  1.0000
  H   H1039     1.0  0.20039  0.98603  0.20326  1.0000
  H   H1040     1.0  0.22099  0.98590  0.17446  1.0000
  H   H1041     1.0  0.09486  0.80853  0.98631  1.0000
  H   H1042     1.0  0.19508  0.98643  0.14760  1.0000
  Fe  Fe115     1.0  0.07120  0.76695  0.95232  1.0000
  S   S230      1.0  0.07007  0.79170  0.93269  1.0000
  H   H1043     1.0  0.15282  0.86639  0.79209  1.0000
  Fe  Fe116     1.0  0.09735  0.78923  0.93490  1.0000
  H   H1044     1.0  0.15568  0.90907  0.80380  1.0000
  Fe  Fe117     1.0  0.06302  0.80364  0.95602  1.0000
  S   S231      1.0  0.04200  0.82641  0.96029  1.0000
  S   S232      1.0  0.13955  0.96852  0.89790  1.0000
  Fe  Fe118     1.0  0.08527  0.89030  0.88760  1.0000
  S   S233      1.0  0.07873  0.91013  0.86442  1.0000
  S   S234      1.0  0.06914  0.89205  0.91410  1.0000
  Fe  Fe119     1.0  0.11812  0.87226  0.86714  1.0000
  S   S235      1.0  0.11471  0.89072  0.84213  1.0000
  S   S236      1.0  0.13894  0.84864  0.87099  1.0000
  Fe  Fe120     1.0  0.10685  0.91124  0.85801  1.0000
  S   S237      1.0  0.11489  0.93695  0.84742  1.0000
  Fe  Fe121     1.0  0.08702  0.88795  0.85077  1.0000
  S   S238      1.0  0.07298  0.88256  0.83299  1.0000
  S   S239      1.0  0.11283  0.89294  0.88230  1.0000
  S   S240      1.0  0.09112  0.86794  0.87456  1.0000
  Fe  Fe122     1.0  0.15604  0.78355  0.81282  1.0000
  S   S241      1.0  0.15493  0.81199  0.80786  1.0000
  H   H1045     1.0  0.17788  0.84828  0.80192  1.0000
  S   S242      1.0  0.13162  0.77385  0.82508  1.0000
  H   H1046     1.0  0.00309  0.81518  0.90754  1.0000
  Fe  Fe123     1.0  0.01842  0.77531  0.87270  1.0000
  H   H1047     1.0  0.15007  0.77140  0.86138  1.0000
  Fe  Fe124     1.0  0.02874  0.79432  0.83611  1.0000
  S   S243      1.0  0.00885  0.77807  0.84854  1.0000
  S   S244      1.0  0.04160  0.79313  0.80854  1.0000
  Fe  Fe125     1.0  0.02028  0.81258  0.86600  1.0000
  S   S245      1.0  0.02522  0.83161  0.87876  1.0000
  S   S246      1.0  0.04007  0.78928  0.85967  1.0000
  H   H1048     1.0  0.02631  0.83307  0.91531  1.0000
  H   H1049     1.0  0.03937  0.83931  0.79320  1.0000
  N   N59       1.0  0.15476  0.77945  0.94663  1.0000
  H   H1050     1.0  0.15994  0.88024  0.86415  1.0000
  C   C865      1.0  0.06348  0.78348  0.80344  1.0000
  C   C866      1.0  0.09494  0.75580  0.86013  1.0000
  H   H1051     1.0  0.14090  0.87074  0.81280  1.0000
  C   C867      1.0  0.12511  0.77932  0.90003  1.0000
  C   C868      1.0  0.05751  0.87032  0.84504  1.0000
  C   C869      1.0  0.05212  0.85970  0.83730  1.0000
  C   C870      1.0  0.04129  0.84841  0.84740  1.0000
  C   C871      1.0  0.03594  0.84770  0.86523  1.0000
  C   C872      1.0  0.04049  0.85905  0.87276  1.0000
  C   C873      1.0  0.05128  0.87032  0.86268  1.0000
  H   H1052     1.0  0.05689  0.85973  0.82364  1.0000
  H   H1053     1.0  0.03765  0.83981  0.84150  1.0000
  H   H1054     1.0  0.03623  0.85870  0.88652  1.0000
  H   H1055     1.0  0.05504  0.87881  0.86864  1.0000
  C   C874      1.0  0.14231  0.83734  0.85441  1.0000
  C   C875      1.0  0.13332  0.84413  0.84095  1.0000
  C   C876      1.0  0.13698  0.83599  0.82691  1.0000
  C   C877      1.0  0.14927  0.82069  0.82651  1.0000
  C   C878      1.0  0.15765  0.81332  0.84040  1.0000
  C   C879      1.0  0.15433  0.82179  0.85425  1.0000
  H   H1056     1.0  0.12362  0.85576  0.84123  1.0000
  H   H1057     1.0  0.13026  0.84156  0.81632  1.0000
  H   H1058     1.0  0.16716  0.80147  0.84013  1.0000
  H   H1059     1.0  0.16124  0.81641  0.86470  1.0000
  C   C880      1.0  0.13372  0.95960  0.88333  1.0000
  C   C881      1.0  0.01003  0.79820  0.93994  1.0000
  C   C882      1.0  0.12674  0.96165  0.85557  1.0000
  C   C883      1.0  0.12274  0.94521  0.86114  1.0000
  C   C884      1.0  0.12460  0.93588  0.87769  1.0000
  C   C885      1.0  0.13026  0.94297  0.88867  1.0000
  C   C886      1.0  0.13366  0.75487  0.87898  1.0000
  S   S247      1.0  0.02190  0.74995  0.89107  1.0000
  H   H1060     1.0  0.12153  0.92328  0.88216  1.0000
  H   H1061     1.0  0.13157  0.93572  0.90151  1.0000
  C   C887      1.0  0.04833  0.84487  0.94661  1.0000
  C   C888      1.0  0.04317  0.86045  0.95225  1.0000
  C   C889      1.0  0.04937  0.87498  0.94197  1.0000
  C   C890      1.0  0.06044  0.87405  0.92588  1.0000
  C   C891      1.0  0.06512  0.85856  0.92000  1.0000
  C   C892      1.0  0.05921  0.84390  0.93043  1.0000
  H   H1062     1.0  0.03475  0.86120  0.96476  1.0000
  H   H1063     1.0  0.04570  0.88695  0.94654  1.0000
  H   H1064     1.0  0.07359  0.85773  0.90765  1.0000
  H   H1065     1.0  0.06320  0.83186  0.92603  1.0000
  H   H1066     1.0  0.06184  0.78283  0.77770  1.0000
  C   C893      1.0  0.04698  0.76244  0.92172  1.0000
  C   C894      1.0  0.03793  0.76367  0.90878  1.0000
  H   H1067     1.0  0.02898  0.76811  0.97101  1.0000
  H   H1068     1.0  0.17879  0.76381  0.95240  1.0000
  C   C895      1.0  0.13557  0.87708  0.95977  1.0000
  H   H1069     1.0  0.05075  0.77367  0.92295  1.0000
  H   H1070     1.0  0.03500  0.77580  0.89997  1.0000
  H   H1071     1.0  0.19136  0.88205  0.79537  1.0000
  H   H1072     1.0  0.09256  0.76934  0.76939  1.0000
  C   C896      1.0  0.13710  0.78149  0.88437  1.0000
  H   H1073     1.0  0.09812  0.97720  0.89685  1.0000
  H   H1074     1.0  0.14299  0.79268  0.88029  1.0000
  H   H1075     1.0  0.01001  0.82525  0.95400  1.0000
  S   S248      1.0  0.09021  0.80417  0.95592  1.0000
  N   N60       1.0  0.11325  0.84930  0.93549  1.0000
  C   C897      1.0  0.12380  0.83179  0.93475  1.0000
  C   C898      1.0  0.09593  0.84779  0.94630  1.0000
  C   C899      1.0  0.11102  0.85778  0.91758  1.0000
  C   C900      1.0  0.12147  0.85879  0.94328  1.0000
  C   C901      1.0  0.12529  0.87530  0.93503  1.0000
  C   C902      1.0  0.12514  0.85188  0.96007  1.0000
  H   H1076     1.0  0.17000  0.77011  0.75022  1.0000
  C   C903      1.0  0.00222  0.78694  0.93510  1.0000
  C   C904      1.0  0.13230  0.88420  0.94321  1.0000
  H   H1077     1.0  0.12465  0.82371  0.94780  1.0000
  H   H1078     1.0  0.11827  0.82466  0.92823  1.0000
  H   H1079     1.0  0.13712  0.83251  0.92726  1.0000
  H   H1080     1.0  0.08761  0.86075  0.94710  1.0000
  H   H1081     1.0  0.09647  0.84057  0.95973  1.0000
  H   H1082     1.0  0.08921  0.84089  0.94082  1.0000
  H   H1083     1.0  0.12361  0.85930  0.90865  1.0000
  H   H1084     1.0  0.10511  0.85018  0.91196  1.0000
  H   H1085     1.0  0.10223  0.87061  0.91723  1.0000
  H   H1086     1.0  0.12278  0.88175  0.92234  1.0000
  H   H1087     1.0  0.12252  0.83947  0.96717  1.0000
  C   C905      1.0  0.99716  0.83537  0.80027  1.0000
  C   C906      1.0  0.02545  0.84233  0.79734  1.0000
  C   C907      1.0  0.15225  0.79604  0.96955  1.0000
  C   C908      1.0  0.17950  0.88123  0.79153  1.0000
  H   H1088     1.0  0.18715  0.85417  0.81681  1.0000
  N   N61       1.0  0.16715  0.87405  0.80682  1.0000
  C   C909      1.0  0.07017  0.77989  0.78688  1.0000
  C   C910      1.0  0.03259  0.74920  0.90742  1.0000
  C   C911      1.0  0.17494  0.85563  0.81246  1.0000
  C   C912      1.0  0.13200  0.96895  0.86673  1.0000
  S   S249      1.0  0.11885  0.79526  0.91252  1.0000
  H   H1089     1.0  0.15721  0.76903  0.92401  1.0000
  H   H1090     1.0  0.17413  0.77966  0.92292  1.0000
  C   C913      1.0  0.01774  0.85584  0.80598  1.0000
  S   S250      1.0  0.06212  0.77911  0.97569  1.0000
  C   C914      1.0  0.16295  0.82241  0.96305  1.0000
  H   H1091     1.0  0.14612  0.78656  0.97937  1.0000
  H   H1092     1.0  0.00059  0.84155  0.93829  1.0000
  H   H1093     1.0  0.10650  0.75356  0.84967  1.0000
  H   H1094     1.0  0.17396  0.89431  0.78493  1.0000
  H   H1095     1.0  0.15281  0.79188  0.92027  1.0000
  S   S251      1.0  0.12018  0.75874  0.78740  1.0000
  H   H1096     1.0  0.13499  0.89685  0.93675  1.0000
  C   C915      1.0  0.15430  0.90423  0.84644  1.0000
  C   C916      1.0  0.16813  0.82130  0.94565  1.0000
  C   C917      1.0  0.16481  0.76340  0.95541  1.0000
  Fe  Fe126     1.0  0.09004  0.77863  0.97397  1.0000
  S   S252      1.0  0.17280  0.76186  0.82767  1.0000
  Fe  Fe127     1.0  0.17625  0.74857  0.80560  1.0000
  H   H1097     1.0  0.14076  0.88415  0.96615  1.0000
  H   H1098     1.0  0.09580  0.96428  0.88335  1.0000
  H   H1099     1.0  0.14863  0.92596  0.82621  1.0000
  C   C918      1.0  0.00175  0.82763  0.94442  1.0000
  H   H1100     1.0  0.13485  0.98172  0.86245  1.0000
  H   H1101     1.0  0.13370  0.76786  0.94715  1.0000
  C   C919      1.0  0.16555  0.80749  0.94010  1.0000
  H   H1102     1.0  0.99505  0.79109  0.92485  1.0000
  C   C920      1.0  0.06793  0.73719  0.82202  1.0000
  C   C921      1.0  0.01960  0.79092  0.95325  1.0000
  C   C922      1.0  0.07228  0.74415  0.88131  1.0000
  H   H1103     1.0  0.05690  0.97668  0.88492  1.0000
  C   C923      1.0  0.12204  0.75248  0.89487  1.0000
  H   H1104     1.0  0.01512  0.74928  0.96209  1.0000
  H   H1105     1.0  0.17004  0.80737  0.92646  1.0000
  H   H1106     1.0  0.18807  0.76600  0.72475  1.0000
  H   H1107     1.0  0.02626  0.79854  0.95734  1.0000
  H   H1108     1.0  0.21378  0.75513  0.70492  1.0000
  N   N62       1.0  0.08989  0.81400  0.87025  1.0000
  C   C924      1.0  0.10536  0.81972  0.87138  1.0000
  C   C925      1.0  0.07465  0.82559  0.87847  1.0000
  C   C926      1.0  0.09020  0.79623  0.88033  1.0000
  C   C927      1.0  0.08922  0.81429  0.85218  1.0000
  C   C928      1.0  0.10433  0.81276  0.83894  1.0000
  C   C929      1.0  0.07346  0.81484  0.84757  1.0000
  C   C930      1.0  0.10346  0.81327  0.82191  1.0000
  C   C931      1.0  0.07272  0.81523  0.83052  1.0000
  C   C932      1.0  0.08768  0.81460  0.81769  1.0000
  H   H1109     1.0  0.10615  0.83260  0.86297  1.0000
  H   H1110     1.0  0.10517  0.82078  0.88476  1.0000
  H   H1111     1.0  0.11755  0.81057  0.86777  1.0000
  H   H1112     1.0  0.06249  0.82081  0.88116  1.0000
  H   H1113     1.0  0.07298  0.83865  0.87007  1.0000
  H   H1114     1.0  0.07592  0.82707  0.89126  1.0000
  H   H1115     1.0  0.10178  0.78724  0.87484  1.0000
  H   H1116     1.0  0.09065  0.79536  0.89406  1.0000
  H   H1117     1.0  0.07858  0.79152  0.88033  1.0000
  H   H1118     1.0  0.11703  0.81104  0.84142  1.0000
  H   H1119     1.0  0.06152  0.81507  0.85702  1.0000
  H   H1120     1.0  0.11519  0.81245  0.81197  1.0000
  H   H1121     1.0  0.06049  0.81590  0.82723  1.0000
  H   H1122     1.0  0.08708  0.81475  0.80452  1.0000
  H   H1123     1.0  0.02563  0.86341  0.80848  1.0000
  C   C933      1.0  0.16411  0.87650  0.83807  1.0000
  H   H1124     1.0  0.18350  0.87316  0.78152  1.0000
  H   H1125     1.0  0.08001  0.96637  0.90265  1.0000
  H   H1126     1.0  0.09964  0.75808  0.87084  1.0000
  C   C934      1.0  0.06678  0.98253  0.87454  1.0000
  H   H1127     1.0  0.07756  0.74480  0.89239  1.0000
  S   S253      1.0  0.09913  0.76353  0.95285  1.0000
  C   C935      1.0  0.15327  0.91215  0.82939  1.0000
  H   H1128     1.0  0.03260  0.81102  0.91294  1.0000
  H   H1129     1.0  0.07426  0.97250  0.86692  1.0000
  C   C936      1.0  0.08840  0.97358  0.89174  1.0000
  H   H1130     1.0  0.15768  0.77373  0.73355  1.0000
  C   C937      1.0  0.16003  0.78012  0.92765  1.0000
  H   H1131     1.0  0.14649  0.74878  0.73018  1.0000
  H   H1132     1.0  0.16349  0.75186  0.95137  1.0000
  H   H1133     1.0  0.15056  0.91190  0.85635  1.0000
  H   H1134     1.0  0.17434  0.83114  0.93644  1.0000
  C   C938      1.0  0.13196  0.86095  0.96820  1.0000
  C   C939      1.0  0.08758  0.77231  0.78215  1.0000
  H   H1135     1.0  0.14530  0.88814  0.79526  1.0000
  C   C940      1.0  0.15091  0.87487  0.80143  1.0000
  C   C941      1.0  0.02653  0.81951  0.92248  1.0000
  C   C942      1.0  0.07431  0.77960  0.81528  1.0000
  C   C943      1.0  0.09854  0.76870  0.79379  1.0000
  C   C944      1.0  0.15747  0.90233  0.81663  1.0000
  C   C945      1.0  0.16325  0.88420  0.82050  1.0000
  H   H1136     1.0  0.06915  0.78206  0.82819  1.0000
  H   H1137     1.0  0.02204  0.82167  0.78811  1.0000
  C   C946      1.0  0.15957  0.76615  0.74656  1.0000
  C   C947      1.0  0.09195  0.77252  0.81032  1.0000
  S   S254      1.0  0.01088  0.81895  0.84129  1.0000
  H   H1138     1.0  0.10025  0.76950  0.81946  1.0000
  H   H1139     1.0  0.16777  0.86278  0.84250  1.0000
  C   C948      1.0  0.15964  0.88644  0.85078  1.0000
  H   H1140     1.0  0.16602  0.84897  0.82317  1.0000
  C   C949      1.0  0.14111  0.76946  0.87366  1.0000
  C   C950      1.0  0.15746  0.79441  0.95194  1.0000
  H   H1141     1.0  0.13427  0.85550  0.98123  1.0000
  H   H1142     1.0  0.00586  0.80056  0.80342  1.0000
  Fe  Fe128     1.0  0.14868  0.75101  0.83802  1.0000
  N   N63       1.0  0.00898  0.81657  0.93137  1.0000
  S   S255      1.0  0.16151  0.77131  0.78988  1.0000
  Fe  Fe129     1.0  0.13839  0.75976  0.80340  1.0000
  H   H1143     1.0  0.14754  0.77006  0.75603  1.0000
  C   C951      1.0  0.13624  0.77847  0.95177  1.0000
  H   H1144     1.0  0.10806  0.76315  0.91711  1.0000
  C   C952      1.0  0.11754  0.76483  0.90522  1.0000
  C   C953      1.0  0.02115  0.77354  0.96126  1.0000
  C   C954      1.0  0.01331  0.76289  0.95627  1.0000
  S   S256      1.0  0.99946  0.79808  0.88094  1.0000
  H   H1145     1.0  0.03523  0.81698  0.93167  1.0000
  H   H1146     1.0  0.12549  0.96888  0.84271  1.0000
  C   C955      1.0  0.01536  0.83228  0.79445  1.0000
  H   H1147     1.0  0.13597  0.74807  0.75257  1.0000
  H   H1148     1.0  0.06319  0.75662  0.87844  1.0000
  H   H1149     1.0  0.16511  0.83302  0.96736  1.0000
  C   C956      1.0  0.05057  0.74679  0.93335  1.0000
  H   H1150     1.0  0.08623  0.76780  0.85502  1.0000
  H   H1151     1.0  0.06682  0.86025  0.98154  1.0000
  H   H1152     1.0  0.16044  0.76115  0.96975  1.0000
  C   C957      1.0  0.00389  0.76955  0.94321  1.0000
  C   C958      1.0  0.15502  0.80983  0.97495  1.0000
  H   H1153     1.0  0.99751  0.83618  0.91195  1.0000
  C   C959      1.0  0.99990  0.85936  0.81173  1.0000
  N   N64       1.0  0.16339  0.74734  0.74705  1.0000
  H   H1154     1.0  0.05174  0.74654  0.86167  1.0000
  C   C960      1.0  0.99793  0.82236  0.91825  1.0000
  H   H1155     1.0  0.00381  0.81694  0.77435  1.0000
  H   H1156     1.0  0.13148  0.77592  0.96604  1.0000
  S   S257      1.0  0.06114  0.74464  0.95030  1.0000
  H   H1157     1.0  0.12812  0.79062  0.94616  1.0000
  H   H1158     1.0  0.99835  0.76103  0.93895  1.0000
  C   C961      1.0  0.19034  0.75262  0.72407  1.0000
  C   C962      1.0  0.20524  0.74653  0.71256  1.0000
  H   H1159     1.0  0.04238  0.74509  0.83637  1.0000
  C   C963      1.0  0.14807  0.74310  0.74374  1.0000
  C   C964      1.0  0.06168  0.74273  0.85100  1.0000
  N   N65       1.0  0.08608  0.74101  0.86594  1.0000
  H   H1160     1.0  0.11624  0.74123  0.89904  1.0000
  H   H1161     1.0  0.15411  0.74230  0.77474  1.0000
  H   H1162     1.0  0.17685  0.74147  0.76785  1.0000
  C   C965      1.0  0.17908  0.74151  0.73445  1.0000
  C   C966      1.0  0.05605  0.74184  0.83650  1.0000
  S   S258      1.0  0.13807  0.73988  0.86567  1.0000
  C   C967      1.0  0.07957  0.73907  0.85133  1.0000
  C   C968      1.0  0.16560  0.73841  0.76478  1.0000
  H   H1163     1.0  0.99399  0.86972  0.81871  1.0000
  Fe  Fe130     1.0  0.78539  0.14583  0.07906  1.0000
  S   S259      1.0  0.76184  0.14660  0.10047  1.0000
  S   S260      1.0  0.78219  0.15194  0.05124  1.0000
  Fe  Fe131     1.0  0.80948  0.13772  0.10426  1.0000
  S   S261      1.0  0.78808  0.13726  0.12765  1.0000
  S   S262      1.0  0.83695  0.13255  0.10734  1.0000
  Fe  Fe132     1.0  0.77719  0.12304  0.11434  1.0000
  S   S263      1.0  0.76365  0.10199  0.13051  1.0000
  Fe  Fe133     1.0  0.77464  0.16087  0.11192  1.0000
  S   S264      1.0  0.75863  0.18405  0.12249  1.0000
  S   S265      1.0  0.79995  0.12102  0.09223  1.0000
  S   S266      1.0  0.79691  0.16252  0.08920  1.0000
  H   H1164     1.0  0.68433  0.23102  0.21654  1.0000
  H   H1165     1.0  0.72537  0.14587  0.29701  1.0000
  S   S267      1.0  0.78852  0.01535  0.19659  1.0000
  C   C969      1.0  0.73044  0.10971  0.17320  1.0000
  Fe  Fe134     1.0  0.82219  0.02345  0.21833  1.0000
  S   S268      1.0  0.80510  0.04491  0.20393  1.0000
  S   S269      1.0  0.83814  0.03174  0.23223  1.0000
  Fe  Fe135     1.0  0.78445  0.02991  0.21774  1.0000
  S   S270      1.0  0.75982  0.04421  0.23175  1.0000
  Fe  Fe136     1.0  0.81104  0.02829  0.18445  1.0000
  S   S271      1.0  0.81895  0.03795  0.15596  1.0000
  S   S272      1.0  0.80125  0.00910  0.23335  1.0000
  S   S273      1.0  0.83026  0.00813  0.19745  1.0000
  S   S274      1.0  0.96927  0.14937  0.23830  1.0000
  Fe  Fe137     1.0  0.86780  0.13619  0.18595  1.0000
  S   S275      1.0  0.86169  0.11199  0.20400  1.0000
  S   S276      1.0  0.84644  0.15338  0.17338  1.0000
  Fe  Fe138     1.0  0.90370  0.13002  0.19382  1.0000
  S   S277      1.0  0.90064  0.10508  0.21249  1.0000
  S   S278      1.0  0.92789  0.14121  0.18572  1.0000
  Fe  Fe139     1.0  0.88866  0.09998  0.19285  1.0000
  S   S279      1.0  0.89290  0.07498  0.18432  1.0000
  Fe  Fe140     1.0  0.87391  0.11942  0.22183  1.0000
  S   S280      1.0  0.86214  0.11733  0.25005  1.0000
  S   S281      1.0  0.89395  0.12368  0.17318  1.0000
  S   S282      1.0  0.87782  0.14480  0.20483  1.0000
  Fe  Fe141     1.0  0.75958  0.17719  0.21418  1.0000
  S   S283      1.0  0.73544  0.16900  0.21452  1.0000
  H   H1166     1.0  0.80543  0.11470  0.21847  1.0000
  Fe  Fe142     1.0  0.76625  0.15045  0.24631  1.0000
  S   S284      1.0  0.74248  0.14022  0.24898  1.0000
  S   S285      1.0  0.78083  0.13838  0.26769  1.0000
  Fe  Fe143     1.0  0.75093  0.14228  0.22027  1.0000
  S   S286      1.0  0.75353  0.12420  0.20284  1.0000
  Fe  Fe144     1.0  0.72964  0.16821  0.24310  1.0000
  C   C970      1.0  0.79419  0.07977  0.24849  1.0000
  S   S287      1.0  0.77561  0.15058  0.21796  1.0000
  S   S288      1.0  0.75293  0.17822  0.24240  1.0000
  H   H1167     1.0  0.93233  0.18964  0.21348  1.0000
  C   C971      1.0  0.78085  0.05441  0.26052  1.0000
  C   C972      1.0  0.72373  0.17355  0.31198  1.0000
  C   C973      1.0  0.83958  0.12359  0.25432  1.0000
  C   C974      1.0  0.83052  0.11997  0.27140  1.0000
  C   C975      1.0  0.81251  0.12467  0.27527  1.0000
  C   C976      1.0  0.80343  0.13313  0.26211  1.0000
  C   C977      1.0  0.81246  0.13695  0.24498  1.0000
  C   C978      1.0  0.83057  0.13212  0.24107  1.0000
  H   H1168     1.0  0.83743  0.11335  0.28166  1.0000
  H   H1169     1.0  0.80560  0.12166  0.28851  1.0000
  H   H1170     1.0  0.80556  0.14368  0.23477  1.0000
  H   H1171     1.0  0.83753  0.13518  0.22786  1.0000
  C   C979      1.0  0.95798  0.14668  0.22372  1.0000
  C   C980      1.0  0.96212  0.15387  0.20608  1.0000
  C   C981      1.0  0.95254  0.15238  0.19468  1.0000
  C   C982      1.0  0.93897  0.14338  0.20073  1.0000
  C   C983      1.0  0.93501  0.13586  0.21830  1.0000
  C   C984      1.0  0.94437  0.13769  0.22982  1.0000
  H   H1172     1.0  0.97241  0.16103  0.20129  1.0000
  H   H1173     1.0  0.95567  0.15823  0.18110  1.0000
  H   H1174     1.0  0.92487  0.12857  0.22290  1.0000
  H   H1175     1.0  0.94122  0.13203  0.24344  1.0000
  C   C985      1.0  0.85368  0.04329  0.21883  1.0000
  C   C986      1.0  0.86059  0.04127  0.20174  1.0000
  C   C987      1.0  0.87313  0.05058  0.19134  1.0000
  C   C988      1.0  0.87823  0.06241  0.19780  1.0000
  C   C989      1.0  0.87106  0.06464  0.21477  1.0000
  C   C990      1.0  0.85906  0.05485  0.22536  1.0000
  H   H1176     1.0  0.85657  0.03226  0.19670  1.0000
  H   H1177     1.0  0.87873  0.04876  0.17825  1.0000
  H   H1178     1.0  0.87506  0.07363  0.21989  1.0000
  H   H1179     1.0  0.85389  0.05627  0.23863  1.0000
  C   C991      1.0  0.75821  0.06646  0.22406  1.0000
  C   C992      1.0  0.75113  0.07794  0.23538  1.0000
  C   C993      1.0  0.75014  0.09573  0.22914  1.0000
  C   C994      1.0  0.75562  0.10204  0.21146  1.0000
  C   C995      1.0  0.76240  0.09054  0.20017  1.0000
  C   C996      1.0  0.76394  0.07280  0.20648  1.0000
  H   H1180     1.0  0.74661  0.07305  0.24899  1.0000
  H   H1181     1.0  0.74474  0.10454  0.23791  1.0000
  H   H1182     1.0  0.76618  0.09527  0.18644  1.0000
  H   H1183     1.0  0.76908  0.06404  0.19765  1.0000
  C   C997      1.0  0.71119  0.11555  0.20547  1.0000
  H   H1184     1.0  0.82736  0.07764  0.24795  1.0000
  H   H1185     1.0  0.73819  0.10672  0.16108  1.0000
  C   C998      1.0  0.82032  0.09070  0.24276  1.0000
  C   C999      1.0  0.83950  0.13848  0.12565  1.0000
  C   C1000     1.0  0.85543  0.13302  0.13075  1.0000
  C   C1001     1.0  0.85766  0.13749  0.14544  1.0000
  C   C1002     1.0  0.84406  0.14775  0.15485  1.0000
  C   C1003     1.0  0.82822  0.15344  0.14956  1.0000
  C   C1004     1.0  0.82588  0.14866  0.13513  1.0000
  H   H1186     1.0  0.86605  0.12523  0.12339  1.0000
  H   H1187     1.0  0.86996  0.13317  0.14934  1.0000
  H   H1188     1.0  0.81762  0.16128  0.15687  1.0000
  H   H1189     1.0  0.81362  0.15314  0.13121  1.0000
  C   C1005     1.0  0.77895  0.08420  0.13774  1.0000
  C   C1006     1.0  0.77462  0.07317  0.15363  1.0000
  C   C1007     1.0  0.78696  0.05898  0.15940  1.0000
  C   C1008     1.0  0.80344  0.05559  0.14903  1.0000
  C   C1009     1.0  0.80768  0.06651  0.13308  1.0000
  C   C1010     1.0  0.79554  0.08096  0.12757  1.0000
  H   H1190     1.0  0.76185  0.07569  0.16162  1.0000
  H   H1191     1.0  0.78366  0.05057  0.17177  1.0000
  H   H1192     1.0  0.82043  0.06392  0.12507  1.0000
  H   H1193     1.0  0.79900  0.08936  0.11531  1.0000
  C   C1011     1.0  0.76119  0.18771  0.14196  1.0000
  C   C1012     1.0  0.76976  0.17485  0.15359  1.0000
  C   C1013     1.0  0.77087  0.17826  0.16930  1.0000
  H   H1194     1.0  0.77446  0.12646  0.00597  1.0000
  H   H1195     1.0  0.82991  0.09762  0.23308  1.0000
  H   H1196     1.0  0.72213  0.21815  0.28182  1.0000
  H   H1197     1.0  0.77545  0.16228  0.15062  1.0000
  H   H1198     1.0  0.77736  0.16830  0.17834  1.0000
  H   H1199     1.0  0.73009  0.12977  0.14046  1.0000
  H   H1200     1.0  0.84751  0.19164  0.11699  1.0000
  C   C1014     1.0  0.78480  0.10705  0.02604  1.0000
  C   C1015     1.0  0.77916  0.12400  0.01780  1.0000
  C   C1016     1.0  0.77884  0.13777  0.02537  1.0000
  C   C1017     1.0  0.78410  0.13463  0.04119  1.0000
  C   C1018     1.0  0.79041  0.11773  0.04896  1.0000
  C   C1019     1.0  0.79084  0.10402  0.04135  1.0000
  C   C1020     1.0  0.82714  0.11281  0.17596  1.0000
  H   H1201     1.0  0.77403  0.15084  0.01924  1.0000
  H   H1202     1.0  0.79487  0.11523  0.06086  1.0000
  H   H1203     1.0  0.79564  0.09095  0.04743  1.0000
  H   H1204     1.0  0.82268  0.08934  0.20980  1.0000
  H   H1205     1.0  0.79180  0.11482  0.23915  1.0000
  C   C1021     1.0  0.77299  0.07758  0.27601  1.0000
  H   H1206     1.0  0.82217  0.06863  0.22324  1.0000
  H   H1207     1.0  0.91093  0.18026  0.20317  1.0000
  H   H1208     1.0  0.80393  0.08027  0.21344  1.0000
  C   C1022     1.0  0.72569  0.21428  0.22056  1.0000
  N   N66       1.0  0.76160  0.08305  0.08581  1.0000
  C   C1023     1.0  0.77789  0.08456  0.08966  1.0000
  C   C1024     1.0  0.74914  0.07951  0.10240  1.0000
  C   C1025     1.0  0.76563  0.06791  0.07756  1.0000
  C   C1026     1.0  0.75424  0.09931  0.07492  1.0000
  C   C1027     1.0  0.75050  0.11510  0.08061  1.0000
  C   C1028     1.0  0.75042  0.10004  0.05864  1.0000
  C   C1029     1.0  0.74407  0.13068  0.07034  1.0000
  C   C1030     1.0  0.74381  0.11568  0.04858  1.0000
  C   C1031     1.0  0.74081  0.13098  0.05432  1.0000
  H   H1209     1.0  0.77602  0.09508  0.09662  1.0000
  H   H1210     1.0  0.78363  0.07261  0.09804  1.0000
  H   H1211     1.0  0.78767  0.08722  0.07761  1.0000
  H   H1212     1.0  0.75404  0.06723  0.11091  1.0000
  H   H1213     1.0  0.73654  0.07873  0.10011  1.0000
  H   H1214     1.0  0.74658  0.08971  0.11002  1.0000
  H   H1215     1.0  0.77502  0.06983  0.06496  1.0000
  H   H1216     1.0  0.77153  0.05598  0.08584  1.0000
  H   H1217     1.0  0.75380  0.06532  0.07518  1.0000
  H   H1218     1.0  0.75285  0.11556  0.09292  1.0000
  H   H1219     1.0  0.75305  0.08886  0.05295  1.0000
  H   H1220     1.0  0.74210  0.14269  0.07453  1.0000
  H   H1221     1.0  0.74175  0.11600  0.03586  1.0000
  H   H1222     1.0  0.73641  0.14314  0.04613  1.0000
  C   C1032     1.0  0.94609  0.08285  0.18846  1.0000
  C   C1033     1.0  0.97373  0.08894  0.18950  1.0000
  C   C1034     1.0  0.68307  0.20206  0.27761  1.0000
  C   C1035     1.0  0.72515  0.12695  0.17568  1.0000
  H   H1223     1.0  0.75554  0.12644  0.15282  1.0000
  H   H1224     1.0  0.69252  0.21195  0.23139  1.0000
  H   H1225     1.0  0.70417  0.11771  0.21819  1.0000
  C   C1036     1.0  0.80212  0.99321  0.16229  1.0000
  H   H1226     1.0  0.72325  0.20540  0.23329  1.0000
  C   C1037     1.0  0.72636  0.09589  0.18651  1.0000
  H   H1227     1.0  0.71434  0.08799  0.21313  1.0000
  C   C1038     1.0  0.69971  0.19556  0.26888  1.0000
  C   C1039     1.0  0.69465  0.21998  0.28963  1.0000
  C   C1040     1.0  0.72358  0.15853  0.16609  1.0000
  C   C1041     1.0  0.75433  0.20408  0.14582  1.0000
  H   H1228     1.0  0.72864  0.15943  0.17723  1.0000
  H   H1229     1.0  0.70924  0.16154  0.16928  1.0000
  C   C1042     1.0  0.75600  0.20765  0.16116  1.0000
  C   C1043     1.0  0.71688  0.09880  0.20266  1.0000
  H   H1230     1.0  0.98432  0.11383  0.21137  1.0000
  C   C1044     1.0  0.68050  0.21432  0.28791  1.0000
  Fe  Fe145     1.0  0.80742  0.99578  0.21087  1.0000
  C   C1045     1.0  0.72388  0.14148  0.14599  1.0000
  H   H1231     1.0  0.73109  0.08280  0.18450  1.0000
  C   C1046     1.0  0.71367  0.20165  0.27028  1.0000
  H   H1232     1.0  0.75890  0.14112  0.30691  1.0000
  H   H1233     1.0  0.94672  0.05795  0.18405  1.0000
  N   N67       1.0  0.71064  0.22862  0.21871  1.0000
  H   H1234     1.0  0.78561  0.09875  0.26511  1.0000
  H   H1235     1.0  0.79144  0.99321  0.15623  1.0000
  C   C1047     1.0  0.82278  0.99419  0.13528  1.0000
  H   H1236     1.0  0.80691  0.22645  0.10553  1.0000
  H   H1237     1.0  0.94857  0.10640  0.19299  1.0000
  H   H1238     1.0  0.69912  0.21324  0.20859  1.0000
  S   S289      1.0  0.78294  0.08924  0.01876  1.0000
  H   H1239     1.0  0.72781  0.16895  0.15518  1.0000
  H   H1240     1.0  0.82934  0.21951  0.09672  1.0000
  C   C1048     1.0  0.74931  0.13888  0.15687  1.0000
  C   C1049     1.0  0.89694  0.13185  0.25351  1.0000
  C   C1050     1.0  0.90134  0.16103  0.24617  1.0000
  C   C1051     1.0  0.91388  0.16658  0.25161  1.0000
  C   C1052     1.0  0.90054  0.16642  0.22837  1.0000
  C   C1053     1.0  0.92471  0.17700  0.23993  1.0000
  H   H1241     1.0  0.79594  0.18351  0.11816  1.0000
  H   H1242     1.0  0.88963  0.12218  0.26245  1.0000
  H   H1243     1.0  0.87036  0.15415  0.24318  1.0000
  H   H1244     1.0  0.91604  0.16263  0.26467  1.0000
  H   H1245     1.0  0.93470  0.18046  0.24416  1.0000
  N   N68       1.0  0.83924  0.08700  0.16131  1.0000
  C   C1054     1.0  0.84073  0.08836  0.14251  1.0000
  C   C1055     1.0  0.85624  0.08814  0.16381  1.0000
  H   H1246     1.0  0.85189  0.07889  0.13715  1.0000
  H   H1247     1.0  0.82915  0.08593  0.13956  1.0000
  H   H1248     1.0  0.84248  0.10144  0.13510  1.0000
  H   H1249     1.0  0.85994  0.10060  0.15668  1.0000
  H   H1250     1.0  0.86682  0.07784  0.15904  1.0000
  H   H1251     1.0  0.84631  0.05923  0.16639  1.0000
  H   H1252     1.0  0.80511  0.09261  0.15938  1.0000
  C   C1056     1.0  0.91137  0.17688  0.21683  1.0000
  H   H1253     1.0  0.67215  0.19749  0.27656  1.0000
  C   C1057     1.0  0.78442  0.08652  0.26326  1.0000
  C   C1058     1.0  0.80620  0.19999  0.14026  1.0000
  C   C1059     1.0  0.76405  0.19471  0.17304  1.0000
  C   C1060     1.0  0.79689  0.12626  0.17912  1.0000
  C   C1061     1.0  0.79225  0.06326  0.24765  1.0000
  H   H1254     1.0  0.76220  0.05470  0.28438  1.0000
  H   H1255     1.0  0.72680  0.15262  0.13538  1.0000
  H   H1256     1.0  0.81543  0.13496  0.18759  1.0000
  H   H1257     1.0  0.81552  0.09770  0.25362  1.0000
  C   C1062     1.0  0.77115  0.06159  0.27460  1.0000
  S   S290      1.0  0.76536  0.19929  0.19253  1.0000
  Fe  Fe146     1.0  0.78064  0.09209  0.99109  1.0000
  H   H1258     1.0  0.78569  0.10680  0.22351  1.0000
  C   C1063     1.0  0.81328  0.12541  0.18167  1.0000
  H   H1259     1.0  0.82906  0.17335  0.10575  1.0000
  H   H1260     1.0  0.79528  0.19617  0.09678  1.0000
  H   H1261     1.0  0.78150  0.11524  0.16890  1.0000
  H   H1262     1.0  0.77937  0.04197  0.25936  1.0000
  H   H1263     1.0  0.84079  0.18987  0.09351  1.0000
  H   H1264     1.0  0.83957  0.11332  0.17789  1.0000
  H   H1265     1.0  0.83537  0.98806  0.12807  1.0000
  H   H1266     1.0  0.97943  0.09274  0.21927  1.0000
  N   N69       1.0  0.80614  0.08954  0.23511  1.0000
  H   H1267     1.0  0.82361  0.18663  0.08610  1.0000
  C   C1064     1.0  0.81402  0.08156  0.21973  1.0000
  H   H1268     1.0  0.70969  0.14225  0.14914  1.0000
  C   C1065     1.0  0.82774  0.18674  0.09806  1.0000
  C   C1066     1.0  0.79778  0.19614  0.10957  1.0000
  C   C1067     1.0  0.81626  0.21679  0.09851  1.0000
  C   C1068     1.0  0.95423  0.06645  0.18559  1.0000
  H   H1269     1.0  0.74452  0.18596  0.28345  1.0000
  C   C1069     1.0  0.98163  0.07202  0.18672  1.0000
  H   H1270     1.0  0.72855  0.20662  0.21032  1.0000
  C   C1070     1.0  0.69595  0.22096  0.21884  1.0000
  C   C1071     1.0  0.79684  0.10718  0.22882  1.0000
  H   H1271     1.0  0.76554  0.08310  0.28705  1.0000
  H   H1272     1.0  0.70295  0.16731  0.30347  1.0000
  C   C1072     1.0  0.97194  0.06102  0.18479  1.0000
  H   H1273     1.0  0.74778  0.21410  0.13684  1.0000
  C   C1073     1.0  0.95560  0.09390  0.19054  1.0000
  H   H1274     1.0  0.81264  0.99449  0.12832  1.0000
  H   H1275     1.0  0.74532  0.14784  0.28242  1.0000
  H   H1276     1.0  0.82372  0.06744  0.16856  1.0000
  H   H1277     1.0  0.89569  0.13195  0.24021  1.0000
  C   C1074     1.0  0.83575  0.06979  0.17069  1.0000
  H   H1278     1.0  0.79998  0.20032  0.16755  1.0000
  C   C1075     1.0  0.80792  0.10159  0.16548  1.0000
  H   H1279     1.0  0.85631  0.08665  0.17774  1.0000
  N   N70       1.0  0.81532  0.19906  0.10824  1.0000
  H   H1280     1.0  0.96348  0.11061  0.21181  1.0000
  H   H1281     1.0  0.91078  0.12707  0.25421  1.0000
  C   C1076     1.0  0.82488  0.10050  0.16760  1.0000
  S   S291      1.0  0.70278  0.17971  0.25651  1.0000
  H   H1282     1.0  0.93228  0.08702  0.18908  1.0000
  H   H1283     1.0  0.72713  0.16509  0.28041  1.0000
  H   H1284     1.0  0.78621  0.13619  0.18333  1.0000
  H   H1285     1.0  0.79933  0.05682  0.23720  1.0000
  C   C1077     1.0  0.92345  0.18213  0.22259  1.0000
  H   H1286     1.0  0.75757  0.17867  0.29949  1.0000
  N   N71       1.0  0.89044  0.14910  0.25792  1.0000
  C   C1078     1.0  0.87218  0.15510  0.25593  1.0000
  H   H1287     1.0  0.78734  0.20642  0.11451  1.0000
  H   H1288     1.0  0.71082  0.14203  0.19552  1.0000
  H   H1289     1.0  0.86354  0.14700  0.26553  1.0000
  H   H1290     1.0  0.89205  0.16204  0.22303  1.0000
  C   C1079     1.0  0.79424  0.11441  0.17100  1.0000
  H   H1291     1.0  0.86725  0.16868  0.25748  1.0000
  H   H1292     1.0  0.83446  0.06826  0.18489  1.0000
  C   C1080     1.0  0.81935  0.19711  0.12544  1.0000
  C   C1081     1.0  0.83669  0.19361  0.12757  1.0000
  H   H1293     1.0  0.79267  0.20317  0.13991  1.0000
  H   H1294     1.0  0.98769  0.12684  0.18006  1.0000
  N   N72       1.0  0.73869  0.16325  0.30197  1.0000
  C   C1082     1.0  0.84054  0.19224  0.14367  1.0000
  H   H1295     1.0  0.76165  0.16739  0.28251  1.0000
  H   H1296     1.0  0.75078  0.22038  0.16395  1.0000
  C   C1083     1.0  0.89054  0.14725  0.27650  1.0000
  H   H1297     1.0  0.88142  0.13908  0.28509  1.0000
  H   H1298     1.0  0.88668  0.16000  0.28034  1.0000
  C   C1084     1.0  0.81022  0.19861  0.15629  1.0000
  H   H1299     1.0  0.85383  0.18870  0.14525  1.0000
  C   C1085     1.0  0.97740  0.10470  0.20923  1.0000
  H   H1300     1.0  0.90345  0.14076  0.27949  1.0000
  C   C1086     1.0  0.73382  0.15522  0.28996  1.0000
  C   C1087     1.0  0.82733  0.19462  0.15801  1.0000
  C   C1088     1.0  0.75109  0.17430  0.29145  1.0000
  H   H1301     1.0  0.83040  0.19291  0.17059  1.0000
  H   H1302     1.0  0.81328  0.21899  0.08544  1.0000
  H   H1303     1.0  0.75348  0.14923  0.14595  1.0000
  C   C1089     1.0  0.71514  0.12950  0.19222  1.0000
  H   H1304     1.0  0.72643  0.19710  0.26342  1.0000
  H   H1305     1.0  0.75469  0.13919  0.16798  1.0000
  N   N73       1.0  0.73026  0.14128  0.16154  1.0000
  H   H1306     1.0  0.82329  0.00786  0.13448  1.0000
  H   H1307     1.0  0.80174  0.00695  0.16208  1.0000
  H   H1308     1.0  0.97817  0.04818  0.18268  1.0000
  C   C1090     1.0  0.71118  0.21365  0.28070  1.0000
  H   H1309     1.0  0.68026  0.23580  0.24393  1.0000
  H   H1310     1.0  0.66769  0.21918  0.29471  1.0000
  S   S292      1.0  0.69264  0.23484  0.30271  1.0000
  H   H1311     1.0  0.71679  0.23327  0.19078  1.0000
  H   H1312     1.0  0.96692  0.12386  0.18012  1.0000
  C   C1091     1.0  0.70633  0.17410  0.31147  1.0000
  H   H1313     1.0  0.83160  0.00073  0.16198  1.0000
  C   C1092     1.0  0.74761  0.14922  0.31405  1.0000
  H   H1314     1.0  0.98510  0.11510  0.16524  1.0000
  H   H1315     1.0  0.73779  0.21869  0.21940  1.0000
  N   N74       1.0  0.98350  0.10100  0.19155  1.0000
  C   C1093     1.0  0.98069  0.11736  0.17870  1.0000
  C   C1094     1.0  0.71247  0.19363  0.33196  1.0000
  C   C1095     1.0  0.59309  0.21115  0.43150  1.0000
  H   H1316     1.0  0.59815  0.19868  0.43878  1.0000
  C   C1096     1.0  0.59884  0.21527  0.41363  1.0000
  H   H1317     1.0  0.60850  0.20605  0.40701  1.0000
  H   H1318     1.0  0.68495  0.20247  0.33763  1.0000
  H   H1319     1.0  0.57634  0.21994  0.45390  1.0000
  C   C1097     1.0  0.59250  0.23140  0.40417  1.0000
  H   H1320     1.0  0.71475  0.20162  0.33958  1.0000
  C   C1098     1.0  0.58086  0.22312  0.44000  1.0000
  H   H1321     1.0  0.67284  0.23640  0.49039  1.0000
  C   C1099     1.0  0.69563  0.19407  0.33097  1.0000
  H   H1322     1.0  0.59773  0.23373  0.39041  1.0000
  C   C1100     1.0  0.72634  0.18339  0.32280  1.0000
  H   H1323     1.0  0.73872  0.14067  0.32229  1.0000
  H   H1324     1.0  0.75260  0.15424  0.32286  1.0000
  H   H1325     1.0  0.73914  0.18349  0.32403  1.0000
  C   C1101     1.0  0.69257  0.18416  0.32093  1.0000
  H   H1326     1.0  0.67943  0.18487  0.31991  1.0000
  Fe  Fe147     1.0  0.80105  0.07791  0.95948  1.0000
  H   H1327     1.0  0.83912  0.14850  0.95553  1.0000
  S   S293      1.0  0.82475  0.06150  0.94687  1.0000
  Fe  Fe148     1.0  0.77822  0.11337  0.95516  1.0000
  C   C1102     1.0  0.76111  0.02541  0.97277  1.0000
  S   S294      1.0  0.77598  0.13914  0.93702  1.0000
  H   H1328     1.0  0.79871  0.14768  0.87623  1.0000
  Fe  Fe149     1.0  0.76231  0.08194  0.96807  1.0000
  H   H1329     1.0  0.69596  0.07531  0.89497  1.0000
  S   S295      1.0  0.80053  0.10171  0.96851  1.0000
  S   S296      1.0  0.78079  0.09043  0.94387  1.0000
  H   H1330     1.0  0.78255  0.99575  0.83837  1.0000
  Fe  Fe150     1.0  0.87667  0.11830  0.88573  1.0000
  S   S297      1.0  0.89277  0.09737  0.87192  1.0000
  S   S298      1.0  0.87180  0.11581  0.91445  1.0000
  Fe  Fe151     1.0  0.87150  0.14380  0.85271  1.0000
  S   S299      1.0  0.88778  0.12535  0.83601  1.0000
  S   S300      1.0  0.86013  0.17099  0.84142  1.0000
  Fe  Fe152     1.0  0.87317  0.10614  0.85496  1.0000
  S   S301      1.0  0.86103  0.09089  0.84354  1.0000
  Fe  Fe153     1.0  0.90579  0.11851  0.85455  1.0000
  S   S302      1.0  0.93502  0.11291  0.84829  1.0000
  S   S303      1.0  0.85579  0.12523  0.87049  1.0000
  S   S304      1.0  0.89079  0.13877  0.86955  1.0000
  H   H1331     1.0  0.77381  0.15940  0.90280  1.0000
  Fe  Fe154     1.0  0.73351  0.17455  0.82471  1.0000
  S   S305      1.0  0.76029  0.17443  0.80894  1.0000
  S   S306      1.0  0.70918  0.19200  0.81729  1.0000
  Fe  Fe155     1.0  0.74653  0.14881  0.85498  1.0000
  S   S307      1.0  0.77443  0.14665  0.84190  1.0000
  S   S308      1.0  0.73855  0.13257  0.88105  1.0000
  Fe  Fe156     1.0  0.76733  0.17527  0.83345  1.0000
  S   S309      1.0  0.78264  0.19497  0.83195  1.0000
  Fe  Fe157     1.0  0.76493  0.14592  0.81878  1.0000
  S   S310      1.0  0.78024  0.12916  0.80016  1.0000
  S   S311      1.0  0.74016  0.17759  0.84869  1.0000
  S   S312      1.0  0.73747  0.14575  0.83240  1.0000
  Fe  Fe158     1.0  0.76618  0.02689  0.88922  1.0000
  S   S313      1.0  0.78817  0.00589  0.89630  1.0000
  S   S314      1.0  0.74177  0.03274  0.90861  1.0000
  Fe  Fe159     1.0  0.78411  0.03537  0.85173  1.0000
  S   S315      1.0  0.80771  0.01516  0.85580  1.0000
  S   S316      1.0  0.78331  0.04915  0.82437  1.0000
  H   H1332     1.0  0.77557  0.01098  0.79333  1.0000
  Fe  Fe160     1.0  0.80448  0.02483  0.87999  1.0000
  S   S317      1.0  0.82542  0.02979  0.89029  1.0000
  S   S318      1.0  0.76557  0.01790  0.86562  1.0000
  S   S319      1.0  0.78224  0.04646  0.87471  1.0000
  C   C1103     1.0  0.80875  0.00345  0.81379  1.0000
  C   C1104     1.0  0.78166  0.10693  0.80771  1.0000
  C   C1105     1.0  0.77883  0.09951  0.82543  1.0000
  C   C1106     1.0  0.78003  0.08157  0.83085  1.0000
  C   C1107     1.0  0.78351  0.07127  0.81853  1.0000
  C   C1108     1.0  0.78642  0.07878  0.80091  1.0000
  C   C1109     1.0  0.78571  0.09649  0.79553  1.0000
  H   H1333     1.0  0.77560  0.10758  0.83489  1.0000
  H   H1334     1.0  0.77765  0.07585  0.84449  1.0000
  H   H1335     1.0  0.78910  0.07090  0.79135  1.0000
  H   H1336     1.0  0.78787  0.10220  0.78185  1.0000
  H   H1337     1.0  0.81824  0.13275  0.83680  1.0000
  H   H1338     1.0  0.82977  0.02001  0.95102  1.0000
  C   C1110     1.0  0.69488  0.21367  0.79081  1.0000
  C   C1111     1.0  0.70891  0.20082  0.79527  1.0000
  C   C1112     1.0  0.72255  0.19554  0.78220  1.0000
  H   H1339     1.0  0.79799  0.03827  0.92194  1.0000
  C   C1113     1.0  0.77828  0.02667  0.96550  1.0000
  H   H1340     1.0  0.69793  0.10501  0.91062  1.0000
  H   H1341     1.0  0.73328  0.18544  0.78549  1.0000
  H   H1342     1.0  0.82854  0.11145  0.83404  1.0000
  C   C1114     1.0  0.85191  0.07341  0.85655  1.0000
  C   C1115     1.0  0.85456  0.06642  0.87340  1.0000
  C   C1116     1.0  0.84696  0.05252  0.88343  1.0000
  C   C1117     1.0  0.83622  0.04597  0.87687  1.0000
  C   C1118     1.0  0.83352  0.05300  0.86005  1.0000
  C   C1119     1.0  0.84158  0.06650  0.84982  1.0000
  H   H1343     1.0  0.86261  0.07159  0.87862  1.0000
  H   H1344     1.0  0.84914  0.04703  0.89641  1.0000
  H   H1345     1.0  0.82529  0.04801  0.85487  1.0000
  H   H1346     1.0  0.83953  0.07179  0.83677  1.0000
  C   C1120     1.0  0.83845  0.17678  0.83925  1.0000
  C   C1121     1.0  0.83199  0.19401  0.83253  1.0000
  C   C1122     1.0  0.81483  0.19938  0.83056  1.0000
  C   C1123     1.0  0.80396  0.18755  0.83514  1.0000
  C   C1124     1.0  0.81028  0.17027  0.84206  1.0000
  C   C1125     1.0  0.82755  0.16486  0.84417  1.0000
  H   H1347     1.0  0.84032  0.20328  0.82880  1.0000
  H   H1348     1.0  0.81003  0.21275  0.82529  1.0000
  H   H1349     1.0  0.80187  0.16116  0.84580  1.0000
  H   H1350     1.0  0.83239  0.15157  0.84958  1.0000
  C   C1126     1.0  0.96277  0.14362  0.86830  1.0000
  C   C1127     1.0  0.94637  0.15096  0.86451  1.0000
  C   C1128     1.0  0.93773  0.14165  0.85839  1.0000
  C   C1129     1.0  0.94539  0.12487  0.85614  1.0000
  C   C1130     1.0  0.96171  0.11747  0.86007  1.0000
  C   C1131     1.0  0.97042  0.12683  0.86604  1.0000
  H   H1351     1.0  0.94038  0.16397  0.86618  1.0000
  H   H1352     1.0  0.92527  0.14758  0.85516  1.0000
  H   H1353     1.0  0.96760  0.10441  0.85858  1.0000
  C   C1132     1.0  0.78814  0.01785  0.95214  1.0000
  C   C1133     1.0  0.84024  0.07434  0.93868  1.0000
  C   C1134     1.0  0.84309  0.08418  0.94901  1.0000
  C   C1135     1.0  0.85379  0.09619  0.94177  1.0000
  C   C1136     1.0  0.86115  0.09871  0.92409  1.0000
  C   C1137     1.0  0.85876  0.08847  0.91390  1.0000
  C   C1138     1.0  0.84849  0.07610  0.92126  1.0000
  H   H1354     1.0  0.83690  0.08262  0.96257  1.0000
  H   H1355     1.0  0.85573  0.10401  0.94971  1.0000
  H   H1356     1.0  0.86426  0.09044  0.90021  1.0000
  H   H1357     1.0  0.84618  0.06859  0.91325  1.0000
  C   C1139     1.0  0.74124  0.06089  0.95047  1.0000
  C   C1140     1.0  0.75625  0.05823  0.93767  1.0000
  C   C1141     1.0  0.75679  0.04929  0.92482  1.0000
  C   C1142     1.0  0.74224  0.04322  0.92473  1.0000
  C   C1143     1.0  0.72726  0.04616  0.93734  1.0000
  C   C1144     1.0  0.72678  0.05490  0.95016  1.0000
  H   H1358     1.0  0.76746  0.06273  0.93794  1.0000
  H   H1359     1.0  0.76835  0.04709  0.91503  1.0000
  H   H1360     1.0  0.71600  0.04154  0.93729  1.0000
  H   H1361     1.0  0.71519  0.05688  0.96002  1.0000
  C   C1145     1.0  0.76404  0.13886  0.92204  1.0000
  C   C1146     1.0  0.75339  0.12688  0.92599  1.0000
  C   C1147     1.0  0.74503  0.12552  0.91354  1.0000
  C   C1148     1.0  0.74745  0.13600  0.89702  1.0000
  C   C1149     1.0  0.75758  0.14845  0.89322  1.0000
  C   C1150     1.0  0.76572  0.15001  0.90582  1.0000
  H   H1362     1.0  0.75151  0.11866  0.93870  1.0000
  H   H1363     1.0  0.73691  0.11614  0.91672  1.0000
  H   H1364     1.0  0.75937  0.15670  0.88051  1.0000
  C   C1151     1.0  0.72238  0.20342  0.76480  1.0000
  C   C1152     1.0  0.81581  0.00699  0.93349  1.0000
  N   N75       1.0  0.82943  0.13061  0.81024  1.0000
  C   C1153     1.0  0.84654  0.13329  0.81086  1.0000
  C   C1154     1.0  0.81893  0.14777  0.80429  1.0000
  C   C1155     1.0  0.82068  0.12360  0.82802  1.0000
  C   C1156     1.0  0.83162  0.11821  0.79903  1.0000
  C   C1157     1.0  0.82347  0.12206  0.78466  1.0000
  C   C1158     1.0  0.84170  0.10141  0.80275  1.0000
  C   C1159     1.0  0.82512  0.10971  0.77494  1.0000
  C   C1160     1.0  0.84327  0.08915  0.79296  1.0000
  C   C1161     1.0  0.83493  0.09327  0.77913  1.0000
  H   H1365     1.0  0.85392  0.13765  0.79763  1.0000
  H   H1366     1.0  0.82479  0.15378  0.79095  1.0000
  H   H1367     1.0  0.81786  0.15693  0.81268  1.0000
  H   H1368     1.0  0.80547  0.14691  0.80459  1.0000
  H   H1369     1.0  0.80808  0.12078  0.82790  1.0000
  H   H1370     1.0  0.81527  0.13435  0.78095  1.0000
  H   H1371     1.0  0.84826  0.09752  0.81344  1.0000
  H   H1372     1.0  0.81836  0.11283  0.76437  1.0000
  H   H1373     1.0  0.85086  0.07633  0.79630  1.0000
  H   H1374     1.0  0.83592  0.08366  0.77173  1.0000
  N   N76       1.0  0.79400  0.09014  0.88773  1.0000
  C   C1162     1.0  0.77489  0.09358  0.89212  1.0000
  C   C1163     1.0  0.79989  0.08902  0.86919  1.0000
  C   C1164     1.0  0.80021  0.07310  0.89825  1.0000
  C   C1165     1.0  0.80040  0.10425  0.89073  1.0000
  C   C1166     1.0  0.79585  0.12131  0.88144  1.0000
  C   C1167     1.0  0.81176  0.10151  0.90220  1.0000
  C   C1168     1.0  0.80255  0.13469  0.88323  1.0000
  C   C1169     1.0  0.81839  0.11497  0.90384  1.0000
  C   C1170     1.0  0.81382  0.13150  0.89437  1.0000
  H   H1375     1.0  0.76908  0.10539  0.88368  1.0000
  H   H1376     1.0  0.76973  0.08284  0.89060  1.0000
  H   H1377     1.0  0.77003  0.09538  0.90575  1.0000
  H   H1378     1.0  0.79366  0.10038  0.86055  1.0000
  H   H1379     1.0  0.79700  0.07752  0.86652  1.0000
  H   H1380     1.0  0.81408  0.08820  0.86510  1.0000
  H   H1381     1.0  0.79563  0.07296  0.91234  1.0000
  H   H1382     1.0  0.79564  0.06261  0.89548  1.0000
  H   H1383     1.0  0.81452  0.06959  0.89545  1.0000
  H   H1384     1.0  0.78694  0.12442  0.87284  1.0000
  H   H1385     1.0  0.81583  0.08909  0.91007  1.0000
  H   H1386     1.0  0.82723  0.11246  0.91243  1.0000
  H   H1387     1.0  0.81904  0.14184  0.89564  1.0000
  H   H1388     1.0  0.84534  0.14313  0.81858  1.0000
  H   H1389     1.0  0.68401  0.23166  0.77009  1.0000
  C   C1171     1.0  0.83637  0.16224  0.90545  1.0000
  H   H1390     1.0  0.73304  0.19938  0.75473  1.0000
  H   H1391     1.0  0.81825  0.03977  0.92561  1.0000
  C   C1172     1.0  0.72818  0.10201  0.84445  1.0000
  C   C1173     1.0  0.98087  0.15172  0.81783  1.0000
  H   H1392     1.0  0.85463  0.12142  0.81702  1.0000
  H   H1393     1.0  0.83993  0.16779  0.93904  1.0000
  H   H1394     1.0  0.79849  0.04780  0.93935  1.0000
  C   C1174     1.0  0.74859  0.21868  0.79669  1.0000
  N   N77       1.0  0.66169  0.20018  0.74294  1.0000
  C   C1175     1.0  0.66386  0.18157  0.75087  1.0000
  C   C1176     1.0  0.65426  0.20307  0.72737  1.0000
  C   C1177     1.0  0.67895  0.20481  0.73695  1.0000
  C   C1178     1.0  0.65095  0.21031  0.75598  1.0000
  H   H1395     1.0  0.81237  0.99561  0.82613  1.0000
  H   H1396     1.0  0.67083  0.17809  0.76172  1.0000
  C   C1179     1.0  0.65666  0.20938  0.77132  1.0000
  H   H1397     1.0  0.72501  0.21562  0.82631  1.0000
  S   S320      1.0  0.75807  0.10589  0.97854  1.0000
  H   H1398     1.0  0.74495  0.21789  0.82973  1.0000
  S   S321      1.0  0.78286  0.06726  0.98286  1.0000
  C   C1180     1.0  0.80512  0.03726  0.93219  1.0000
  H   H1399     1.0  0.64142  0.19942  0.73073  1.0000
  H   H1400     1.0  0.66266  0.19539  0.71777  1.0000
  C   C1181     1.0  0.78842  0.01147  0.79516  1.0000
  C   C1182     1.0  0.77948  0.00821  0.94610  1.0000
  H   H1401     1.0  0.68720  0.19822  0.72644  1.0000
  H   H1402     1.0  0.67782  0.21891  0.73183  1.0000
  H   H1403     1.0  0.82945  0.00850  0.92817  1.0000
  H   H1404     1.0  0.81132  0.03047  0.96361  1.0000
  C   C1183     1.0  0.81602  0.01935  0.95702  1.0000
  C   C1184     1.0  0.83890  0.15405  0.94161  1.0000
  C   C1185     1.0  0.72106  0.10304  0.86178  1.0000
  H   H1405     1.0  0.68428  0.21776  0.80089  1.0000
  H   H1406     1.0  0.81594  0.99374  0.94136  1.0000
  N   N78       1.0  0.80599  0.02017  0.94388  1.0000
  N   N79       1.0  0.73823  0.23282  0.80551  1.0000
  C   C1186     1.0  0.81907  0.17972  0.88480  1.0000
  H   H1407     1.0  0.98290  0.12090  0.86917  1.0000
  H   H1408     1.0  0.90883  0.10230  0.89828  1.0000
  H   H1409     1.0  0.90217  0.10360  0.92995  1.0000
  H   H1410     1.0  0.92372  0.13282  0.89379  1.0000
  H   H1411     1.0  0.69975  0.07531  0.91582  1.0000
  C   C1187     1.0  0.76219  0.00727  0.95328  1.0000
  H   H1412     1.0  0.71454  0.06178  0.90263  1.0000
  H   H1413     1.0  0.51149  0.23008  0.70654  1.0000
  H   H1414     1.0  0.97782  0.14625  0.80805  1.0000
  C   C1188     1.0  0.63478  0.22131  0.75397  1.0000
  H   H1415     1.0  0.79175  0.18549  0.89463  1.0000
  H   H1416     1.0  0.75406  0.22321  0.78282  1.0000
  C   C1189     1.0  0.92267  0.09947  0.89909  1.0000
  C   C1190     1.0  0.91635  0.10131  0.92917  1.0000
  C   C1191     1.0  0.91742  0.12681  0.90696  1.0000
  H   H1417     1.0  0.92638  0.08525  0.90264  1.0000
  H   H1418     1.0  0.92074  0.08717  0.93307  1.0000
  H   H1419     1.0  0.91841  0.10740  0.93903  1.0000
  C   C1192     1.0  0.70608  0.07474  0.90210  1.0000
  C   C1193     1.0  0.72999  0.08659  0.90284  1.0000
  C   C1194     1.0  0.82159  0.16212  0.91918  1.0000
  C   C1195     1.0  0.97172  0.08526  0.91433  1.0000
  N   N80       1.0  0.92552  0.10832  0.91160  1.0000
  H   H1420     1.0  0.93016  0.10363  0.88586  1.0000
  H   H1421     1.0  0.71424  0.11559  0.86421  1.0000
  H   H1422     1.0  0.72663  0.23502  0.83204  1.0000
  H   H1423     1.0  0.91796  0.13419  0.91645  1.0000
  H   H1424     1.0  0.90351  0.12859  0.90673  1.0000
  N   N81       1.0  0.71575  0.08884  0.89384  1.0000
  S   S322      1.0  0.73999  0.07093  0.96753  1.0000
  C   C1196     1.0  0.70364  0.10524  0.89663  1.0000
  C   C1197     1.0  0.82393  0.13403  0.93758  1.0000
  H   H1425     1.0  0.65287  0.21679  0.72049  1.0000
  H   H1426     1.0  0.68637  0.20134  0.74743  1.0000
  S   S323      1.0  0.70888  0.22618  0.73844  1.0000
  N   N82       1.0  0.82303  0.15240  0.93693  1.0000
  H   H1427     1.0  0.74823  0.06003  0.84965  1.0000
  H   H1428     1.0  0.65182  0.21839  0.79507  1.0000
  C   C1198     1.0  0.74040  0.07197  0.85309  1.0000
  C   C1199     1.0  0.70857  0.21656  0.76038  1.0000
  H   H1429     1.0  0.97293  0.14723  0.83074  1.0000
  C   C1200     1.0  0.72312  0.08831  0.87533  1.0000
  C   C1201     1.0  0.94419  0.10538  0.91139  1.0000
  H   H1430     1.0  0.94675  0.13243  0.90632  1.0000
  H   H1431     1.0  0.81568  0.00732  0.96706  1.0000
  C   C1202     1.0  0.95409  0.08836  0.91434  1.0000
  C   C1203     1.0  0.95300  0.11903  0.90880  1.0000
  H   H1432     1.0  0.94824  0.07733  0.91669  1.0000
  C   C1204     1.0  0.73775  0.08652  0.84012  1.0000
  H   H1433     1.0  0.73606  0.06124  0.88001  1.0000
  S   S324      1.0  0.97320  0.15578  0.87587  1.0000
  C   C1205     1.0  0.73331  0.07282  0.87044  1.0000
  H   H1434     1.0  0.72648  0.11336  0.83429  1.0000
  H   H1435     1.0  0.77614  0.01713  0.82680  1.0000
  C   C1206     1.0  0.62522  0.23099  0.76637  1.0000
  H   H1436     1.0  0.49882  0.23529  0.72702  1.0000
  C   C1207     1.0  0.80810  0.15825  0.95039  1.0000
  H   H1437     1.0  0.73939  0.07437  0.90158  1.0000
  C   C1208     1.0  0.63132  0.22993  0.78115  1.0000
  H   H1438     1.0  0.74056  0.20933  0.79738  1.0000
  H   H1439     1.0  0.81214  0.13205  0.93453  1.0000
  H   H1440     1.0  0.79815  0.00840  0.78347  1.0000
  H   H1441     1.0  0.80577  0.17241  0.94933  1.0000
  C   C1209     1.0  0.75306  0.01578  0.96663  1.0000
  H   H1442     1.0  0.81002  0.15189  0.96374  1.0000
  H   H1443     1.0  0.76657  0.00036  0.82548  1.0000
  C   C1210     1.0  0.83508  0.17113  0.88860  1.0000
  N   N83       1.0  0.79294  0.99955  0.81111  1.0000
  H   H1444     1.0  0.81812  0.18651  0.87170  1.0000
  H   H1445     1.0  0.78560  0.00168  0.93552  1.0000
  H   H1446     1.0  0.66883  0.20135  0.77376  1.0000
  H   H1447     1.0  0.81984  0.00120  0.80287  1.0000
  H   H1448     1.0  0.74349  0.08588  0.82668  1.0000
  H   H1449     1.0  0.69282  0.10794  0.88976  1.0000
  H   H1450     1.0  0.79334  0.17009  0.92396  1.0000
  H   H1451     1.0  0.71027  0.11636  0.89221  1.0000
  H   H1452     1.0  0.67150  0.17349  0.74131  1.0000
  H   H1453     1.0  0.78344  0.03523  0.97000  1.0000
  H   H1454     1.0  0.80680  0.01716  0.81480  1.0000
  H   H1455     1.0  0.82521  0.12601  0.95060  1.0000
  H   H1456     1.0  0.62937  0.22305  0.74272  1.0000
  H   H1457     1.0  0.81055  0.00826  0.92183  1.0000
  H   H1458     1.0  0.73720  0.09723  0.89730  1.0000
  Fe  Fe161     1.0  0.78900  0.99828  0.87141  1.0000
  C   C1211     1.0  0.64698  0.21909  0.78365  1.0000
  H   H1459     1.0  0.72521  0.08642  0.91696  1.0000
  H   H1460     1.0  0.97629  0.16592  0.81459  1.0000
  C   C1212     1.0  0.73340  0.22508  0.82420  1.0000
  C   C1213     1.0  0.80425  0.17923  0.89777  1.0000
  C   C1214     1.0  0.77891  0.00333  0.82602  1.0000
  H   H1461     1.0  0.97907  0.07218  0.91645  1.0000
  C   C1215     1.0  0.69473  0.22157  0.77340  1.0000
  H   H1462     1.0  0.75372  0.03272  0.98259  1.0000
  H   H1463     1.0  0.83514  0.12893  0.92801  1.0000
  H   H1464     1.0  0.84653  0.17113  0.87831  1.0000
  H   H1465     1.0  0.85086  0.14683  0.93447  1.0000
  H   H1466     1.0  0.79603  0.15481  0.94963  1.0000
  H   H1467     1.0  0.84901  0.15515  0.90740  1.0000
  C   C1216     1.0  0.80538  0.17046  0.91469  1.0000
  H   H1468     1.0  0.75566  0.00037  0.94806  1.0000
  C   C1217     1.0  0.97059  0.11575  0.90894  1.0000
  H   H1469     1.0  0.65111  0.17772  0.75610  1.0000
  C   C1218     1.0  0.97997  0.09894  0.91158  1.0000
  H   H1470     1.0  0.75979  0.21151  0.80277  1.0000
  H   H1471     1.0  0.98195  0.11949  0.82578  1.0000
  H   H1472     1.0  0.78777  0.02515  0.79556  1.0000
  H   H1473     1.0  0.97702  0.12642  0.90666  1.0000
  H   H1474     1.0  0.73952  0.01548  0.97180  1.0000
  H   H1475     1.0  0.58415  0.35883  0.30115  1.0000
  H   H1476     1.0  0.70386  0.25144  0.19988  1.0000
  H   H1477     1.0  0.69915  0.26438  0.26927  1.0000
  Fe  Fe162     1.0  0.63234  0.27258  0.31809  1.0000
  C   C1219     1.0  0.64597  0.36146  0.30121  1.0000
  C   C1220     1.0  0.72024  0.24594  0.23465  1.0000
  C   C1221     1.0  0.54350  0.37876  0.30484  1.0000
  S   S325      1.0  0.65867  0.27766  0.30459  1.0000
  H   H1478     1.0  0.61624  0.31972  0.29009  1.0000
  H   H1479     1.0  0.52547  0.36864  0.29705  1.0000
  C   C1222     1.0  0.71732  0.25525  0.24767  1.0000
  H   H1480     1.0  0.72654  0.24503  0.19987  1.0000
  S   S326      1.0  0.60886  0.28477  0.30662  1.0000
  C   C1223     1.0  0.61775  0.34545  0.30543  1.0000
  H   H1481     1.0  0.72758  0.26051  0.24930  1.0000
  H   H1482     1.0  0.73288  0.24452  0.22629  1.0000
  C   C1224     1.0  0.63511  0.33663  0.30116  1.0000
  H   H1483     1.0  0.60426  0.34019  0.28103  1.0000
  C   C1225     1.0  0.58604  0.34757  0.31199  1.0000
  H   H1484     1.0  0.63815  0.32328  0.30003  1.0000
  H   H1485     1.0  0.62688  0.38355  0.30737  1.0000
  C   C1226     1.0  0.60440  0.32968  0.29274  1.0000
  H   H1486     1.0  0.59346  0.32323  0.29433  1.0000
  H   H1487     1.0  0.54634  0.38735  0.29246  1.0000
  C   C1227     1.0  0.61514  0.36276  0.30733  1.0000
  H   H1488     1.0  0.65674  0.36735  0.30026  1.0000
  H   H1489     1.0  0.66209  0.33731  0.29652  1.0000
  C   C1228     1.0  0.62912  0.37054  0.30530  1.0000
  C   C1229     1.0  0.70129  0.25760  0.25883  1.0000
  C   C1230     1.0  0.64896  0.34458  0.29905  1.0000
  N   N84       1.0  0.60336  0.33644  0.30831  1.0000
  C   C1231     1.0  0.71460  0.24011  0.20158  1.0000
  H   H1490     1.0  0.49602  0.32394  0.31301  1.0000
  S   S327      1.0  0.56620  0.39215  0.31404  1.0000
  Fe  Fe163     1.0  0.66819  0.25009  0.31664  1.0000
  H   H1491     1.0  0.60247  0.37054  0.31066  1.0000
  C   C1232     1.0  0.53171  0.36814  0.30742  1.0000
  H   H1492     1.0  0.57320  0.30209  0.31343  1.0000
  H   H1493     1.0  0.67580  0.25226  0.26604  1.0000
  H   H1494     1.0  0.57547  0.34053  0.31384  1.0000
  C   C1233     1.0  0.55145  0.37851  0.31820  1.0000
  H   H1495     1.0  0.62649  0.48187  0.31130  1.0000
  C   C1234     1.0  0.69093  0.24120  0.24417  1.0000
  C   C1235     1.0  0.68810  0.25075  0.25697  1.0000
  C   C1236     1.0  0.70718  0.23846  0.23259  1.0000
  H   H1496     1.0  0.50604  0.40389  0.31809  1.0000
  Fe  Fe164     1.0  0.65807  0.30500  0.60256  1.0000
  S   S328      1.0  0.63549  0.30164  0.62464  1.0000
  S   S329      1.0  0.68480  0.30439  0.60564  1.0000
  Fe  Fe165     1.0  0.63600  0.31496  0.57506  1.0000
  S   S330      1.0  0.61181  0.31279  0.59497  1.0000
  S   S331      1.0  0.63287  0.32483  0.54749  1.0000
  Fe  Fe166     1.0  0.62221  0.32606  0.60968  1.0000
  S   S332      1.0  0.60651  0.34881  0.62080  1.0000
  Fe  Fe167     1.0  0.62758  0.28869  0.60753  1.0000
  S   S333      1.0  0.61696  0.26458  0.61506  1.0000
  S   S334      1.0  0.64511  0.33032  0.58873  1.0000
  S   S335      1.0  0.65140  0.28989  0.58655  1.0000
  Fe  Fe168     1.0  0.57840  0.28739  0.46607  1.0000
  S   S336      1.0  0.59108  0.30613  0.44454  1.0000
  S   S337      1.0  0.55780  0.27570  0.46231  1.0000
  Fe  Fe169     1.0  0.60198  0.28579  0.48990  1.0000
  S   S338      1.0  0.61678  0.30418  0.47031  1.0000
  S   S339      1.0  0.61003  0.27358  0.51546  1.0000
  Fe  Fe170     1.0  0.59100  0.31915  0.46568  1.0000
  S   S340      1.0  0.58894  0.34759  0.46169  1.0000
  Fe  Fe171     1.0  0.61577  0.28962  0.45099  1.0000
  S   S341      1.0  0.63947  0.28532  0.43020  1.0000
  S   S342      1.0  0.57593  0.30196  0.48689  1.0000
  S   S343      1.0  0.60331  0.26964  0.47091  1.0000
  H   H1497     1.0  0.59430  0.24083  0.62758  1.0000
  Fe  Fe172     1.0  0.57131  0.39015  0.37464  1.0000
  S   S344      1.0  0.59337  0.40226  0.37336  1.0000
  S   S345      1.0  0.55284  0.38061  0.39847  1.0000
  H   H1498     1.0  0.65253  0.31086  0.50413  1.0000
  H   H1499     1.0  0.56525  0.33226  0.39595  1.0000
  H   H1500     1.0  0.59910  0.43634  0.39804  1.0000
  Fe  Fe173     1.0  0.58300  0.42239  0.35230  1.0000
  S   S346      1.0  0.57825  0.45073  0.35231  1.0000
  H   H1501     1.0  0.63115  0.44946  0.37149  1.0000
  S   S347      1.0  0.55971  0.41134  0.35517  1.0000
  C   C1237     1.0  0.62441  0.25258  0.41000  1.0000
  H   H1502     1.0  0.64267  0.31479  0.39772  1.0000
  H   H1503     1.0  0.49557  0.35452  0.38919  1.0000
  H   H1504     1.0  0.67868  0.27805  0.45794  1.0000
  N   N85       1.0  0.66339  0.26289  0.47897  1.0000
  H   H1505     1.0  0.58519  0.34342  0.40577  1.0000
  Fe  Fe174     1.0  0.50957  0.31290  0.38829  1.0000
  S   S348      1.0  0.51396  0.32438  0.40861  1.0000
  C   C1238     1.0  0.58716  0.43106  0.40362  1.0000
  S   S349      1.0  0.53095  0.31110  0.36504  1.0000
  C   C1239     1.0  0.59383  0.26073  0.58007  1.0000
  Fe  Fe175     1.0  0.60703  0.38759  0.35226  1.0000
  H   H1506     1.0  0.67013  0.36053  0.34151  1.0000
  C   C1240     1.0  0.64386  0.35242  0.64332  1.0000
  S   S350      1.0  0.67086  0.25663  0.34089  1.0000
  H   H1507     1.0  0.55442  0.43143  0.41807  1.0000
  C   C1241     1.0  0.53616  0.35632  0.33666  1.0000
  H   H1508     1.0  0.59311  0.41346  0.43505  1.0000
  H   H1509     1.0  0.53327  0.34771  0.34895  1.0000
  H   H1510     1.0  0.52610  0.35197  0.37840  1.0000
  H   H1511     1.0  0.60640  0.26222  0.57109  1.0000
  C   C1242     1.0  0.66240  0.35164  0.34139  1.0000
  C   C1243     1.0  0.50883  0.38824  0.39476  1.0000
  S   S351      1.0  0.58599  0.37324  0.35573  1.0000
  C   C1244     1.0  0.67512  0.26310  0.50503  1.0000
  Fe  Fe176     1.0  0.64349  0.25350  0.35131  1.0000
  C   C1245     1.0  0.60805  0.44944  0.36320  1.0000
  H   H1512     1.0  0.59379  0.31490  0.32619  1.0000
  H   H1513     1.0  0.59294  0.28684  0.59386  1.0000
  N   N86       1.0  0.57869  0.43588  0.42052  1.0000
  Fe  Fe177     1.0  0.57606  0.39553  0.33603  1.0000
  S   S352      1.0  0.63227  0.28116  0.34208  1.0000
  H   H1514     1.0  0.57678  0.27800  0.37756  1.0000
  H   H1515     1.0  0.61333  0.43757  0.35853  1.0000
  H   H1516     1.0  0.66935  0.29540  0.52655  1.0000
  H   H1517     1.0  0.60574  0.31971  0.64883  1.0000
  C   C1246     1.0  0.54507  0.28941  0.44794  1.0000
  C   C1247     1.0  0.53433  0.28270  0.44157  1.0000
  C   C1248     1.0  0.52505  0.29319  0.42907  1.0000
  C   C1249     1.0  0.52607  0.31056  0.42342  1.0000
  C   C1250     1.0  0.53650  0.31731  0.43007  1.0000
  C   C1251     1.0  0.54613  0.30675  0.44217  1.0000
  H   H1518     1.0  0.53328  0.26934  0.44622  1.0000
  H   H1519     1.0  0.51676  0.28798  0.42420  1.0000
  H   H1520     1.0  0.53715  0.33074  0.42580  1.0000
  H   H1521     1.0  0.55411  0.31211  0.44724  1.0000
  C   C1252     1.0  0.57787  0.35791  0.44507  1.0000
  C   C1253     1.0  0.56429  0.35149  0.44326  1.0000
  C   C1254     1.0  0.55606  0.35919  0.42933  1.0000
  C   C1255     1.0  0.56197  0.37270  0.41677  1.0000
  C   C1256     1.0  0.57547  0.37923  0.41863  1.0000
  C   C1257     1.0  0.58328  0.37198  0.43295  1.0000
  H   H1522     1.0  0.56007  0.34064  0.45266  1.0000
  H   H1523     1.0  0.54543  0.35439  0.42803  1.0000
  H   H1524     1.0  0.57988  0.38980  0.40906  1.0000
  H   H1525     1.0  0.59388  0.37684  0.43434  1.0000
  C   C1258     1.0  0.63703  0.27375  0.41588  1.0000
  C   C1259     1.0  0.64691  0.27560  0.39899  1.0000
  C   C1260     1.0  0.64519  0.26630  0.38747  1.0000
  C   C1261     1.0  0.63411  0.25458  0.39302  1.0000
  C   C1262     1.0  0.55491  0.26330  0.40396  1.0000
  C   C1263     1.0  0.62558  0.26242  0.42130  1.0000
  H   H1526     1.0  0.65591  0.28423  0.39475  1.0000
  H   H1527     1.0  0.66600  0.26690  0.45116  1.0000
  H   H1528     1.0  0.57359  0.27194  0.55706  1.0000
  H   H1529     1.0  0.68915  0.24755  0.47564  1.0000
  C   C1264     1.0  0.59631  0.26633  0.62827  1.0000
  C   C1265     1.0  0.67550  0.24607  0.47822  1.0000
  H   H1530     1.0  0.57041  0.27350  0.42472  1.0000
  H   H1531     1.0  0.64326  0.48329  0.32092  1.0000
  H   H1532     1.0  0.60081  0.29223  0.57120  1.0000
  C   C1266     1.0  0.58811  0.28130  0.63467  1.0000
  S   S353      1.0  0.63234  0.24240  0.37888  1.0000
  S   S354      1.0  0.51246  0.34440  0.32604  1.0000
  C   C1267     1.0  0.67642  0.29438  0.64141  1.0000
  H   H1533     1.0  0.59457  0.29205  0.63144  1.0000
  C   C1268     1.0  0.61821  0.35585  0.63202  1.0000
  H   H1534     1.0  0.63520  0.31930  0.34092  1.0000
  H   H1535     1.0  0.59793  0.37732  0.63792  1.0000
  H   H1536     1.0  0.50938  0.38234  0.40857  1.0000
  C   C1269     1.0  0.54783  0.36723  0.33416  1.0000
  C   C1270     1.0  0.63489  0.34702  0.63377  1.0000
  C   C1271     1.0  0.66855  0.28886  0.51684  1.0000
  C   C1272     1.0  0.53408  0.26921  0.61605  1.0000
  C   C1273     1.0  0.64443  0.35626  0.34520  1.0000
  H   H1537     1.0  0.64084  0.33595  0.62791  1.0000
  C   C1274     1.0  0.68801  0.30112  0.62688  1.0000
  C   C1275     1.0  0.70253  0.30567  0.62919  1.0000
  H   H1538     1.0  0.57975  0.25586  0.37748  1.0000
  C   C1276     1.0  0.56023  0.28506  0.33465  1.0000
  C   C1277     1.0  0.49574  0.38682  0.34104  1.0000
  H   H1539     1.0  0.60449  0.25346  0.33161  1.0000
  H   H1540     1.0  0.71182  0.31036  0.61805  1.0000
  C   C1278     1.0  0.57778  0.25747  0.34446  1.0000
  H   H1541     1.0  0.64308  0.25341  0.47410  1.0000
  H   H1542     1.0  0.66552  0.29026  0.63975  1.0000
  C   C1279     1.0  0.62645  0.31049  0.53880  1.0000
  C   C1280     1.0  0.62978  0.29278  0.54553  1.0000
  C   C1281     1.0  0.62500  0.28148  0.53808  1.0000
  C   C1282     1.0  0.61669  0.28786  0.52403  1.0000
  C   C1283     1.0  0.61321  0.30557  0.51741  1.0000
  C   C1284     1.0  0.61817  0.31686  0.52473  1.0000
  H   H1543     1.0  0.63632  0.28777  0.55628  1.0000
  H   H1544     1.0  0.62784  0.26776  0.54312  1.0000
  H   H1545     1.0  0.60658  0.31063  0.50673  1.0000
  H   H1546     1.0  0.61558  0.33055  0.51948  1.0000
  C   C1285     1.0  0.56295  0.42835  0.42754  1.0000
  N   N87       1.0  0.62057  0.33575  0.39853  1.0000
  C   C1286     1.0  0.61712  0.35451  0.39124  1.0000
  C   C1287     1.0  0.61773  0.33317  0.41761  1.0000
  C   C1288     1.0  0.63910  0.32876  0.39211  1.0000
  C   C1289     1.0  0.60866  0.32763  0.39373  1.0000
  C   C1290     1.0  0.59055  0.33360  0.39813  1.0000
  C   C1291     1.0  0.61448  0.31441  0.38392  1.0000
  Fe  Fe178     1.0  0.51036  0.32326  0.34974  1.0000
  C   C1292     1.0  0.60283  0.30815  0.37838  1.0000
  C   C1293     1.0  0.58518  0.31482  0.38238  1.0000
  H   H1547     1.0  0.61660  0.35694  0.37735  1.0000
  H   H1548     1.0  0.60460  0.36128  0.39787  1.0000
  H   H1549     1.0  0.62724  0.36092  0.39218  1.0000
  H   H1550     1.0  0.60424  0.33842  0.42357  1.0000
  H   H1551     1.0  0.62613  0.33956  0.42163  1.0000
  H   H1552     1.0  0.62062  0.31927  0.42354  1.0000
  H   H1553     1.0  0.64237  0.33067  0.37775  1.0000
  H   H1554     1.0  0.64771  0.33522  0.39575  1.0000
  H   H1555     1.0  0.65278  0.26790  0.37442  1.0000
  H   H1556     1.0  0.62798  0.30879  0.38019  1.0000
  Fe  Fe179     1.0  0.52334  0.28646  0.36594  1.0000
  H   H1557     1.0  0.60761  0.29810  0.37088  1.0000
  H   H1558     1.0  0.59625  0.26366  0.38259  1.0000
  H   H1559     1.0  0.53711  0.32842  0.62391  1.0000
  N   N88       1.0  0.68173  0.35998  0.59502  1.0000
  C   C1294     1.0  0.69446  0.37121  0.59120  1.0000
  C   C1295     1.0  0.68274  0.34818  0.61200  1.0000
  C   C1296     1.0  0.68698  0.34918  0.58168  1.0000
  C   C1297     1.0  0.66414  0.37071  0.59570  1.0000
  C   C1298     1.0  0.65337  0.37074  0.58448  1.0000
  C   C1299     1.0  0.65725  0.38156  0.60794  1.0000
  C   C1300     1.0  0.63655  0.38050  0.58600  1.0000
  C   C1301     1.0  0.64054  0.39148  0.60914  1.0000
  C   C1302     1.0  0.63013  0.39079  0.59835  1.0000
  H   H1560     1.0  0.69355  0.38077  0.57887  1.0000
  H   H1561     1.0  0.69248  0.37848  0.60158  1.0000
  H   H1562     1.0  0.70793  0.36361  0.58995  1.0000
  H   H1563     1.0  0.68026  0.35510  0.62273  1.0000
  H   H1564     1.0  0.69569  0.33969  0.61188  1.0000
  H   H1565     1.0  0.67320  0.33963  0.61539  1.0000
  H   H1566     1.0  0.68719  0.35713  0.56840  1.0000
  H   H1567     1.0  0.70010  0.34100  0.58179  1.0000
  H   H1568     1.0  0.67825  0.33998  0.58416  1.0000
  H   H1569     1.0  0.65746  0.36309  0.57463  1.0000
  H   H1570     1.0  0.66453  0.38213  0.61708  1.0000
  H   H1571     1.0  0.62832  0.37982  0.57776  1.0000
  H   H1572     1.0  0.63542  0.39928  0.61896  1.0000
  H   H1573     1.0  0.61696  0.39801  0.59976  1.0000
  N   N89       1.0  0.55743  0.34307  0.61449  1.0000
  C   C1303     1.0  0.53945  0.34138  0.62327  1.0000
  C   C1304     1.0  0.56917  0.32919  0.62396  1.0000
  C   C1305     1.0  0.55967  0.36000  0.61608  1.0000
  C   C1306     1.0  0.56176  0.34172  0.59603  1.0000
  C   C1307     1.0  0.55044  0.33724  0.58800  1.0000
  C   C1308     1.0  0.57808  0.34429  0.58566  1.0000
  C   C1309     1.0  0.55523  0.33561  0.57064  1.0000
  C   C1310     1.0  0.58283  0.34241  0.56840  1.0000
  C   C1311     1.0  0.57140  0.33817  0.56087  1.0000
  C   C1312     1.0  0.65906  0.29757  0.50418  1.0000
  H   H1574     1.0  0.53659  0.34297  0.63699  1.0000
  H   H1575     1.0  0.52988  0.35143  0.61678  1.0000
  H   H1576     1.0  0.58285  0.33037  0.61911  1.0000
  H   H1577     1.0  0.56815  0.31631  0.62274  1.0000
  C   C1313     1.0  0.58801  0.25240  0.63254  1.0000
  H   H1578     1.0  0.55574  0.36176  0.62974  1.0000
  H   H1579     1.0  0.57331  0.36155  0.61195  1.0000
  H   H1580     1.0  0.55186  0.37079  0.60825  1.0000
  H   H1581     1.0  0.53778  0.33499  0.59483  1.0000
  H   H1582     1.0  0.58749  0.34748  0.59093  1.0000
  H   H1583     1.0  0.54634  0.33238  0.56468  1.0000
  H   H1584     1.0  0.59553  0.34416  0.56083  1.0000
  H   H1585     1.0  0.57515  0.33681  0.54744  1.0000
  H   H1586     1.0  0.58958  0.25028  0.57685  1.0000
  S   S355      1.0  0.50342  0.28717  0.39066  1.0000
  C   C1314     1.0  0.66081  0.32406  0.33673  1.0000
  C   C1315     1.0  0.57167  0.25326  0.64343  1.0000
  H   H1587     1.0  0.57622  0.31019  0.37778  1.0000
  C   C1316     1.0  0.56484  0.27470  0.59160  1.0000
  C   C1317     1.0  0.67652  0.27165  0.51730  1.0000
  H   H1588     1.0  0.57867  0.43607  0.39397  1.0000
  Fe  Fe180     1.0  0.65938  0.28373  0.32964  1.0000
  H   H1589     1.0  0.56627  0.32946  0.63799  1.0000
  H   H1590     1.0  0.62462  0.47591  0.33458  1.0000
  H   H1591     1.0  0.59088  0.41686  0.40481  1.0000
  C   C1318     1.0  0.56189  0.26899  0.34595  1.0000
  H   H1592     1.0  0.54749  0.26170  0.41749  1.0000
  S   S356      1.0  0.54451  0.26344  0.36250  1.0000
  C   C1319     1.0  0.51825  0.39512  0.35673  1.0000
  C   C1320     1.0  0.61811  0.45618  0.37054  1.0000
  N   N90       1.0  0.58094  0.27711  0.57874  1.0000
  H   H1593     1.0  0.61661  0.31206  0.32082  1.0000
  C   C1321     1.0  0.57734  0.28229  0.56099  1.0000
  C   C1322     1.0  0.58890  0.29049  0.58118  1.0000
  C   C1323     1.0  0.55532  0.26282  0.59059  1.0000
  H   H1594     1.0  0.61605  0.24338  0.41449  1.0000
  C   C1324     1.0  0.59221  0.26233  0.33242  1.0000
  C   C1325     1.0  0.55826  0.28372  0.60546  1.0000
  H   H1595     1.0  0.68447  0.33248  0.33373  1.0000
  C   C1326     1.0  0.58035  0.24409  0.41249  1.0000
  H   H1596     1.0  0.65575  0.28543  0.45966  1.0000
  H   H1597     1.0  0.55250  0.25347  0.39806  1.0000
  H   H1598     1.0  0.58534  0.43160  0.44542  1.0000
  H   H1599     1.0  0.52612  0.41115  0.33193  1.0000
  H   H1600     1.0  0.54790  0.29387  0.33543  1.0000
  H   H1601     1.0  0.56683  0.29390  0.55982  1.0000
  H   H1602     1.0  0.68141  0.24973  0.50631  1.0000
  C   C1327     1.0  0.60461  0.32184  0.32329  1.0000
  H   H1603     1.0  0.58001  0.30324  0.58026  1.0000
  H   H1604     1.0  0.60450  0.32630  0.33513  1.0000
  H   H1605     1.0  0.56480  0.29263  0.60763  1.0000
  H   H1606     1.0  0.52786  0.39803  0.36186  1.0000
  H   H1607     1.0  0.59025  0.27441  0.40947  1.0000
  H   H1608     1.0  0.59645  0.25617  0.59341  1.0000
  C   C1328     1.0  0.58460  0.47359  0.36783  1.0000
  H   H1609     1.0  0.61798  0.26084  0.43435  1.0000
  C   C1329     1.0  0.58205  0.26487  0.38436  1.0000
  C   C1330     1.0  0.52796  0.35691  0.32330  1.0000
  C   C1331     1.0  0.63449  0.34457  0.34515  1.0000
  H   H1610     1.0  0.55529  0.43301  0.43946  1.0000
  H   H1611     1.0  0.56614  0.41401  0.43091  1.0000
  H   H1612     1.0  0.56535  0.24240  0.64676  1.0000
  S   S357      1.0  0.67212  0.30489  0.32987  1.0000
  H   H1613     1.0  0.62057  0.34804  0.34811  1.0000
  C   C1332     1.0  0.65737  0.28910  0.49202  1.0000
  N   N91       1.0  0.57362  0.26145  0.40297  1.0000
  C   C1333     1.0  0.57181  0.28206  0.64581  1.0000
  H   H1614     1.0  0.58888  0.28537  0.55108  1.0000
  C   C1334     1.0  0.57416  0.45492  0.41801  1.0000
  H   H1615     1.0  0.68364  0.26486  0.52739  1.0000
  C   C1335     1.0  0.61065  0.37019  0.63961  1.0000
  C   C1336     1.0  0.66561  0.27168  0.49183  1.0000
  C   C1337     1.0  0.59068  0.42779  0.43263  1.0000
  H   H1616     1.0  0.60360  0.43126  0.42730  1.0000
  S   S358      1.0  0.59837  0.40876  0.33090  1.0000
  C   C1338     1.0  0.52576  0.36266  0.38467  1.0000
  H   H1617     1.0  0.53695  0.36874  0.37750  1.0000
  H   H1618     1.0  0.52800  0.35674  0.39801  1.0000
  H   H1619     1.0  0.64918  0.29627  0.48305  1.0000
  C   C1339     1.0  0.50757  0.38341  0.36682  1.0000
  H   H1620     1.0  0.63588  0.27182  0.48389  1.0000
  H   H1621     1.0  0.57025  0.28799  0.40467  1.0000
  C   C1340     1.0  0.57903  0.32731  0.39250  1.0000
  C   C1341     1.0  0.67053  0.33572  0.33704  1.0000
  C   C1342     1.0  0.57626  0.27488  0.41075  1.0000
  H   H1622     1.0  0.57903  0.24487  0.35286  1.0000
  S   S359      1.0  0.63531  0.37667  0.35027  1.0000
  C   C1343     1.0  0.51740  0.40267  0.33949  1.0000
  C   C1344     1.0  0.59126  0.45822  0.36180  1.0000
  C   C1345     1.0  0.49506  0.36586  0.39457  1.0000
  H   H1623     1.0  0.55965  0.25537  0.58053  1.0000
  C   C1346     1.0  0.64561  0.25969  0.48357  1.0000
  H   H1624     1.0  0.53844  0.28766  0.62813  1.0000
  H   H1625     1.0  0.52016  0.39452  0.38983  1.0000
  N   N92       1.0  0.50915  0.37518  0.38489  1.0000
  S   S360      1.0  0.50444  0.29834  0.34844  1.0000
  C   C1347     1.0  0.64273  0.32831  0.34111  1.0000
  H   H1626     1.0  0.54920  0.27616  0.39691  1.0000
  H   H1627     1.0  0.55397  0.36693  0.34452  1.0000
  C   C1348     1.0  0.61142  0.47169  0.37645  1.0000
  C   C1349     1.0  0.66614  0.27379  0.46128  1.0000
  C   C1350     1.0  0.50615  0.39853  0.33166  1.0000
  C   C1351     1.0  0.54305  0.28100  0.61740  1.0000
  H   H1628     1.0  0.49619  0.36044  0.40832  1.0000
  C   C1352     1.0  0.56084  0.46446  0.40906  1.0000
  C   C1353     1.0  0.54017  0.26017  0.60265  1.0000
  H   H1629     1.0  0.64290  0.25148  0.49673  1.0000
  H   H1630     1.0  0.55416  0.45816  0.40343  1.0000
  H   H1631     1.0  0.65661  0.34538  0.64497  1.0000
  C   C1354     1.0  0.70501  0.30437  0.64588  1.0000
  H   H1632     1.0  0.53318  0.25093  0.60170  1.0000
  H   H1633     1.0  0.56493  0.24808  0.43790  1.0000
  S   S361      1.0  0.64160  0.24438  0.32816  1.0000
  H   H1634     1.0  0.66279  0.47539  0.64831  1.0000
  H   H1635     1.0  0.52249  0.26694  0.62559  1.0000
  C   C1355     1.0  0.57448  0.23930  0.43068  1.0000
  H   H1636     1.0  0.49698  0.39847  0.39440  1.0000
  H   H1637     1.0  0.58398  0.35240  0.32408  1.0000
  H   H1638     1.0  0.71612  0.30821  0.64754  1.0000
  C   C1356     1.0  0.49640  0.37928  0.35835  1.0000
  S   S362      1.0  0.62433  0.48042  0.38497  1.0000
  C   C1357     1.0  0.59461  0.48026  0.37512  1.0000
  H   H1639     1.0  0.59879  0.48067  0.32523  1.0000
  C   C1358     1.0  0.63626  0.36677  0.65093  1.0000
  C   C1359     1.0  0.61956  0.37551  0.64925  1.0000
  H   H1640     1.0  0.59405  0.45865  0.42972  1.0000
  C   C1360     1.0  0.58318  0.46458  0.42359  1.0000
  H   H1641     1.0  0.56553  0.29353  0.65089  1.0000
  C   C1361     1.0  0.56368  0.26794  0.65032  1.0000
  H   H1642     1.0  0.57159  0.48038  0.36691  1.0000
  C   C1362     1.0  0.59064  0.27844  0.32126  1.0000
  C   C1363     1.0  0.57455  0.28969  0.32216  1.0000
  C   C1364     1.0  0.57858  0.48254  0.42100  1.0000
  C   C1365     1.0  0.55627  0.48242  0.40667  1.0000
  C   C1366     1.0  0.62899  0.48529  0.32267  1.0000
  H   H1643     1.0  0.67423  0.24030  0.46773  1.0000
  H   H1644     1.0  0.56776  0.48668  0.33020  1.0000
  C   C1367     1.0  0.56840  0.31256  0.76576  1.0000
  C   C1368     1.0  0.61431  0.45358  0.74537  1.0000
  H   H1645     1.0  0.70226  0.34152  0.66957  1.0000
  C   C1369     1.0  0.50370  0.24070  0.71316  1.0000
  S   S363      1.0  0.52360  0.28328  0.70780  1.0000
  H   H1646     1.0  0.67567  0.36807  0.71714  1.0000
  H   H1647     1.0  0.68103  0.36726  0.67185  1.0000
  Fe  Fe181     1.0  0.54180  0.29704  0.71285  1.0000
  S   S364      1.0  0.55694  0.29042  0.73404  1.0000
  C   C1370     1.0  0.65083  0.45980  0.71235  1.0000
  C   C1371     1.0  0.67959  0.35012  0.74010  1.0000
  Fe  Fe182     1.0  0.65372  0.26002  0.71872  1.0000
  H   H1648     1.0  0.50428  0.24832  0.67891  1.0000
  H   H1649     1.0  0.59266  0.28473  0.79327  1.0000
  Fe  Fe183     1.0  0.68168  0.28082  0.70367  1.0000
  S   S365      1.0  0.69007  0.27554  0.72896  1.0000
  N   N93       1.0  0.68438  0.34587  0.69334  1.0000
  H   H1650     1.0  0.57703  0.31864  0.72590  1.0000
  Fe  Fe184     1.0  0.66179  0.28032  0.74047  1.0000
  S   S366      1.0  0.65151  0.29368  0.76290  1.0000
  S   S367      1.0  0.68131  0.25332  0.70508  1.0000
  S   S368      1.0  0.65342  0.28816  0.71495  1.0000
  S   S369      1.0  0.60250  0.40903  0.72017  1.0000
  Fe  Fe185     1.0  0.62579  0.38771  0.71981  1.0000
  S   S370      1.0  0.63480  0.37490  0.74458  1.0000
  S   S371      1.0  0.56774  0.39046  0.71079  1.0000
  C   C1372     1.0  0.62684  0.46030  0.69957  1.0000
  C   C1373     1.0  0.64172  0.45124  0.70579  1.0000
  H   H1651     1.0  0.67349  0.32393  0.69472  1.0000
  C   C1374     1.0  0.64571  0.31620  0.75751  1.0000
  C   C1375     1.0  0.64229  0.32561  0.77053  1.0000
  C   C1376     1.0  0.63855  0.34363  0.76649  1.0000
  C   C1377     1.0  0.63788  0.35234  0.74948  1.0000
  C   C1378     1.0  0.64074  0.34294  0.73653  1.0000
  C   C1379     1.0  0.64477  0.32486  0.74051  1.0000
  H   H1652     1.0  0.64296  0.31898  0.78369  1.0000
  H   H1653     1.0  0.63641  0.35085  0.77653  1.0000
  H   H1654     1.0  0.64752  0.31769  0.73039  1.0000
  S   S372      1.0  0.52430  0.32295  0.70852  1.0000
  H   H1655     1.0  0.69147  0.31389  0.71405  1.0000
  C   C1380     1.0  0.54800  0.37215  0.70312  1.0000
  S   S373      1.0  0.69670  0.29680  0.68109  1.0000
  H   H1656     1.0  0.68286  0.32955  0.76212  1.0000
  H   H1657     1.0  0.66244  0.45281  0.71696  1.0000
  C   C1381     1.0  0.68803  0.32008  0.73865  1.0000
  H   H1658     1.0  0.53889  0.37494  0.71475  1.0000
  C   C1382     1.0  0.68833  0.32436  0.72087  1.0000
  C   C1383     1.0  0.57813  0.27902  0.72811  1.0000
  C   C1384     1.0  0.58219  0.26896  0.71556  1.0000
  C   C1385     1.0  0.59917  0.26001  0.71086  1.0000
  C   C1386     1.0  0.61224  0.26146  0.71832  1.0000
  C   C1387     1.0  0.60825  0.27162  0.73078  1.0000
  C   C1388     1.0  0.59117  0.28019  0.73583  1.0000
  H   H1659     1.0  0.57220  0.26778  0.70969  1.0000
  H   H1660     1.0  0.59502  0.33472  0.66259  1.0000
  H   H1661     1.0  0.61826  0.27267  0.73672  1.0000
  H   H1662     1.0  0.58812  0.28783  0.74562  1.0000
  C   C1389     1.0  0.68418  0.34174  0.71215  1.0000
  H   H1663     1.0  0.64070  0.34959  0.72335  1.0000
  H   H1664     1.0  0.65809  0.34357  0.69633  1.0000
  H   H1665     1.0  0.67083  0.28676  0.66938  1.0000
  H   H1666     1.0  0.64208  0.29040  0.67739  1.0000
  S   S374      1.0  0.65987  0.25266  0.74518  1.0000
  C   C1390     1.0  0.59993  0.45618  0.73818  1.0000
  H   H1667     1.0  0.65861  0.47364  0.67156  1.0000
  H   H1668     1.0  0.58617  0.35511  0.71929  1.0000
  N   N94       1.0  0.57543  0.33706  0.74121  1.0000
  H   H1669     1.0  0.56653  0.34016  0.71754  1.0000
  H   H1670     1.0  0.55012  0.34594  0.75593  1.0000
  C   C1391     1.0  0.59009  0.34505  0.73040  1.0000
  H   H1671     1.0  0.69062  0.30669  0.74514  1.0000
  C   C1392     1.0  0.72566  0.24880  0.77934  1.0000
  H   H1672     1.0  0.60511  0.25984  0.66184  1.0000
  Fe  Fe186     1.0  0.53869  0.32505  0.68103  1.0000
  H   H1673     1.0  0.61382  0.30275  0.77651  1.0000
  C   C1393     1.0  0.59682  0.31918  0.76004  1.0000
  C   C1394     1.0  0.68367  0.33294  0.74824  1.0000
  C   C1395     1.0  0.69215  0.25347  0.79906  1.0000
  C   C1396     1.0  0.57283  0.29892  0.77916  1.0000
  H   H1674     1.0  0.60920  0.48467  0.69605  1.0000
  S   S375      1.0  0.63341  0.25026  0.71209  1.0000
  H   H1675     1.0  0.59503  0.35178  0.73784  1.0000
  H   H1676     1.0  0.56358  0.29096  0.78648  1.0000
  H   H1677     1.0  0.60606  0.30279  0.70271  1.0000
  C   C1397     1.0  0.63043  0.25954  0.66498  1.0000
  H   H1678     1.0  0.67907  0.25515  0.80661  1.0000
  H   H1679     1.0  0.55546  0.32730  0.73567  1.0000
  H   H1680     1.0  0.58661  0.38020  0.67858  1.0000
  C   C1398     1.0  0.61742  0.46680  0.75145  1.0000
  H   H1681     1.0  0.71182  0.34442  0.68604  1.0000
  C   C1399     1.0  0.58035  0.32294  0.75558  1.0000
  H   H1682     1.0  0.65388  0.26218  0.67035  1.0000
  C   C1400     1.0  0.64067  0.26830  0.66940  1.0000
  H   H1683     1.0  0.61367  0.38670  0.65492  1.0000
  Fe  Fe187     1.0  0.50754  0.30956  0.70052  1.0000
  H   H1684     1.0  0.51281  0.24885  0.71301  1.0000
  C   C1401     1.0  0.57487  0.37517  0.68274  1.0000
  C   C1402     1.0  0.68041  0.36461  0.68606  1.0000
  S   S376      1.0  0.61569  0.45083  0.68981  1.0000
  C   C1403     1.0  0.67971  0.35456  0.72236  1.0000
  H   H1685     1.0  0.60089  0.33534  0.72493  1.0000
  H   H1686     1.0  0.62973  0.31545  0.68480  1.0000
  C   C1404     1.0  0.62291  0.32046  0.67380  1.0000
  N   N95       1.0  0.60937  0.31075  0.67508  1.0000
  H   H1687     1.0  0.58621  0.31671  0.66448  1.0000
  S   S377      1.0  0.55706  0.29993  0.68575  1.0000
  H   H1688     1.0  0.57751  0.47404  0.73115  1.0000
  C   C1405     1.0  0.58850  0.47201  0.73709  1.0000
  S   S378      1.0  0.60773  0.41040  0.67847  1.0000
  Fe  Fe188     1.0  0.63076  0.38898  0.68162  1.0000
  S   S379      1.0  0.64179  0.40176  0.69650  1.0000
  H   H1689     1.0  0.67546  0.36006  0.74775  1.0000
  C   C1406     1.0  0.67933  0.29243  0.65816  1.0000
  H   H1690     1.0  0.73835  0.24744  0.77110  1.0000
  Fe  Fe189     1.0  0.61760  0.42200  0.69545  1.0000
  S   S380      1.0  0.61677  0.37333  0.70510  1.0000
  H   H1691     1.0  0.68965  0.37142  0.68814  1.0000
  C   C1407     1.0  0.67136  0.33807  0.68994  1.0000
  H   H1692     1.0  0.62341  0.44138  0.74573  1.0000
  Fe  Fe190     1.0  0.59464  0.39571  0.70346  1.0000
  C   C1408     1.0  0.64515  0.47741  0.71264  1.0000
  H   H1693     1.0  0.66706  0.37054  0.69184  1.0000
  C   C1409     1.0  0.59841  0.30983  0.69264  1.0000
  H   H1694     1.0  0.59221  0.32291  0.69523  1.0000
  H   H1695     1.0  0.64633  0.43776  0.70532  1.0000
  H   H1696     1.0  0.67154  0.34038  0.67584  1.0000
  H   H1697     1.0  0.58795  0.30276  0.69440  1.0000
  H   H1698     1.0  0.59282  0.28843  0.66817  1.0000
  H   H1699     1.0  0.70543  0.32468  0.68768  1.0000
  Fe  Fe191     1.0  0.53743  0.28870  0.68010  1.0000
  C   C1410     1.0  0.54448  0.36209  0.69334  1.0000
  C   C1411     1.0  0.61661  0.29305  0.67200  1.0000
  S   S381      1.0  0.52048  0.31415  0.67242  1.0000
  C   C1412     1.0  0.60111  0.30551  0.77348  1.0000
  C   C1413     1.0  0.49732  0.25845  0.68648  1.0000
  H   H1700     1.0  0.53260  0.35734  0.69734  1.0000
  C   C1414     1.0  0.56326  0.37860  0.69790  1.0000
  C   C1415     1.0  0.56837  0.33052  0.72961  1.0000
  C   C1416     1.0  0.57104  0.36557  0.67269  1.0000
  Fe  Fe192     1.0  0.68754  0.24846  0.73138  1.0000
  C   C1417     1.0  0.61320  0.26697  0.66469  1.0000
  C   C1418     1.0  0.70171  0.33886  0.68376  1.0000
  C   C1419     1.0  0.62095  0.47770  0.70038  1.0000
  S   S382      1.0  0.64808  0.37407  0.66180  1.0000
  H   H1701     1.0  0.60669  0.32655  0.75336  1.0000
  C   C1420     1.0  0.55598  0.35887  0.67805  1.0000
  H   H1702     1.0  0.59791  0.44607  0.73297  1.0000
  H   H1703     1.0  0.55559  0.31471  0.76323  1.0000
  C   C1421     1.0  0.60631  0.28344  0.66824  1.0000
  H   H1704     1.0  0.56677  0.35599  0.75726  1.0000
  C   C1422     1.0  0.58919  0.29536  0.78296  1.0000
  C   C1423     1.0  0.69503  0.26005  0.78129  1.0000
  H   H1705     1.0  0.61746  0.33433  0.67405  1.0000
  H   H1706     1.0  0.68425  0.26681  0.77510  1.0000
  C   C1424     1.0  0.56199  0.35072  0.74846  1.0000
  S   S383      1.0  0.54340  0.26849  0.66428  1.0000
  H   H1707     1.0  0.55803  0.36171  0.73805  1.0000
  H   H1708     1.0  0.60219  0.25203  0.70135  1.0000
  C   C1425     1.0  0.63004  0.48621  0.70681  1.0000
  H   H1709     1.0  0.50677  0.26624  0.68631  1.0000
  S   S384      1.0  0.55174  0.34664  0.66534  1.0000
  C   C1426     1.0  0.63380  0.28465  0.67324  1.0000
  C   C1427     1.0  0.74932  0.24517  0.80387  1.0000
  H   H1710     1.0  0.62912  0.46400  0.75633  1.0000
  C   C1428     1.0  0.71174  0.25761  0.77143  1.0000
  H   H1711     1.0  0.71389  0.26235  0.75753  1.0000
  H   H1712     1.0  0.74194  0.25621  0.81005  1.0000
  C   C1429     1.0  0.69343  0.29776  0.66038  1.0000
  C   C1430     1.0  0.59867  0.32079  0.66221  1.0000
  H   H1713     1.0  0.63572  0.24680  0.66219  1.0000
  H   H1714     1.0  0.57973  0.36331  0.66075  1.0000
  H   H1715     1.0  0.75464  0.25047  0.79012  1.0000
  H   H1716     1.0  0.63264  0.31986  0.66152  1.0000
  C   C1431     1.0  0.60595  0.48310  0.75061  1.0000
  C   C1432     1.0  0.59139  0.48528  0.74323  1.0000
  H   H1717     1.0  0.62387  0.48198  0.77581  1.0000
  H   H1718     1.0  0.63432  0.47771  0.65908  1.0000
  H   H1719     1.0  0.67870  0.47809  0.65826  1.0000
  H   H1720     1.0  0.60353  0.48545  0.66146  1.0000
  C   C1433     1.0  0.66456  0.48084  0.65877  1.0000
  H   H1721     1.0  0.70269  0.23929  0.82080  1.0000
  C   C1434     1.0  0.70594  0.24438  0.80707  1.0000
  C   C1435     1.0  0.72321  0.24181  0.79741  1.0000
  H   H1722     1.0  0.61316  0.23966  0.76427  1.0000
  H   H1723     1.0  0.76058  0.23893  0.81018  1.0000
  H   H1724     1.0  0.62399  0.23768  0.79057  1.0000
  C   C1436     1.0  0.67169  0.67988  0.25856  1.0000
  N   N96       1.0  0.77559  0.73047  0.29372  1.0000
  C   C1437     1.0  0.76061  0.72394  0.16504  1.0000
  C   C1438     1.0  0.69203  0.69643  0.30668  1.0000
  C   C1439     1.0  0.77088  0.72792  0.14855  1.0000
  C   C1440     1.0  0.83363  0.72305  0.16287  1.0000
  C   C1441     1.0  0.85454  0.71986  0.19852  1.0000
  H   H1725     1.0  0.71870  0.69407  0.30742  1.0000
  C   C1442     1.0  0.81979  0.72212  0.19303  1.0000
  H   H1726     1.0  0.68916  0.72101  0.22667  1.0000
  H   H1727     1.0  0.81526  0.72663  0.01909  1.0000
  N   N97       1.0  0.84871  0.73089  0.18274  1.0000
  H   H1728     1.0  0.63299  0.60481  0.28985  1.0000
  H   H1729     1.0  0.71372  0.68313  0.26999  1.0000
  H   H1730     1.0  0.79719  0.72162  0.09747  1.0000
  H   H1731     1.0  0.62279  0.51311  0.29690  1.0000
  C   C1443     1.0  0.80590  0.71686  0.19026  1.0000
  H   H1732     1.0  0.72445  0.70186  0.21025  1.0000
  C   C1444     1.0  0.68083  0.72005  0.28526  1.0000
  H   H1733     1.0  0.84465  0.72121  0.21053  1.0000
  C   C1445     1.0  0.77229  0.73209  0.03579  1.0000
  H   H1734     1.0  0.67872  0.69620  0.23426  1.0000
  H   H1735     1.0  0.69445  0.66609  0.29056  1.0000
  H   H1736     1.0  0.75698  0.71149  0.16948  1.0000
  H   H1737     1.0  0.65963  0.67904  0.25591  1.0000
  H   H1738     1.0  0.84369  0.72560  0.15162  1.0000
  H   H1739     1.0  0.69562  0.72527  0.24431  1.0000
  H   H1740     1.0  0.86888  0.71729  0.16530  1.0000
  H   H1741     1.0  0.62071  0.57853  0.30050  1.0000
  C   C1446     1.0  0.72576  0.70198  0.24184  1.0000
  C   C1447     1.0  0.71070  0.71557  0.28765  1.0000
  C   C1448     1.0  0.77212  0.73451  0.05221  1.0000
  H   H1742     1.0  0.85792  0.70604  0.19763  1.0000
  C   C1449     1.0  0.81963  0.71783  0.16022  1.0000
  C   C1450     1.0  0.77833  0.72173  0.27910  1.0000
  C   C1451     1.0  0.70817  0.70134  0.30116  1.0000
  H   H1743     1.0  0.72270  0.70784  0.25345  1.0000
  C   C1452     1.0  0.57122  0.66470  0.30982  1.0000
  C   C1453     1.0  0.67829  0.70580  0.29876  1.0000
  H   H1744     1.0  0.86611  0.72333  0.20055  1.0000
  C   C1454     1.0  0.62693  0.51495  0.30818  1.0000
  S   S385      1.0  0.64570  0.62417  0.30621  1.0000
  H   H1745     1.0  0.66731  0.66389  0.28399  1.0000
  H   H1746     1.0  0.73413  0.70977  0.23153  1.0000
  H   H1747     1.0  0.73372  0.68883  0.24472  1.0000
  N   N98       1.0  0.70985  0.70172  0.23639  1.0000
  C   C1455     1.0  0.71527  0.69471  0.22031  1.0000
  C   C1456     1.0  0.80589  0.71458  0.17392  1.0000
  C   C1457     1.0  0.70046  0.71979  0.23239  1.0000
  C   C1458     1.0  0.69840  0.69128  0.24964  1.0000
  C   C1459     1.0  0.70238  0.68239  0.26598  1.0000
  C   C1460     1.0  0.68270  0.68971  0.24631  1.0000
  C   C1461     1.0  0.69134  0.67247  0.27804  1.0000
  H   H1748     1.0  0.76026  0.73304  0.03197  1.0000
  C   C1462     1.0  0.67601  0.67127  0.27439  1.0000
  H   H1749     1.0  0.70422  0.69562  0.21433  1.0000
  C   C1463     1.0  0.83427  0.72507  0.17951  1.0000
  H   H1750     1.0  0.72178  0.68092  0.22296  1.0000
  C   C1464     1.0  0.63226  0.59827  0.30325  1.0000
  H   H1751     1.0  0.79502  0.71067  0.17179  1.0000
  S   S386      1.0  0.73119  0.72123  0.28102  1.0000
  H   H1752     1.0  0.79493  0.71484  0.20078  1.0000
  S   S387      1.0  0.65779  0.70018  0.30538  1.0000
  C   C1465     1.0  0.63795  0.60492  0.31448  1.0000
  H   H1753     1.0  0.81924  0.71659  0.14739  1.0000
  C   C1466     1.0  0.62534  0.58338  0.30927  1.0000
  H   H1754     1.0  0.81888  0.72421  0.20582  1.0000
  S   S388      1.0  0.74312  0.73004  0.19677  1.0000
  S   S389      1.0  0.75996  0.72683  0.23751  1.0000
  H   H1755     1.0  0.77520  0.71850  0.14036  1.0000
  C   C1467     1.0  0.75547  0.73578  0.17595  1.0000
  H   H1756     1.0  0.59780  0.65844  0.29708  1.0000
  H   H1757     1.0  0.87493  0.73423  0.17134  1.0000
  C   C1468     1.0  0.80325  0.72864  0.02847  1.0000
  H   H1758     1.0  0.79829  0.71399  0.30236  1.0000
  C   C1469     1.0  0.69700  0.72491  0.27968  1.0000
  H   H1759     1.0  0.62217  0.52875  0.30912  1.0000
  H   H1760     1.0  0.79073  0.70946  0.08550  1.0000
  H   H1761     1.0  0.70891  0.72814  0.22287  1.0000
  H   H1762     1.0  0.64128  0.51281  0.30528  1.0000
  C   C1470     1.0  0.86407  0.73038  0.16829  1.0000
  C   C1471     1.0  0.58793  0.65492  0.30827  1.0000
  C   C1472     1.0  0.79709  0.72037  0.08419  1.0000
  H   H1763     1.0  0.81078  0.71678  0.07764  1.0000
  H   H1764     1.0  0.56806  0.67590  0.29992  1.0000
  H   H1765     1.0  0.77290  0.73061  0.26817  1.0000
  H   H1766     1.0  0.77865  0.70679  0.31272  1.0000
  H   H1767     1.0  0.75162  0.72172  0.30578  1.0000
  H   H1768     1.0  0.79220  0.71707  0.27383  1.0000
  H   H1769     1.0  0.77194  0.71043  0.28290  1.0000
  H   H1770     1.0  0.78768  0.72816  0.01097  1.0000
  H   H1771     1.0  0.67021  0.72740  0.27917  1.0000
  C   C1473     1.0  0.78767  0.73408  0.05724  1.0000
  C   C1474     1.0  0.78777  0.72937  0.02388  1.0000
  H   H1772     1.0  0.81562  0.73001  0.04787  1.0000
  H   H1773     1.0  0.76311  0.73089  0.08834  1.0000
  C   C1475     1.0  0.78433  0.71854  0.30733  1.0000
  C   C1476     1.0  0.80327  0.73078  0.04494  1.0000
  C   C1477     1.0  0.75679  0.73382  0.30125  1.0000
  H   H1774     1.0  0.80927  0.73296  0.27872  1.0000
  H   H1775     1.0  0.69874  0.73605  0.26947  1.0000
  H   H1776     1.0  0.69017  0.68547  0.31713  1.0000
  H   H1777     1.0  0.78316  0.72489  0.31825  1.0000
  N   N99       1.0  0.78802  0.73652  0.07454  1.0000
  H   H1778     1.0  0.60512  0.63320  0.31903  1.0000
  H   H1779     1.0  0.75958  0.73704  0.06050  1.0000
  S   S390      1.0  0.64969  0.67034  0.35267  1.0000
  C   C1478     1.0  0.52799  0.58823  0.39201  1.0000
  H   H1780     1.0  0.61948  0.49956  0.35147  1.0000
  Fe  Fe193     1.0  0.58678  0.53740  0.39590  1.0000
  S   S391      1.0  0.60712  0.51993  0.40965  1.0000
  S   S392      1.0  0.55939  0.54419  0.40962  1.0000
  Fe  Fe194     1.0  0.61185  0.54422  0.36166  1.0000
  S   S393      1.0  0.63428  0.52718  0.37240  1.0000
  H   H1781     1.0  0.59360  0.68085  0.34136  1.0000
  Fe  Fe195     1.0  0.61612  0.50893  0.38544  1.0000
  H   H1782     1.0  0.64175  0.60121  0.34048  1.0000
  Fe  Fe196     1.0  0.62296  0.53993  0.39531  1.0000
  S   S394      1.0  0.63856  0.55261  0.40565  1.0000
  S   S395      1.0  0.59449  0.52518  0.37280  1.0000
  S   S396      1.0  0.60177  0.55828  0.38342  1.0000
  C   C1479     1.0  0.62413  0.57490  0.32658  1.0000
  Fe  Fe197     1.0  0.66533  0.64399  0.35083  1.0000
  S   S397      1.0  0.68467  0.63172  0.36763  1.0000
  Fe  Fe198     1.0  0.64977  0.65818  0.58052  1.0000
  S   S398      1.0  0.62292  0.66330  0.59620  1.0000
  S   S399      1.0  0.65570  0.65183  0.55383  1.0000
  Fe  Fe199     1.0  0.66544  0.66591  0.60747  1.0000
  S   S400      1.0  0.63993  0.67163  0.62518  1.0000
  S   S401      1.0  0.69023  0.66756  0.61364  1.0000
  Fe  Fe200     1.0  0.63486  0.64871  0.61876  1.0000
  C   C1480     1.0  0.67658  0.61021  0.64686  1.0000
  Fe  Fe201     1.0  0.63030  0.68575  0.60115  1.0000
  S   S402      1.0  0.61073  0.71030  0.60070  1.0000
  S   S403      1.0  0.66134  0.64143  0.60295  1.0000
  S   S404      1.0  0.65629  0.68222  0.58356  1.0000
  Fe  Fe202     1.0  0.59020  0.64575  0.46062  1.0000
  S   S405      1.0  0.60980  0.62599  0.44769  1.0000
  S   S406      1.0  0.57256  0.66465  0.44421  1.0000
  Fe  Fe203     1.0  0.60370  0.63380  0.49431  1.0000
  S   S407      1.0  0.62428  0.61269  0.48419  1.0000
  S   S408      1.0  0.59810  0.63888  0.52161  1.0000
  Fe  Fe204     1.0  0.62839  0.63260  0.45966  1.0000
  S   S409      1.0  0.65515  0.63653  0.44618  1.0000
  Fe  Fe205     1.0  0.60394  0.60782  0.47300  1.0000
  S   S410      1.0  0.59928  0.58176  0.47322  1.0000
  S   S411      1.0  0.60934  0.65414  0.47049  1.0000
  S   S412      1.0  0.58275  0.62717  0.48524  1.0000
  C   C1481     1.0  0.59984  0.62153  0.35514  1.0000
  C   C1482     1.0  0.59103  0.70594  0.61377  1.0000
  C   C1483     1.0  0.59663  0.59301  0.40837  1.0000
  H   H1783     1.0  0.58057  0.56682  0.43139  1.0000
  C   C1484     1.0  0.57589  0.71826  0.61233  1.0000
  H   H1784     1.0  0.59074  0.69510  0.41906  1.0000
  H   H1785     1.0  0.55259  0.60211  0.40630  1.0000
  C   C1485     1.0  0.67535  0.71381  0.63663  1.0000
  C   C1486     1.0  0.57051  0.61838  0.36541  1.0000
  H   H1786     1.0  0.61131  0.72448  0.63642  1.0000
  H   H1787     1.0  0.60125  0.63935  0.61356  1.0000
  H   H1788     1.0  0.57469  0.60705  0.37538  1.0000
  H   H1789     1.0  0.60353  0.61030  0.36538  1.0000
  H   H1790     1.0  0.49535  0.58210  0.36821  1.0000
  H   H1791     1.0  0.64462  0.61239  0.61767  1.0000
  C   C1487     1.0  0.63664  0.70843  0.36694  1.0000
  Fe  Fe206     1.0  0.51518  0.66680  0.37135  1.0000
  H   H1792     1.0  0.50675  0.71217  0.37815  1.0000
  C   C1488     1.0  0.55916  0.69894  0.63376  1.0000
  H   H1793     1.0  0.55250  0.58678  0.45348  1.0000
  C   C1489     1.0  0.57999  0.61917  0.41763  1.0000
  C   C1490     1.0  0.63014  0.58126  0.33789  1.0000
  H   H1794     1.0  0.60185  0.68514  0.43625  1.0000
  C   C1491     1.0  0.57207  0.67295  0.56253  1.0000
  H   H1795     1.0  0.51742  0.59749  0.39745  1.0000
  C   C1492     1.0  0.60569  0.69790  0.38400  1.0000
  H   H1796     1.0  0.71753  0.67556  0.62348  1.0000
  C   C1493     1.0  0.63996  0.64702  0.54537  1.0000
  C   C1494     1.0  0.64383  0.64517  0.52805  1.0000
  C   C1495     1.0  0.63126  0.64234  0.52062  1.0000
  C   C1496     1.0  0.61470  0.64137  0.53050  1.0000
  C   C1497     1.0  0.61092  0.64304  0.54785  1.0000
  C   C1498     1.0  0.62347  0.64579  0.55530  1.0000
  H   H1797     1.0  0.65657  0.64606  0.52028  1.0000
  H   H1798     1.0  0.63435  0.64105  0.50724  1.0000
  H   H1799     1.0  0.59812  0.64245  0.55547  1.0000
  H   H1800     1.0  0.62030  0.64708  0.56865  1.0000
  C   C1499     1.0  0.66273  0.63519  0.42429  1.0000
  C   C1500     1.0  0.65171  0.63490  0.41380  1.0000
  C   C1501     1.0  0.65819  0.63472  0.39611  1.0000
  C   C1502     1.0  0.67587  0.63386  0.38917  1.0000
  C   C1503     1.0  0.68688  0.63373  0.39979  1.0000
  C   C1504     1.0  0.68028  0.63470  0.41721  1.0000
  H   H1801     1.0  0.63824  0.63494  0.41928  1.0000
  H   H1802     1.0  0.64962  0.63472  0.38797  1.0000
  H   H1803     1.0  0.70054  0.63303  0.39451  1.0000
  H   H1804     1.0  0.68885  0.63487  0.42529  1.0000
  C   C1505     1.0  0.62759  0.56037  0.42461  1.0000
  C   C1506     1.0  0.61477  0.55255  0.43651  1.0000
  C   C1507     1.0  0.60630  0.55898  0.45159  1.0000
  C   C1508     1.0  0.61047  0.57337  0.45468  1.0000
  C   C1509     1.0  0.62327  0.58113  0.44277  1.0000
  C   C1510     1.0  0.63173  0.57469  0.42779  1.0000
  H   H1805     1.0  0.61152  0.54143  0.43423  1.0000
  H   H1806     1.0  0.59646  0.55285  0.46084  1.0000
  H   H1807     1.0  0.62687  0.59196  0.44517  1.0000
  H   H1808     1.0  0.64132  0.58105  0.41858  1.0000
  S   S413      1.0  0.67176  0.64937  0.32176  1.0000
  H   H1809     1.0  0.49390  0.72299  0.65102  1.0000
  C   C1511     1.0  0.55070  0.60225  0.42027  1.0000
  H   H1810     1.0  0.57488  0.58696  0.45124  1.0000
  H   H1811     1.0  0.53934  0.59633  0.42730  1.0000
  H   H1812     1.0  0.57189  0.57358  0.41192  1.0000
  C   C1512     1.0  0.56915  0.66601  0.38019  1.0000
  H   H1813     1.0  0.62934  0.57468  0.35128  1.0000
  H   H1814     1.0  0.63723  0.68974  0.41942  1.0000
  H   H1815     1.0  0.55447  0.67251  0.41669  1.0000
  C   C1513     1.0  0.51219  0.70953  0.38961  1.0000
  H   H1816     1.0  0.63656  0.71320  0.61796  1.0000
  S   S414      1.0  0.53048  0.68654  0.35453  1.0000
  H   H1817     1.0  0.51887  0.67728  0.44959  1.0000
  C   C1514     1.0  0.53415  0.59063  0.37409  1.0000
  C   C1515     1.0  0.54799  0.57875  0.36713  1.0000
  C   C1516     1.0  0.55579  0.56450  0.37809  1.0000
  C   C1517     1.0  0.54935  0.56181  0.39597  1.0000
  C   C1518     1.0  0.53538  0.57361  0.40294  1.0000
  H   H1818     1.0  0.55333  0.64737  0.62660  1.0000
  H   H1819     1.0  0.55283  0.58065  0.35327  1.0000
  H   H1820     1.0  0.56662  0.55548  0.37264  1.0000
  H   H1821     1.0  0.56168  0.50539  0.41062  1.0000
  C   C1519     1.0  0.53668  0.70625  0.40227  1.0000
  C   C1520     1.0  0.54914  0.64314  0.45435  1.0000
  C   C1521     1.0  0.55597  0.65606  0.44158  1.0000
  C   C1522     1.0  0.56575  0.68450  0.34699  1.0000
  H   H1822     1.0  0.53014  0.62702  0.46207  1.0000
  H   H1823     1.0  0.55421  0.63809  0.46604  1.0000
  H   H1824     1.0  0.57035  0.65883  0.39304  1.0000
  H   H1825     1.0  0.54153  0.66982  0.38574  1.0000
  C   C1523     1.0  0.60870  0.61873  0.39998  1.0000
  H   H1826     1.0  0.59356  0.69385  0.38992  1.0000
  C   C1524     1.0  0.61017  0.60153  0.39963  1.0000
  C   C1525     1.0  0.53567  0.65626  0.42431  1.0000
  H   H1827     1.0  0.53049  0.57159  0.41679  1.0000
  C   C1526     1.0  0.59313  0.61839  0.59664  1.0000
  Fe  Fe207     1.0  0.62762  0.65877  0.35281  1.0000
  C   C1527     1.0  0.58387  0.66902  0.36769  1.0000
  H   H1828     1.0  0.55022  0.70640  0.40068  1.0000
  H   H1829     1.0  0.61422  0.72338  0.53408  1.0000
  C   C1528     1.0  0.56214  0.62174  0.58652  1.0000
  H   H1830     1.0  0.56866  0.62652  0.42456  1.0000
  H   H1831     1.0  0.62203  0.59454  0.39293  1.0000
  S   S415      1.0  0.52474  0.60846  0.36023  1.0000
  H   H1832     1.0  0.58192  0.65478  0.61005  1.0000
  C   C1529     1.0  0.60765  0.70687  0.36680  1.0000
  H   H1833     1.0  0.66157  0.56932  0.46222  1.0000
  C   C1530     1.0  0.59364  0.62750  0.40901  1.0000
  H   H1834     1.0  0.59253  0.64084  0.40944  1.0000
  H   H1835     1.0  0.61925  0.62529  0.39335  1.0000
  H   H1836     1.0  0.56648  0.66461  0.55805  1.0000
  Fe  Fe208     1.0  0.51238  0.63023  0.37394  1.0000
  C   C1531     1.0  0.55109  0.68087  0.35946  1.0000
  C   C1532     1.0  0.64067  0.60407  0.62989  1.0000
  H   H1837     1.0  0.63150  0.66978  0.43121  1.0000
  H   H1838     1.0  0.56799  0.68964  0.59778  1.0000
  C   C1533     1.0  0.69169  0.67114  0.63364  1.0000
  H   H1839     1.0  0.59892  0.57954  0.40809  1.0000
  C   C1534     1.0  0.57776  0.61580  0.57601  1.0000
  H   H1840     1.0  0.54692  0.61588  0.42160  1.0000
  C   C1535     1.0  0.60353  0.69256  0.42263  1.0000
  C   C1536     1.0  0.66511  0.50833  0.63936  1.0000
  C   C1537     1.0  0.56317  0.59341  0.44577  1.0000
  C   C1538     1.0  0.56947  0.57481  0.42565  1.0000
  H   H1841     1.0  0.55814  0.56882  0.43258  1.0000
  H   H1842     1.0  0.62479  0.71856  0.34476  1.0000
  C   C1539     1.0  0.63707  0.59632  0.33182  1.0000
  H   H1843     1.0  0.55960  0.60669  0.44821  1.0000
  H   H1844     1.0  0.59193  0.59289  0.35164  1.0000
  H   H1845     1.0  0.66605  0.54452  0.44839  1.0000
  H   H1846     1.0  0.64875  0.71226  0.36011  1.0000
  S   S416      1.0  0.52916  0.64133  0.38396  1.0000
  C   C1540     1.0  0.58800  0.60484  0.34220  1.0000
  C   C1541     1.0  0.58224  0.67836  0.35105  1.0000
  C   C1542     1.0  0.54918  0.66259  0.42659  1.0000
  H   H1847     1.0  0.49929  0.67082  0.43256  1.0000
  N   N100      1.0  0.60863  0.69820  0.54614  1.0000
  C   C1543     1.0  0.61491  0.69284  0.52914  1.0000
  C   C1544     1.0  0.60355  0.71724  0.54276  1.0000
  H   H1848     1.0  0.61915  0.67861  0.53081  1.0000
  C   C1545     1.0  0.59384  0.69065  0.55718  1.0000
  H   H1849     1.0  0.58576  0.48967  0.42517  1.0000
  H   H1850     1.0  0.68654  0.71336  0.64166  1.0000
  S   S417      1.0  0.61422  0.55697  0.33362  1.0000
  C   C1546     1.0  0.70711  0.67485  0.63474  1.0000
  H   H1851     1.0  0.57796  0.61273  0.56376  1.0000
  H   H1852     1.0  0.55504  0.67076  0.58755  1.0000
  S   S418      1.0  0.63021  0.66558  0.32408  1.0000
  H   H1853     1.0  0.51412  0.69846  0.45462  1.0000
  H   H1854     1.0  0.60534  0.60947  0.57286  1.0000
  H   H1855     1.0  0.59859  0.60525  0.33055  1.0000
  H   H1856     1.0  0.62632  0.69830  0.52133  1.0000
  C   C1547     1.0  0.57432  0.68666  0.63538  1.0000
  C   C1548     1.0  0.64463  0.71285  0.64181  1.0000
  C   C1549     1.0  0.56505  0.49143  0.41273  1.0000
  C   C1550     1.0  0.58583  0.68008  0.55160  1.0000
  C   C1551     1.0  0.58670  0.61458  0.63514  1.0000
  C   C1552     1.0  0.57429  0.49679  0.32993  1.0000
  H   H1857     1.0  0.61135  0.62172  0.34446  1.0000
  Fe  Fe209     1.0  0.50727  0.64363  0.40670  1.0000
  C   C1553     1.0  0.55287  0.67195  0.37606  1.0000
  C   C1554     1.0  0.61941  0.69341  0.39305  1.0000
  C   C1555     1.0  0.52884  0.64340  0.43700  1.0000
  C   C1556     1.0  0.53546  0.63694  0.45212  1.0000
  C   C1557     1.0  0.58104  0.60163  0.41762  1.0000
  H   H1858     1.0  0.59929  0.66886  0.40827  1.0000
  N   N101      1.0  0.56644  0.59307  0.42711  1.0000
  C   C1558     1.0  0.63326  0.67822  0.41806  1.0000
  N   N102      1.0  0.68207  0.57735  0.39265  1.0000
  C   C1559     1.0  0.66782  0.58940  0.38504  1.0000
  C   C1560     1.0  0.69781  0.58490  0.38635  1.0000
  C   C1561     1.0  0.68572  0.56129  0.38592  1.0000
  C   C1562     1.0  0.67717  0.57460  0.41180  1.0000
  C   C1563     1.0  0.67446  0.58849  0.42027  1.0000
  C   C1564     1.0  0.67420  0.55854  0.42253  1.0000
  C   C1565     1.0  0.66906  0.58654  0.43823  1.0000
  C   C1566     1.0  0.66883  0.55670  0.44052  1.0000
  C   C1567     1.0  0.66622  0.57067  0.44834  1.0000
  H   H1859     1.0  0.66455  0.60195  0.38913  1.0000
  H   H1860     1.0  0.67123  0.59232  0.37063  1.0000
  H   H1861     1.0  0.65591  0.58395  0.38899  1.0000
  H   H1862     1.0  0.70859  0.57669  0.39250  1.0000
  H   H1863     1.0  0.69564  0.59797  0.38906  1.0000
  H   H1864     1.0  0.70220  0.58658  0.37203  1.0000
  H   H1865     1.0  0.67401  0.55557  0.38905  1.0000
  H   H1866     1.0  0.68978  0.56373  0.37154  1.0000
  H   H1867     1.0  0.69621  0.55153  0.39129  1.0000
  H   H1868     1.0  0.67607  0.60114  0.41302  1.0000
  H   H1869     1.0  0.67522  0.54737  0.41733  1.0000
  H   H1870     1.0  0.66674  0.59750  0.44430  1.0000
  S   S419      1.0  0.64297  0.63192  0.35328  1.0000
  C   C1568     1.0  0.58748  0.64362  0.61935  1.0000
  S   S420      1.0  0.60389  0.66097  0.37370  1.0000
  S   S421      1.0  0.51215  0.63527  0.43391  1.0000
  C   C1569     1.0  0.61231  0.66670  0.41115  1.0000
  H   H1871     1.0  0.57376  0.67446  0.64427  1.0000
  H   H1872     1.0  0.53020  0.66154  0.41294  1.0000
  H   H1873     1.0  0.56701  0.62992  0.37139  1.0000
  H   H1874     1.0  0.57968  0.60374  0.63913  1.0000
  H   H1875     1.0  0.62162  0.65967  0.40145  1.0000
  C   C1570     1.0  0.56569  0.67632  0.57914  1.0000
  N   N103      1.0  0.58428  0.62045  0.34958  1.0000
  H   H1876     1.0  0.64416  0.67085  0.40981  1.0000
  H   H1877     1.0  0.56148  0.63911  0.64600  1.0000
  H   H1878     1.0  0.59015  0.67678  0.53895  1.0000
  H   H1879     1.0  0.53735  0.71286  0.37484  1.0000
  C   C1571     1.0  0.56189  0.62600  0.60218  1.0000
  H   H1880     1.0  0.54937  0.63040  0.60975  1.0000
  C   C1572     1.0  0.57747  0.62453  0.60766  1.0000
  C   C1573     1.0  0.55997  0.71469  0.62215  1.0000
  N   N104      1.0  0.61733  0.68294  0.41089  1.0000
  H   H1881     1.0  0.60646  0.70514  0.42247  1.0000
  H   H1882     1.0  0.55017  0.62302  0.58247  1.0000
  C   C1574     1.0  0.59231  0.49348  0.32707  1.0000
  H   H1883     1.0  0.64609  0.69645  0.38981  1.0000
  C   C1575     1.0  0.59023  0.69008  0.62526  1.0000
  C   C1576     1.0  0.56259  0.64587  0.33721  1.0000
  C   C1577     1.0  0.56050  0.63562  0.63397  1.0000
  C   C1578     1.0  0.61368  0.71204  0.64576  1.0000
  C   C1579     1.0  0.63492  0.69922  0.38407  1.0000
  H   H1884     1.0  0.61168  0.65804  0.42410  1.0000
  C   C1580     1.0  0.58685  0.69396  0.57411  1.0000
  C   C1581     1.0  0.67827  0.67018  0.64833  1.0000
  S   S422      1.0  0.50003  0.65537  0.35941  1.0000
  H   H1885     1.0  0.58742  0.64832  0.63105  1.0000
  C   C1582     1.0  0.50918  0.70060  0.42119  1.0000
  H   H1886     1.0  0.54827  0.72421  0.62084  1.0000
  H   H1887     1.0  0.62669  0.67871  0.55901  1.0000
  H   H1888     1.0  0.55270  0.62538  0.63839  1.0000
  C   C1583     1.0  0.62822  0.61077  0.64310  1.0000
  C   C1584     1.0  0.59319  0.61396  0.58116  1.0000
  C   C1585     1.0  0.57301  0.68689  0.58489  1.0000
  H   H1889     1.0  0.70301  0.62335  0.64063  1.0000
  H   H1890     1.0  0.60185  0.68046  0.62646  1.0000
  H   H1891     1.0  0.53328  0.69873  0.42949  1.0000
  H   H1892     1.0  0.60483  0.69714  0.52117  1.0000
  C   C1586     1.0  0.50208  0.70518  0.40608  1.0000
  H   H1893     1.0  0.67945  0.50542  0.63736  1.0000
  H   H1894     1.0  0.58759  0.61805  0.64720  1.0000
  C   C1587     1.0  0.52947  0.70995  0.38770  1.0000
  H   H1895     1.0  0.57647  0.60345  0.33817  1.0000
  H   H1896     1.0  0.68900  0.60094  0.64423  1.0000
  H   H1897     1.0  0.55873  0.61612  0.36258  1.0000
  C   C1588     1.0  0.62333  0.69293  0.55515  1.0000
  H   H1898     1.0  0.66636  0.66727  0.64760  1.0000
  N   N105      1.0  0.57784  0.62951  0.62377  1.0000
  H   H1899     1.0  0.65871  0.58145  0.62294  1.0000
  H   H1900     1.0  0.62057  0.69825  0.56704  1.0000
  C   C1589     1.0  0.62312  0.71204  0.35826  1.0000
  H   H1901     1.0  0.59209  0.70207  0.57915  1.0000
  C   C1590     1.0  0.52672  0.70176  0.41883  1.0000
  H   H1902     1.0  0.59211  0.72173  0.53658  1.0000
  H   H1903     1.0  0.59761  0.63343  0.36030  1.0000
  H   H1904     1.0  0.61613  0.70139  0.63875  1.0000
  H   H1905     1.0  0.63519  0.69720  0.54682  1.0000
  C   C1591     1.0  0.64850  0.58655  0.63280  1.0000
  H   H1906     1.0  0.56442  0.69154  0.33410  1.0000
  C   C1592     1.0  0.66302  0.71395  0.61272  1.0000
  S   S423      1.0  0.49433  0.67009  0.39500  1.0000
  C   C1593     1.0  0.62554  0.50687  0.33895  1.0000
  H   H1907     1.0  0.58915  0.49194  0.37996  1.0000
  H   H1908     1.0  0.50458  0.69920  0.63691  1.0000
  C   C1594     1.0  0.67721  0.71406  0.61912  1.0000
  H   H1909     1.0  0.68979  0.71380  0.61059  1.0000
  H   H1910     1.0  0.67670  0.62207  0.63652  1.0000
  C   C1595     1.0  0.64690  0.71347  0.62379  1.0000
  S   S424      1.0  0.62001  0.63279  0.64098  1.0000
  H   H1911     1.0  0.62177  0.52068  0.33965  1.0000
  H   H1912     1.0  0.60018  0.60963  0.62894  1.0000
  Fe  Fe210     1.0  0.64769  0.63966  0.32443  1.0000
  C   C1596     1.0  0.57958  0.63577  0.33619  1.0000
  H   H1913     1.0  0.66462  0.71376  0.59914  1.0000
  H   H1914     1.0  0.55215  0.64322  0.34800  1.0000
  N   N106      1.0  0.62035  0.50323  0.32429  1.0000
  C   C1597     1.0  0.50836  0.68844  0.45247  1.0000
  H   H1915     1.0  0.72485  0.63507  0.64627  1.0000
  H   H1916     1.0  0.63975  0.50336  0.33805  1.0000
  H   H1917     1.0  0.60551  0.61709  0.59983  1.0000
  H   H1918     1.0  0.50012  0.68376  0.46512  1.0000
  H   H1919     1.0  0.59727  0.70933  0.35992  1.0000
  C   C1598     1.0  0.64375  0.57594  0.64886  1.0000
  H   H1920     1.0  0.56564  0.53798  0.33547  1.0000
  H   H1921     1.0  0.66102  0.52261  0.63753  1.0000
  C   C1599     1.0  0.56469  0.51275  0.33300  1.0000
  H   H1922     1.0  0.60020  0.72235  0.55487  1.0000
  N   N107      1.0  0.49840  0.69520  0.43842  1.0000
  Fe  Fe211     1.0  0.65399  0.67491  0.32368  1.0000
  H   H1923     1.0  0.59697  0.53278  0.33015  1.0000
  H   H1924     1.0  0.66147  0.50437  0.62890  1.0000
  C   C1600     1.0  0.59108  0.52242  0.33007  1.0000
  H   H1925     1.0  0.66642  0.60410  0.64558  1.0000
  C   C1601     1.0  0.60129  0.50621  0.32722  1.0000
  S   S425      1.0  0.53894  0.69475  0.64546  1.0000
  H   H1926     1.0  0.55073  0.51514  0.33544  1.0000
  H   H1927     1.0  0.54557  0.66778  0.32541  1.0000
  H   H1928     1.0  0.54615  0.48943  0.39970  1.0000
  C   C1602     1.0  0.57308  0.52556  0.33304  1.0000
  H   H1929     1.0  0.57643  0.73050  0.60344  1.0000
  C   C1603     1.0  0.59205  0.64056  0.32111  1.0000
  C   C1604     1.0  0.55855  0.66007  0.32416  1.0000
  C   C1605     1.0  0.65936  0.71309  0.64787  1.0000
  C   C1606     1.0  0.70926  0.67752  0.65028  1.0000
  H   H1930     1.0  0.72136  0.68017  0.65091  1.0000
  Fe  Fe212     1.0  0.54688  0.63480  0.68299  1.0000
  S   S426      1.0  0.53200  0.63736  0.70962  1.0000
  S   S427      1.0  0.56010  0.60954  0.67532  1.0000
  Fe  Fe213     1.0  0.53923  0.67331  0.66899  1.0000
  S   S428      1.0  0.52401  0.67885  0.69480  1.0000
  C   C1607     1.0  0.68237  0.72760  0.77564  1.0000
  Fe  Fe214     1.0  0.54543  0.65932  0.70545  1.0000
  S   S429      1.0  0.55788  0.66012  0.72687  1.0000
  H   H1931     1.0  0.62925  0.59811  0.72511  1.0000
  S   S430      1.0  0.56162  0.65552  0.67947  1.0000
  S   S431      1.0  0.52625  0.65215  0.66964  1.0000
  H   H1932     1.0  0.67025  0.67177  0.67540  1.0000
  Fe  Fe215     1.0  0.66443  0.55036  0.71365  1.0000
  S   S432      1.0  0.64371  0.56726  0.70029  1.0000
  S   S433      1.0  0.68327  0.56490  0.71654  1.0000
  Fe  Fe216     1.0  0.65295  0.51737  0.71317  1.0000
  S   S434      1.0  0.63174  0.53224  0.69933  1.0000
  H   H1933     1.0  0.70852  0.69325  0.76006  1.0000
  Fe  Fe217     1.0  0.65105  0.54795  0.68315  1.0000
  Fe  Fe218     1.0  0.62677  0.54973  0.71790  1.0000
  S   S435      1.0  0.60013  0.55987  0.73159  1.0000
  S   S436      1.0  0.67288  0.53187  0.69542  1.0000
  S   S437      1.0  0.64685  0.53407  0.73297  1.0000
  Fe  Fe219     1.0  0.67963  0.67684  0.70885  1.0000
  S   S438      1.0  0.65712  0.66458  0.71267  1.0000
  S   S439      1.0  0.70020  0.67884  0.68447  1.0000
  Fe  Fe220     1.0  0.66750  0.68981  0.74301  1.0000
  S   S440      1.0  0.64324  0.67876  0.74937  1.0000
  S   S441      1.0  0.67161  0.70778  0.75897  1.0000
  Fe  Fe221     1.0  0.66054  0.65526  0.74010  1.0000
  S   S442      1.0  0.65470  0.62892  0.75368  1.0000
  Fe  Fe222     1.0  0.64142  0.68857  0.72143  1.0000
  S   S443      1.0  0.61863  0.70114  0.70854  1.0000
  S   S444      1.0  0.68489  0.66540  0.73573  1.0000
  S   S445      1.0  0.66388  0.70166  0.71565  1.0000
  H   H1934     1.0  0.65507  0.50074  0.68317  1.0000
  H   H1935     1.0  0.63504  0.53098  0.65768  1.0000
  H   H1936     1.0  0.59141  0.49097  0.78151  1.0000
  C   C1608     1.0  0.68047  0.67278  0.66406  1.0000
  H   H1937     1.0  0.61366  0.58960  0.74307  1.0000
  C   C1609     1.0  0.68732  0.71340  0.76739  1.0000
  Fe  Fe223     1.0  0.51226  0.65637  0.69613  1.0000
  N   N108      1.0  0.60862  0.49735  0.75714  1.0000
  H   H1938     1.0  0.63180  0.72313  0.67332  1.0000
  H   H1939     1.0  0.67947  0.65996  0.85139  1.0000
  H   H1940     1.0  0.63626  0.48972  0.75465  1.0000
  H   H1941     1.0  0.65893  0.52004  0.66810  1.0000
  C   C1610     1.0  0.62438  0.49298  0.76454  1.0000
  C   C1611     1.0  0.67505  0.58274  0.72675  1.0000
  C   C1612     1.0  0.66045  0.58305  0.74015  1.0000
  C   C1613     1.0  0.65466  0.59703  0.74865  1.0000
  C   C1614     1.0  0.66283  0.61122  0.74321  1.0000
  C   C1615     1.0  0.67730  0.61099  0.72967  1.0000
  C   C1616     1.0  0.68359  0.59663  0.72171  1.0000
  H   H1942     1.0  0.65399  0.57224  0.74437  1.0000
  H   H1943     1.0  0.64377  0.59688  0.75944  1.0000
  H   H1944     1.0  0.68393  0.62164  0.72575  1.0000
  H   H1945     1.0  0.69511  0.59629  0.71159  1.0000
  H   H1946     1.0  0.58962  0.58201  0.67280  1.0000
  H   H1947     1.0  0.65881  0.71202  0.66148  1.0000
  H   H1948     1.0  0.67611  0.67029  0.82094  1.0000
  H   H1949     1.0  0.70052  0.71382  0.68933  1.0000
  C   C1617     1.0  0.62865  0.52066  0.65864  1.0000
  C   C1618     1.0  0.81330  0.72412  0.90087  1.0000
  H   H1950     1.0  0.71463  0.68594  0.86874  1.0000
  H   H1951     1.0  0.82308  0.72593  0.83650  1.0000
  H   H1952     1.0  0.72176  0.71538  0.82552  1.0000
  H   H1953     1.0  0.62344  0.64462  0.72037  1.0000
  H   H1954     1.0  0.62692  0.62110  0.74111  1.0000
  N   N109      1.0  0.62816  0.71088  0.65419  1.0000
  C   C1619     1.0  0.71632  0.70948  0.77272  1.0000
  H   H1955     1.0  0.82450  0.72904  0.90158  1.0000
  H   H1956     1.0  0.69336  0.69819  0.87629  1.0000
  H   H1957     1.0  0.67454  0.62443  0.69345  1.0000
  H   H1958     1.0  0.73748  0.71513  0.68569  1.0000
  C   C1620     1.0  0.62028  0.65235  0.69447  1.0000
  H   H1959     1.0  0.60634  0.63457  0.74731  1.0000
  S   S446      1.0  0.72716  0.72953  0.78909  1.0000
  C   C1621     1.0  0.57066  0.59531  0.69120  1.0000
  C   C1622     1.0  0.58511  0.58288  0.68628  1.0000
  C   C1623     1.0  0.59402  0.57181  0.69875  1.0000
  C   C1624     1.0  0.58834  0.57291  0.71618  1.0000
  C   C1625     1.0  0.57356  0.58492  0.72120  1.0000
  C   C1626     1.0  0.56486  0.59625  0.70870  1.0000
  H   H1960     1.0  0.50197  0.59523  0.69255  1.0000
  H   H1961     1.0  0.60521  0.56235  0.69486  1.0000
  H   H1962     1.0  0.56897  0.58566  0.73472  1.0000
  H   H1963     1.0  0.55349  0.60544  0.71270  1.0000
  C   C1627     1.0  0.57474  0.67155  0.72151  1.0000
  C   C1628     1.0  0.57710  0.68382  0.70615  1.0000
  C   C1629     1.0  0.59027  0.69319  0.70253  1.0000
  C   C1630     1.0  0.60171  0.68974  0.71380  1.0000
  C   C1631     1.0  0.59948  0.67730  0.72905  1.0000
  C   C1632     1.0  0.58578  0.66854  0.73307  1.0000
  H   H1964     1.0  0.56845  0.68643  0.69732  1.0000
  H   H1965     1.0  0.59152  0.70313  0.69099  1.0000
  H   H1966     1.0  0.60803  0.67475  0.73796  1.0000
  H   H1967     1.0  0.58366  0.65945  0.74519  1.0000
  C   C1633     1.0  0.70122  0.62551  0.65355  1.0000
  C   C1634     1.0  0.60172  0.51220  0.66103  1.0000
  H   H1968     1.0  0.61005  0.72371  0.67362  1.0000
  H   H1969     1.0  0.77730  0.72419  0.91543  1.0000
  C   C1635     1.0  0.61347  0.64985  0.68149  1.0000
  H   H1970     1.0  0.71915  0.69034  0.72851  1.0000
  H   H1971     1.0  0.58783  0.51540  0.66233  1.0000
  C   C1636     1.0  0.70973  0.69767  0.72022  1.0000
  H   H1972     1.0  0.72796  0.69703  0.68780  1.0000
  C   C1637     1.0  0.77393  0.71900  0.87061  1.0000
  C   C1638     1.0  0.68542  0.62636  0.68291  1.0000
  C   C1639     1.0  0.68370  0.67167  0.84392  1.0000
  H   H1973     1.0  0.62521  0.49958  0.70717  1.0000
  H   H1974     1.0  0.61846  0.69127  0.67483  1.0000
  H   H1975     1.0  0.77242  0.71791  0.85813  1.0000
  C   C1640     1.0  0.59361  0.50226  0.77087  1.0000
  C   C1641     1.0  0.62847  0.49109  0.65903  1.0000
  C   C1642     1.0  0.61807  0.64170  0.71089  1.0000
  C   C1643     1.0  0.72200  0.70792  0.83892  1.0000
  C   C1644     1.0  0.61518  0.59880  0.73039  1.0000
  H   H1976     1.0  0.74146  0.69582  0.70216  1.0000
  H   H1977     1.0  0.80614  0.72104  0.91447  1.0000
  H   H1978     1.0  0.73022  0.69501  0.83785  1.0000
  H   H1979     1.0  0.69016  0.72575  0.70569  1.0000
  H   H1980     1.0  0.58151  0.61243  0.73055  1.0000
  H   H1981     1.0  0.49504  0.64368  0.67366  1.0000
  C   C1645     1.0  0.62266  0.59987  0.65861  1.0000
  H   H1982     1.0  0.69850  0.71332  0.81642  1.0000
  N   N110      1.0  0.60620  0.61661  0.73206  1.0000
  H   H1983     1.0  0.64583  0.62063  0.66490  1.0000
  H   H1984     1.0  0.50441  0.69373  0.66706  1.0000
  C   C1646     1.0  0.61058  0.49540  0.66038  1.0000
  N   N111      1.0  0.71631  0.71219  0.70754  1.0000
  S   S447      1.0  0.65542  0.55505  0.65411  1.0000
  H   H1985     1.0  0.61083  0.61246  0.75792  1.0000
  N   N112      1.0  0.67321  0.61421  0.66434  1.0000
  H   H1986     1.0  0.58152  0.50757  0.76584  1.0000
  H   H1987     1.0  0.67599  0.50194  0.66988  1.0000
  N   N113      1.0  0.70447  0.70650  0.84932  1.0000
  H   H1988     1.0  0.72866  0.71467  0.84469  1.0000
  H   H1989     1.0  0.68505  0.58899  0.67665  1.0000
  C   C1647     1.0  0.65619  0.62607  0.66690  1.0000
  C   C1648     1.0  0.69669  0.69629  0.84188  1.0000
  C   C1649     1.0  0.69450  0.70176  0.82449  1.0000
  H   H1990     1.0  0.68567  0.69691  0.80375  1.0000
  C   C1650     1.0  0.68717  0.69246  0.81710  1.0000
  H   H1991     1.0  0.61269  0.60490  0.66869  1.0000
  H   H1992     1.0  0.59920  0.63465  0.67480  1.0000
  H   H1993     1.0  0.69695  0.63664  0.69808  1.0000
  S   S448      1.0  0.65728  0.48817  0.72001  1.0000
  C   C1651     1.0  0.60883  0.62816  0.71482  1.0000
  H   H1994     1.0  0.71211  0.70699  0.87265  1.0000
  C   C1652     1.0  0.69103  0.68090  0.85146  1.0000
  C   C1653     1.0  0.68178  0.67744  0.82678  1.0000
  C   C1654     1.0  0.61285  0.62142  0.74513  1.0000
  H   H1995     1.0  0.75505  0.71037  0.91318  1.0000
  C   C1655     1.0  0.72018  0.72350  0.71703  1.0000
  H   H1996     1.0  0.69304  0.73124  0.83546  1.0000
  C   C1656     1.0  0.70616  0.69896  0.86755  1.0000
  C   C1657     1.0  0.70443  0.70431  0.76609  1.0000
  H   H1997     1.0  0.74850  0.71717  0.70984  1.0000
  H   H1998     1.0  0.84535  0.73669  0.91039  1.0000
  C   C1658     1.0  0.69824  0.63316  0.68578  1.0000
  C   C1659     1.0  0.63807  0.50360  0.65837  1.0000
  H   H1999     1.0  0.79779  0.73702  0.82221  1.0000
  H   H2000     1.0  0.72948  0.70232  0.77154  1.0000
  H   H2001     1.0  0.58506  0.60844  0.75196  1.0000
  H   H2002     1.0  0.59877  0.51735  0.73681  1.0000
  H   H2003     1.0  0.66920  0.73475  0.77683  1.0000
  H   H2004     1.0  0.62707  0.66274  0.69205  1.0000
  S   S449      1.0  0.75264  0.73694  0.81992  1.0000
  C   C1660     1.0  0.63040  0.58246  0.66142  1.0000
  H   H2005     1.0  0.65650  0.63861  0.65763  1.0000
  C   C1661     1.0  0.60238  0.62577  0.70118  1.0000
  C   C1662     1.0  0.61075  0.52482  0.66011  1.0000
  C   C1663     1.0  0.71400  0.63224  0.65661  1.0000
  H   H2006     1.0  0.69212  0.67568  0.86477  1.0000
  C   C1664     1.0  0.63072  0.69379  0.66591  1.0000
  H   H2007     1.0  0.62620  0.57409  0.67345  1.0000
  H   H2008     1.0  0.60388  0.53793  0.66056  1.0000
  C   C1665     1.0  0.58751  0.61689  0.73893  1.0000
  H   H2009     1.0  0.69748  0.70213  0.72904  1.0000
  H   H2010     1.0  0.92972  0.73484  0.87795  1.0000
  H   H2011     1.0  0.69882  0.73196  0.85488  1.0000
  C   C1666     1.0  0.76283  0.71265  0.88561  1.0000
  H   H2012     1.0  0.72230  0.64153  0.67493  1.0000
  N   N114      1.0  0.65706  0.49957  0.65669  1.0000
  C   C1667     1.0  0.60459  0.63655  0.68486  1.0000
  H   H2013     1.0  0.58032  0.63015  0.74005  1.0000
  C   C1668     1.0  0.69607  0.67637  0.66506  1.0000
  H   H2014     1.0  0.61009  0.59384  0.72163  1.0000
  C   C1669     1.0  0.77687  0.72278  0.90273  1.0000
  C   C1670     1.0  0.68663  0.62206  0.66678  1.0000
  H   H2015     1.0  0.59544  0.61560  0.70305  1.0000
  H   H2016     1.0  0.70712  0.68852  0.71367  1.0000
  C   C1671     1.0  0.74052  0.73445  0.72701  1.0000
  C   C1672     1.0  0.76416  0.71471  0.90161  1.0000
  H   H2017     1.0  0.70680  0.73361  0.68855  1.0000
  H   H2018     1.0  0.60136  0.71105  0.65537  1.0000
  H   H2019     1.0  0.94550  0.73316  0.89748  1.0000
  H   H2020     1.0  0.71092  0.73169  0.90368  1.0000
  H   H2021     1.0  0.69328  0.73249  0.72899  1.0000
  C   C1673     1.0  0.73732  0.72438  0.71708  1.0000
  H   H2022     1.0  0.66318  0.59089  0.67491  1.0000
  H   H2023     1.0  0.61499  0.65819  0.66879  1.0000
  H   H2024     1.0  0.97368  0.73453  0.90156  1.0000
  C   C1674     1.0  0.71260  0.63591  0.67273  1.0000
  C   C1675     1.0  0.62279  0.72442  0.66470  1.0000
  C   C1676     1.0  0.73154  0.70482  0.69527  1.0000
  C   C1677     1.0  0.78870  0.72901  0.88776  1.0000
  H   H2025     1.0  0.81844  0.71188  0.89608  1.0000
  C   C1678     1.0  0.71142  0.72378  0.78082  1.0000
  H   H2026     1.0  0.63994  0.69267  0.67427  1.0000
  C   C1679     1.0  0.70292  0.72182  0.69736  1.0000
  H   H2027     1.0  0.59551  0.51247  0.77660  1.0000
  C   C1680     1.0  0.78672  0.72707  0.87158  1.0000
  H   H2028     1.0  0.61198  0.52361  0.74738  1.0000
  C   C1681     1.0  0.67220  0.59784  0.67719  1.0000
  H   H2029     1.0  0.66756  0.59984  0.69073  1.0000
  C   C1682     1.0  0.61027  0.51254  0.74284  1.0000
  C   C1683     1.0  0.66192  0.50583  0.66999  1.0000
  C   C1684     1.0  0.69426  0.73277  0.78228  1.0000
  H   H2030     1.0  0.75273  0.70672  0.88474  1.0000
  H   H2031     1.0  0.75366  0.73467  0.72722  1.0000
  H   H2032     1.0  0.62166  0.50942  0.73251  1.0000
  H   H2033     1.0  0.63579  0.68330  0.65847  1.0000
  H   H2034     1.0  0.79481  0.73172  0.85946  1.0000
  C   C1685     1.0  0.69365  0.72403  0.84889  1.0000
  H   H2035     1.0  0.68017  0.72352  0.85601  1.0000
  H   H2036     1.0  0.58221  0.49735  0.74196  1.0000
  S   S450      1.0  0.72803  0.73669  0.86852  1.0000
  C   C1686     1.0  0.70661  0.73324  0.72752  1.0000
  N   N115      1.0  0.80249  0.73682  0.88945  1.0000
  H   H2037     1.0  0.62612  0.50401  0.76913  1.0000
  H   H2038     1.0  0.82098  0.73112  0.86650  1.0000
  H   H2039     1.0  0.65203  0.62871  0.68020  1.0000
  C   C1687     1.0  0.76430  0.82794  0.03631  1.0000
  H   H2040     1.0  0.81125  0.82533  0.19165  1.0000
  H   H2041     1.0  0.84050  0.85100  0.24217  1.0000
  C   C1688     1.0  0.80926  0.81258  0.19102  1.0000
  C   C1689     1.0  0.80701  0.96236  0.14705  1.0000
  S   S451      1.0  0.96457  0.83517  0.20825  1.0000
  H   H2042     1.0  0.79510  0.92300  0.23245  1.0000
  Fe  Fe224     1.0  0.87757  0.78760  0.17101  1.0000
  S   S452      1.0  0.85838  0.81100  0.17751  1.0000
  S   S453      1.0  0.87142  0.77192  0.15521  1.0000
  Fe  Fe225     1.0  0.90164  0.79073  0.19257  1.0000
  S   S454      1.0  0.88418  0.81425  0.20115  1.0000
  S   S455      1.0  0.92790  0.77958  0.19910  1.0000
  Fe  Fe226     1.0  0.86283  0.80031  0.20446  1.0000
  S   S456      1.0  0.83895  0.80234  0.22546  1.0000
  Fe  Fe227     1.0  0.88145  0.82261  0.17351  1.0000
  S   S457      1.0  0.88471  0.84902  0.15889  1.0000
  S   S458      1.0  0.88047  0.77585  0.19838  1.0000
  S   S459      1.0  0.90043  0.80013  0.16450  1.0000
  Fe  Fe228     1.0  0.76849  0.91233  0.17723  1.0000
  S   S460      1.0  0.79335  0.89358  0.17980  1.0000
  S   S461      1.0  0.76017  0.93728  0.18687  1.0000
  Fe  Fe229     1.0  0.75769  0.89072  0.15763  1.0000
  S   S462      1.0  0.78179  0.87058  0.15840  1.0000
  S   S463      1.0  0.73673  0.88899  0.14523  1.0000
  Fe  Fe230     1.0  0.77741  0.87329  0.18593  1.0000
  S   S464      1.0  0.78147  0.84976  0.20693  1.0000
  Fe  Fe231     1.0  0.79496  0.89283  0.15219  1.0000
  S   S465      1.0  0.81886  0.89485  0.13184  1.0000
  S   S466      1.0  0.75227  0.89202  0.18575  1.0000
  S   S467      1.0  0.77126  0.91299  0.14900  1.0000
  H   H2043     1.0  0.91633  0.86108  0.18336  1.0000
  S   S468      1.0  0.75152  0.76145  0.25394  1.0000
  H   H2044     1.0  0.99113  0.74547  0.21094  1.0000
  H   H2045     1.0  0.93781  0.82567  0.17457  1.0000
  S   S469      1.0  0.72332  0.75398  0.23522  1.0000
  C   C1690     1.0  0.97741  0.84043  0.13063  1.0000
  Fe  Fe232     1.0  0.73851  0.77451  0.23148  1.0000
  S   S470      1.0  0.72670  0.80238  0.22369  1.0000
  C   C1691     1.0  0.80083  0.74515  0.28036  1.0000
  C   C1692     1.0  0.95992  0.84260  0.13864  1.0000
  S   S471      1.0  0.76031  0.76424  0.21146  1.0000
  C   C1693     1.0  0.98054  0.77150  0.23062  1.0000
  Fe  Fe233     1.0  0.79265  0.79590  0.07147  1.0000
  S   S472      1.0  0.76953  0.78787  0.09039  1.0000
  S   S473      1.0  0.80030  0.79295  0.04348  1.0000
  Fe  Fe234     1.0  0.80499  0.80641  0.09906  1.0000
  S   S474      1.0  0.78297  0.79898  0.12023  1.0000
  S   S475      1.0  0.82350  0.81927  0.10487  1.0000
  Fe  Fe235     1.0  0.78774  0.77579  0.10856  1.0000
  H   H2046     1.0  0.79710  0.97220  0.14178  1.0000
  Fe  Fe236     1.0  0.76714  0.81187  0.10013  1.0000
  S   S476      1.0  0.74178  0.82974  0.10610  1.0000
  S   S477      1.0  0.81124  0.78211  0.08898  1.0000
  S   S478      1.0  0.78871  0.82108  0.07964  1.0000
  H   H2047     1.0  0.85041  0.85828  0.21971  1.0000
  S   S479      1.0  0.75483  0.76669  0.00665  1.0000
  C   C1694     1.0  0.78758  0.78489  0.03402  1.0000
  C   C1695     1.0  0.77043  0.78371  0.04178  1.0000
  C   C1696     1.0  0.76056  0.77792  0.03340  1.0000
  C   C1697     1.0  0.76772  0.77329  0.01723  1.0000
  C   C1698     1.0  0.78495  0.77413  0.00972  1.0000
  C   C1699     1.0  0.79480  0.77994  0.01805  1.0000
  H   H2048     1.0  0.76465  0.78765  0.05401  1.0000
  H   H2049     1.0  0.74724  0.77729  0.03932  1.0000
  H   H2050     1.0  0.79082  0.77008  0.99760  1.0000
  H   H2051     1.0  0.80811  0.78062  0.01205  1.0000
  C   C1700     1.0  0.81935  0.96659  0.15394  1.0000
  C   C1701     1.0  0.76015  0.75191  0.17007  1.0000
  C   C1702     1.0  0.76980  0.75620  0.15322  1.0000
  H   H2052     1.0  0.85306  0.75372  0.18818  1.0000
  H   H2053     1.0  0.79150  0.87699  0.21942  1.0000
  H   H2054     1.0  0.77895  0.90648  0.22311  1.0000
  H   H2055     1.0  0.75619  0.76110  0.17842  1.0000
  H   H2056     1.0  0.77325  0.76870  0.14864  1.0000
  H   H2057     1.0  0.83799  0.88088  0.23371  1.0000
  C   C1703     1.0  0.82506  0.88570  0.23142  1.0000
  C   C1704     1.0  0.96157  0.79548  0.24343  1.0000
  H   H2058     1.0  0.91093  0.86735  0.15495  1.0000
  H   H2059     1.0  0.75059  0.81724  0.16478  1.0000
  H   H2060     1.0  0.73399  0.79679  0.14819  1.0000
  H   H2061     1.0  0.68890  0.86562  0.19243  1.0000
  H   H2062     1.0  0.82996  0.81279  0.15878  1.0000
  H   H2063     1.0  0.77718  0.81734  0.18468  1.0000
  S   S480      1.0  0.78907  0.74812  0.12220  1.0000
  H   H2064     1.0  0.73952  0.82013  0.98866  1.0000
  C   C1705     1.0  0.73927  0.87245  0.13404  1.0000
  C   C1706     1.0  0.72521  0.87159  0.12773  1.0000
  C   C1707     1.0  0.72628  0.85854  0.11905  1.0000
  C   C1708     1.0  0.74151  0.84630  0.11637  1.0000
  C   C1709     1.0  0.75580  0.84716  0.12245  1.0000
  C   C1710     1.0  0.75465  0.86022  0.13135  1.0000
  H   H2065     1.0  0.71331  0.88098  0.12973  1.0000
  H   H2066     1.0  0.71520  0.85793  0.11446  1.0000
  H   H2067     1.0  0.76766  0.83779  0.12032  1.0000
  H   H2068     1.0  0.76564  0.86094  0.13593  1.0000
  C   C1711     1.0  0.76550  0.83734  0.21224  1.0000
  C   C1712     1.0  0.76755  0.82162  0.22402  1.0000
  C   C1713     1.0  0.75583  0.81071  0.22740  1.0000
  C   C1714     1.0  0.74150  0.81590  0.21960  1.0000
  C   C1715     1.0  0.73913  0.83188  0.20822  1.0000
  C   C1716     1.0  0.75128  0.84246  0.20428  1.0000
  H   H2069     1.0  0.77822  0.81789  0.23054  1.0000
  H   H2070     1.0  0.75762  0.79851  0.23639  1.0000
  H   H2071     1.0  0.72798  0.83607  0.20234  1.0000
  H   H2072     1.0  0.74952  0.85460  0.19519  1.0000
  C   C1717     1.0  0.94923  0.77306  0.24005  1.0000
  C   C1718     1.0  0.77497  0.94560  0.19324  1.0000
  C   C1719     1.0  0.79202  0.93680  0.19305  1.0000
  C   C1720     1.0  0.80337  0.94355  0.19861  1.0000
  H   H2073     1.0  0.79643  0.92472  0.18877  1.0000
  H   H2074     1.0  0.81649  0.93659  0.19857  1.0000
  C   C1721     1.0  0.86620  0.86146  0.15158  1.0000
  C   C1722     1.0  0.86793  0.87489  0.13716  1.0000
  C   C1723     1.0  0.85333  0.88496  0.13101  1.0000
  C   C1724     1.0  0.83693  0.88190  0.13955  1.0000
  C   C1725     1.0  0.83510  0.86863  0.15417  1.0000
  C   C1726     1.0  0.84978  0.85828  0.16009  1.0000
  H   H2075     1.0  0.88060  0.87739  0.13059  1.0000
  H   H2076     1.0  0.85474  0.89527  0.11976  1.0000
  H   H2077     1.0  0.82241  0.86629  0.16083  1.0000
  H   H2078     1.0  0.84840  0.84809  0.17138  1.0000
  C   C1727     1.0  0.85935  0.78486  0.13994  1.0000
  C   C1728     1.0  0.85894  0.80256  0.13506  1.0000
  C   C1729     1.0  0.84834  0.81298  0.12377  1.0000
  C   C1730     1.0  0.83809  0.80574  0.11736  1.0000
  C   C1731     1.0  0.83893  0.78797  0.12174  1.0000
  C   C1732     1.0  0.84956  0.77753  0.13302  1.0000
  H   H2079     1.0  0.86676  0.80825  0.14004  1.0000
  H   H2080     1.0  0.84788  0.82671  0.12026  1.0000
  H   H2081     1.0  0.83119  0.78230  0.11665  1.0000
  H   H2082     1.0  0.80994  0.84703  0.24953  1.0000
  C   C1733     1.0  0.82831  0.78533  0.22865  1.0000
  C   C1734     1.0  0.77548  0.74404  0.14260  1.0000
  C   C1735     1.0  0.80153  0.77512  0.23437  1.0000
  C   C1736     1.0  0.81093  0.75872  0.23230  1.0000
  C   C1737     1.0  0.82897  0.75554  0.22898  1.0000
  C   C1738     1.0  0.83765  0.76889  0.22680  1.0000
  H   H2083     1.0  0.96236  0.85972  0.17198  1.0000
  C   C1739     1.0  0.95355  0.84976  0.15374  1.0000
  H   H2084     1.0  0.93792  0.76800  0.24092  1.0000
  H   H2085     1.0  0.85158  0.76634  0.22414  1.0000
  C   C1740     1.0  0.95465  0.81962  0.20547  1.0000
  C   C1741     1.0  0.93690  0.82064  0.21197  1.0000
  C   C1742     1.0  0.92859  0.80850  0.20987  1.0000
  C   C1743     1.0  0.93804  0.79513  0.20145  1.0000
  C   C1744     1.0  0.95581  0.79404  0.19502  1.0000
  C   C1745     1.0  0.96406  0.80640  0.19684  1.0000
  H   H2086     1.0  0.92958  0.83079  0.21876  1.0000
  H   H2087     1.0  0.91497  0.80923  0.21517  1.0000
  C   C1746     1.0  0.84074  0.85087  0.22850  1.0000
  H   H2088     1.0  0.81234  0.86058  0.20199  1.0000
  H   H2089     1.0  0.82138  0.80307  0.19282  1.0000
  H   H2090     1.0  0.81840  0.83362  0.16264  1.0000
  H   H2091     1.0  0.72955  0.84127  0.15679  1.0000
  H   H2092     1.0  0.83348  0.86512  0.19698  1.0000
  C   C1747     1.0  0.71610  0.82335  0.17712  1.0000
  C   C1748     1.0  0.71927  0.83985  0.16803  1.0000
  H   H2093     1.0  0.79721  0.75590  0.19625  1.0000
  H   H2094     1.0  0.70750  0.79210  0.18094  1.0000
  H   H2095     1.0  0.80363  0.78731  0.27146  1.0000
  H   H2096     1.0  0.75355  0.79429  0.16875  1.0000
  C   C1749     1.0  0.78081  0.96811  0.20432  1.0000
  H   H2097     1.0  0.72899  0.78006  0.17618  1.0000
  H   H2098     1.0  0.98200  0.83492  0.11913  1.0000
  H   H2099     1.0  0.68291  0.83726  0.20914  1.0000
  H   H2100     1.0  0.74554  0.80537  0.18653  1.0000
  C   C1750     1.0  0.74685  0.83268  0.04342  1.0000
  C   C1751     1.0  0.77057  0.74128  0.08526  1.0000
  C   C1752     1.0  0.76969  0.82624  0.01900  1.0000
  C   C1753     1.0  0.72112  0.79156  0.18134  1.0000
  H   H2101     1.0  0.92962  0.83026  0.15518  1.0000
  C   C1754     1.0  0.69287  0.83797  0.19745  1.0000
  H   H2102     1.0  0.75610  0.80283  0.99571  1.0000
  H   H2103     1.0  0.73299  0.81925  0.14397  1.0000
  N   N116      1.0  0.80634  0.87201  0.09493  1.0000
  C   C1755     1.0  0.80865  0.86168  0.11225  1.0000
  C   C1756     1.0  0.81152  0.86011  0.08264  1.0000
  C   C1757     1.0  0.81835  0.88422  0.08903  1.0000
  C   C1758     1.0  0.78824  0.88154  0.09615  1.0000
  C   C1759     1.0  0.77635  0.87776  0.08825  1.0000
  C   C1760     1.0  0.78181  0.89460  0.10607  1.0000
  C   C1761     1.0  0.75925  0.88681  0.08998  1.0000
  C   C1762     1.0  0.76474  0.90362  0.10758  1.0000
  C   C1763     1.0  0.75349  0.89976  0.09955  1.0000
  H   H2104     1.0  0.79981  0.85238  0.11714  1.0000
  H   H2105     1.0  0.82209  0.85416  0.11194  1.0000
  H   H2106     1.0  0.80603  0.86987  0.12197  1.0000
  H   H2107     1.0  0.80399  0.84967  0.08697  1.0000
  H   H2108     1.0  0.80990  0.86706  0.06936  1.0000
  H   H2109     1.0  0.81678  0.89246  0.09846  1.0000
  H   H2110     1.0  0.83209  0.87736  0.08740  1.0000
  H   H2111     1.0  0.81635  0.89289  0.07648  1.0000
  H   H2112     1.0  0.77977  0.86764  0.08100  1.0000
  H   H2113     1.0  0.78982  0.89769  0.11308  1.0000
  H   H2114     1.0  0.75023  0.88338  0.08436  1.0000
  H   H2115     1.0  0.75994  0.91323  0.11560  1.0000
  H   H2116     1.0  0.74008  0.90633  0.10139  1.0000
  C   C1764     1.0  0.81697  0.82131  0.16024  1.0000
  H   H2117     1.0  0.82529  0.85341  0.08173  1.0000
  H   H2118     1.0  0.79889  0.80964  0.20244  1.0000
  H   H2119     1.0  0.81700  0.83253  0.23470  1.0000
  N   N117      1.0  0.93490  0.85226  0.16169  1.0000
  H   H2120     1.0  0.93729  0.85131  0.18765  1.0000
  C   C1765     1.0  0.80087  0.90989  0.23085  1.0000
  C   C1766     1.0  0.81180  0.84621  0.23575  1.0000
  H   H2121     1.0  0.83034  0.84320  0.20393  1.0000
  H   H2122     1.0  0.84567  0.83722  0.22697  1.0000
  C   C1767     1.0  0.75370  0.81550  0.98680  1.0000
  H   H2123     1.0  0.79882  0.84941  0.23254  1.0000
  H   H2124     1.0  0.72998  0.83701  0.00841  1.0000
  H   H2125     1.0  0.82460  0.91012  0.23730  1.0000
  N   N118      1.0  0.82335  0.85769  0.22426  1.0000
  C   C1768     1.0  0.82495  0.85659  0.20602  1.0000
  H   H2126     1.0  0.78322  0.82501  0.16170  1.0000
  C   C1769     1.0  0.81598  0.87566  0.22643  1.0000
  C   C1770     1.0  0.70946  0.85487  0.17347  1.0000
  H   H2127     1.0  0.97764  0.80572  0.19157  1.0000
  H   H2128     1.0  0.84992  0.76386  0.13656  1.0000
  H   H2129     1.0  0.81958  0.91879  0.15333  1.0000
  N   N119      1.0  0.81924  0.98481  0.15351  1.0000
  C   C1771     1.0  0.79175  0.90052  0.22567  1.0000
  C   C1772     1.0  0.81751  0.90256  0.23358  1.0000
  C   C1773     1.0  0.79913  0.88367  0.22351  1.0000
  S   S481      1.0  0.81249  0.96726  0.21106  1.0000
  H   H2130     1.0  0.80057  0.75053  0.16694  1.0000
  N   N120      1.0  0.80453  0.81283  0.17449  1.0000
  C   C1774     1.0  0.79782  0.95921  0.20425  1.0000
  H   H2131     1.0  0.78604  0.83633  0.17663  1.0000
  C   C1775     1.0  0.96580  0.85448  0.16038  1.0000
  C   C1776     1.0  0.98320  0.85243  0.15214  1.0000
  C   C1777     1.0  0.98901  0.84541  0.13733  1.0000
  C   C1778     1.0  0.96558  0.76471  0.23268  1.0000
  H   H2132     1.0  0.76312  0.75343  0.07867  1.0000
  H   H2133     1.0  0.95137  0.83864  0.13294  1.0000
  H   H2134     1.0  0.79097  0.76274  0.06551  1.0000
  H   H2135     1.0  0.75378  0.73998  0.31264  1.0000
  C   C1779     1.0  0.92491  0.86415  0.14904  1.0000
  H   H2136     1.0  0.72108  0.83957  0.03876  1.0000
  H   H2137     1.0  0.83147  0.75014  0.19623  1.0000
  N   N121      1.0  0.72695  0.80764  0.17124  1.0000
  H   H2138     1.0  0.77634  0.98011  0.20883  1.0000
  H   H2139     1.0  0.96311  0.78377  0.18841  1.0000
  C   C1780     1.0  0.80502  0.77570  0.15402  1.0000
  H   H2140     1.0  0.79730  0.94233  0.14200  1.0000
  C   C1781     1.0  0.72679  0.80879  0.15281  1.0000
  H   H2141     1.0  0.71227  0.86732  0.16642  1.0000
  C   C1782     1.0  0.70260  0.82286  0.19212  1.0000
  H   H2142     1.0  0.81296  0.82490  0.14756  1.0000
  C   C1783     1.0  0.78698  0.82334  0.17431  1.0000
  H   H2143     1.0  0.77375  0.82520  0.04437  1.0000
  C   C1784     1.0  0.80445  0.79542  0.17246  1.0000
  H   H2144     1.0  0.79873  0.78375  0.20010  1.0000
  H   H2145     1.0  0.99231  0.85632  0.15726  1.0000
  C   C1785     1.0  0.94725  0.78835  0.24550  1.0000
  H   H2146     1.0  0.75901  0.76528  0.29332  1.0000
  C   C1786     1.0  0.80095  0.78201  0.18699  1.0000
  H   H2147     1.0  0.80774  0.80158  0.14421  1.0000
  C   C1787     1.0  0.83186  0.95264  0.16058  1.0000
  H   H2148     1.0  0.83629  0.74277  0.22793  1.0000
  H   H2149     1.0  0.93346  0.87271  0.17459  1.0000
  C   C1788     1.0  0.80599  0.79189  0.15590  1.0000
  C   C1789     1.0  0.81028  0.78830  0.23289  1.0000
  C   C1790     1.0  0.79982  0.76595  0.18495  1.0000
  H   H2150     1.0  0.69962  0.81095  0.20032  1.0000
  H   H2151     1.0  0.93449  0.79505  0.25070  1.0000
  C   C1791     1.0  0.73991  0.83436  0.01582  1.0000
  C   C1792     1.0  0.79737  0.75042  0.07269  1.0000
  N   N122      1.0  0.76277  0.82770  0.98981  1.0000
  C   C1793     1.0  0.80183  0.76283  0.16851  1.0000
  H   H2152     1.0  0.84147  0.92519  0.16545  1.0000
  C   C1794     1.0  0.80709  0.94530  0.14695  1.0000
  S   S482      1.0  0.80061  0.74194  0.23368  1.0000
  C   C1795     1.0  0.93036  0.85969  0.17749  1.0000
  C   C1796     1.0  0.92934  0.83547  0.16659  1.0000
  H   H2153     1.0  0.80648  0.77316  0.14124  1.0000
  H   H2154     1.0  0.79775  0.75259  0.08548  1.0000
  C   C1797     1.0  0.73467  0.83593  0.03317  1.0000
  C   C1798     1.0  0.78293  0.74627  0.28755  1.0000
  H   H2155     1.0  0.95989  0.80784  0.24688  1.0000
  C   C1799     1.0  0.75759  0.82931  0.00821  1.0000
  H   H2156     1.0  0.78757  0.77758  0.23731  1.0000
  H   H2157     1.0  0.80317  0.80089  0.23482  1.0000
  C   C1800     1.0  0.74496  0.80606  0.17286  1.0000
  C   C1801     1.0  0.76944  0.96130  0.19883  1.0000
  H   H2158     1.0  0.83887  0.75772  0.17351  1.0000
  C   C1802     1.0  0.81960  0.93199  0.15340  1.0000
  C   C1803     1.0  0.78026  0.77760  0.28273  1.0000
  H   H2159     1.0  0.78340  0.82211  0.01458  1.0000
  C   C1804     1.0  0.69628  0.85394  0.18813  1.0000
  Fe  Fe237     1.0  0.77212  0.74930  0.23411  1.0000
  H   H2160     1.0  0.92963  0.87644  0.14403  1.0000
  H   H2161     1.0  0.71336  0.81133  0.15076  1.0000
  H   H2162     1.0  0.72229  0.78906  0.19512  1.0000
  Fe  Fe238     1.0  0.74619  0.74284  0.21671  1.0000
  C   C1805     1.0  0.83195  0.93565  0.16019  1.0000
  H   H2163     1.0  0.78595  0.80840  0.99189  1.0000
  H   H2164     1.0  0.96602  0.75324  0.22826  1.0000
  H   H2165     1.0  0.75623  0.96815  0.19909  1.0000
  C   C1806     1.0  0.97795  0.78730  0.23598  1.0000
  H   H2166     1.0  0.82182  0.75868  0.26910  1.0000
  H   H2167     1.0  0.92563  0.85851  0.13777  1.0000
  C   C1807     1.0  0.77279  0.76302  0.28845  1.0000
  H   H2168     1.0  0.91584  0.83643  0.17418  1.0000
  H   H2169     1.0  0.74278  0.83372  0.05693  1.0000
  C   C1808     1.0  0.83230  0.98693  0.16216  1.0000
  H   H2170     1.0  0.77226  0.79028  0.28332  1.0000
  H   H2171     1.0  0.79904  0.98661  0.17606  1.0000
  C   C1809     1.0  0.79791  0.77597  0.27608  1.0000
  Fe  Fe239     1.0  0.73833  0.73975  0.25587  1.0000
  H   H2172     1.0  0.84154  0.95446  0.16642  1.0000
  C   C1810     1.0  0.84274  0.74885  0.18532  1.0000
  H   H2173     1.0  0.74924  0.74210  0.29151  1.0000
  H   H2174     1.0  0.81100  0.74774  0.06574  1.0000
  H   H2175     1.0  0.86135  0.73975  0.15634  1.0000
  H   H2176     1.0  0.77126  0.74357  0.09795  1.0000
  H   H2177     1.0  0.98844  0.79383  0.23394  1.0000
  H   H2178     1.0  0.84568  0.98196  0.15563  1.0000
  H   H2179     1.0  0.83021  0.98032  0.17606  1.0000
  C   C1811     1.0  0.80817  0.75980  0.27484  1.0000
  Fe  Fe240     1.0  0.75109  0.77005  0.94379  1.0000
  S   S483      1.0  0.77442  0.77940  0.92692  1.0000
  H   H2180     1.0  0.79321  0.78171  0.84193  1.0000
  S   S484      1.0  0.78680  0.77804  0.96286  1.0000
  Fe  Fe241     1.0  0.77030  0.79661  0.94558  1.0000
  S   S485      1.0  0.77512  0.82347  0.93730  1.0000
  H   H2181     1.0  0.78847  0.91289  0.87282  1.0000
  S   S486      1.0  0.92688  0.76850  0.82510  1.0000
  S   S487      1.0  0.74551  0.78921  0.96105  1.0000
  H   H2182     1.0  0.76454  0.81580  0.88740  1.0000
  H   H2183     1.0  0.80474  0.75871  0.89825  1.0000
  C   C1812     1.0  0.79179  0.90327  0.88442  1.0000
  S   S488      1.0  0.96415  0.81235  0.85233  1.0000
  H   H2184     1.0  0.80123  0.89422  0.91583  1.0000
  H   H2185     1.0  0.78327  0.81328  0.90386  1.0000
  Fe  Fe242     1.0  0.86514  0.80043  0.82172  1.0000
  S   S489      1.0  0.88018  0.77619  0.81272  1.0000
  S   S490      1.0  0.85108  0.82328  0.80547  1.0000
  Fe  Fe243     1.0  0.86421  0.76291  0.83673  1.0000
  H   H2186     1.0  0.76186  0.78490  0.85358  1.0000
  Fe  Fe244     1.0  0.89770  0.77592  0.83024  1.0000
  C   C1813     1.0  0.70110  0.85141  0.84839  1.0000
  S   S491      1.0  0.84813  0.78715  0.84442  1.0000
  S   S492      1.0  0.88391  0.80138  0.83704  1.0000
  C   C1814     1.0  0.92374  0.74833  0.87293  1.0000
  Fe  Fe245     1.0  0.74225  0.88175  0.86427  1.0000
  S   S493      1.0  0.73259  0.89762  0.84065  1.0000
  S   S494      1.0  0.72553  0.87020  0.88861  1.0000
  Fe  Fe246     1.0  0.77952  0.88274  0.84760  1.0000
  S   S495      1.0  0.77338  0.89866  0.82242  1.0000
  S   S496      1.0  0.80563  0.87373  0.85423  1.0000
  Fe  Fe247     1.0  0.75177  0.91380  0.83915  1.0000
  S   S497      1.0  0.74575  0.94266  0.83674  1.0000
  Fe  Fe248     1.0  0.75502  0.88085  0.82632  1.0000
  S   S498      1.0  0.75380  0.86863  0.80480  1.0000
  S   S499      1.0  0.75942  0.89912  0.86395  1.0000
  S   S500      1.0  0.76313  0.86378  0.85015  1.0000
  H   H2187     1.0  0.78349  0.85393  0.77885  1.0000
  S   S501      1.0  0.74498  0.77416  0.83174  1.0000
  S   S502      1.0  0.74242  0.77236  0.79220  1.0000
  H   H2188     1.0  0.80069  0.84119  0.87840  1.0000
  Fe  Fe249     1.0  0.72552  0.78313  0.81495  1.0000
  S   S503      1.0  0.71163  0.81090  0.81224  1.0000
  S   S504      1.0  0.71305  0.75995  0.82555  1.0000
  H   H2189     1.0  0.77955  0.83821  0.87945  1.0000
  H   H2190     1.0  0.82139  0.81614  0.85687  1.0000
  C   C1815     1.0  0.74117  0.85290  0.80881  1.0000
  C   C1816     1.0  0.74531  0.83662  0.81933  1.0000
  C   C1817     1.0  0.73670  0.82342  0.82016  1.0000
  C   C1818     1.0  0.72365  0.82657  0.81077  1.0000
  C   C1819     1.0  0.71929  0.84296  0.80068  1.0000
  C   C1820     1.0  0.72823  0.85591  0.79942  1.0000
  H   H2191     1.0  0.75538  0.83407  0.82655  1.0000
  H   H2192     1.0  0.73995  0.81095  0.82829  1.0000
  H   H2193     1.0  0.70918  0.84557  0.79346  1.0000
  H   H2194     1.0  0.72516  0.86830  0.79100  1.0000
  C   C1821     1.0  0.78055  0.96318  0.85948  1.0000
  C   C1822     1.0  0.76378  0.97230  0.85840  1.0000
  C   C1823     1.0  0.75324  0.96605  0.85122  1.0000
  C   C1824     1.0  0.75914  0.95032  0.84569  1.0000
  C   C1825     1.0  0.77573  0.94101  0.84716  1.0000
  C   C1826     1.0  0.78648  0.94756  0.85376  1.0000
  H   H2195     1.0  0.74038  0.97326  0.85021  1.0000
  H   H2196     1.0  0.78045  0.92896  0.84276  1.0000
  H   H2197     1.0  0.79947  0.94048  0.85440  1.0000
  C   C1827     1.0  0.83896  0.83790  0.81858  1.0000
  C   C1828     1.0  0.84347  0.83769  0.83408  1.0000
  C   C1829     1.0  0.83351  0.84912  0.84474  1.0000
  C   C1830     1.0  0.81873  0.86045  0.84017  1.0000
  C   C1831     1.0  0.81407  0.86054  0.82478  1.0000
  C   C1832     1.0  0.82436  0.84950  0.81384  1.0000
  H   H2198     1.0  0.85473  0.82885  0.83781  1.0000
  H   H2199     1.0  0.83713  0.84895  0.85666  1.0000
  H   H2200     1.0  0.80265  0.86924  0.82118  1.0000
  H   H2201     1.0  0.82093  0.84986  0.80180  1.0000
  H   H2202     1.0  0.80436  0.81598  0.90277  1.0000
  H   H2203     1.0  0.82547  0.81807  0.87660  1.0000
  H   H2204     1.0  0.75147  0.76986  0.89739  1.0000
  C   C1833     1.0  0.76156  0.80044  0.87132  1.0000
  C   C1834     1.0  0.95453  0.80021  0.84389  1.0000
  C   C1835     1.0  0.93855  0.80762  0.83922  1.0000
  C   C1836     1.0  0.93033  0.79822  0.83278  1.0000
  C   C1837     1.0  0.93784  0.78121  0.83128  1.0000
  C   C1838     1.0  0.81148  0.95187  0.81016  1.0000
  C   C1839     1.0  0.96239  0.78341  0.84183  1.0000
  H   H2205     1.0  0.93245  0.82068  0.84062  1.0000
  H   H2206     1.0  0.91816  0.80418  0.82898  1.0000
  C   C1840     1.0  0.79708  0.79679  0.85830  1.0000
  C   C1841     1.0  0.72491  0.84398  0.86281  1.0000
  C   C1842     1.0  0.76104  0.83639  0.92413  1.0000
  C   C1843     1.0  0.74476  0.83287  0.92575  1.0000
  C   C1844     1.0  0.73365  0.84346  0.91503  1.0000
  C   C1845     1.0  0.73911  0.85714  0.90232  1.0000
  C   C1846     1.0  0.75560  0.86023  0.90041  1.0000
  C   C1847     1.0  0.76641  0.85012  0.91154  1.0000
  H   H2207     1.0  0.74061  0.82218  0.93542  1.0000
  H   H2208     1.0  0.72094  0.84094  0.91648  1.0000
  H   H2209     1.0  0.76001  0.87054  0.89049  1.0000
  H   H2210     1.0  0.77912  0.85266  0.91007  1.0000
  H   H2211     1.0  0.82384  0.79751  0.87444  1.0000
  C   C1848     1.0  0.77132  0.80830  0.87764  1.0000
  H   H2212     1.0  0.76634  0.83301  0.78626  1.0000
  C   C1849     1.0  0.76947  0.79088  0.85852  1.0000
  H   H2213     1.0  0.81280  0.77942  0.93185  1.0000
  H   H2214     1.0  0.83188  0.79862  0.91257  1.0000
  H   H2215     1.0  0.74777  0.80174  0.87637  1.0000
  H   H2216     1.0  0.80602  0.90103  0.88312  1.0000
  C   C1850     1.0  0.78944  0.80662  0.87141  1.0000
  H   H2217     1.0  0.96281  0.78938  0.88564  1.0000
  C   C1851     1.0  0.78746  0.89543  0.91543  1.0000
  H   H2218     1.0  0.81066  0.79498  0.85255  1.0000
  H   H2219     1.0  0.79506  0.83872  0.85943  1.0000
  C   C1852     1.0  0.95884  0.77716  0.88827  1.0000
  H   H2220     1.0  0.72662  0.85753  0.85780  1.0000
  S   S505      1.0  0.79433  0.97054  0.86830  1.0000
  H   H2221     1.0  0.77944  0.89830  0.92800  1.0000
  H   H2222     1.0  0.96440  0.82961  0.81761  1.0000
  Fe  Fe250     1.0  0.76149  0.76215  0.80974  1.0000
  H   H2223     1.0  0.78653  0.88243  0.91437  1.0000
  H   H2224     1.0  0.73211  0.94173  0.88211  1.0000
  H   H2225     1.0  0.77910  0.93098  0.91201  1.0000
  H   H2226     1.0  0.96322  0.84264  0.79629  1.0000
  N   N123      1.0  0.78222  0.90900  0.90068  1.0000
  C   C1853     1.0  0.69578  0.85201  0.87847  1.0000
  C   C1854     1.0  0.70250  0.81514  0.85873  1.0000
  H   H2227     1.0  0.76196  0.93767  0.88399  1.0000
  H   H2228     1.0  0.72944  0.83948  0.87525  1.0000
  H   H2229     1.0  0.69573  0.86607  0.87452  1.0000
  C   C1855     1.0  0.70895  0.81436  0.88634  1.0000
  H   H2230     1.0  0.77178  0.95504  0.80264  1.0000
  H   H2231     1.0  0.78744  0.93463  0.88904  1.0000
  H   H2232     1.0  0.98427  0.79734  0.80692  1.0000
  C   C1856     1.0  0.70218  0.79758  0.86373  1.0000
  C   C1857     1.0  0.70832  0.79687  0.89132  1.0000
  C   C1858     1.0  0.78760  0.92485  0.90128  1.0000
  H   H2233     1.0  0.81336  0.78576  0.80324  1.0000
  C   C1859     1.0  0.85236  0.76134  0.89904  1.0000
  C   C1860     1.0  0.81526  0.77278  0.81062  1.0000
  S   S506      1.0  0.78732  0.77005  0.79981  1.0000
  H   H2234     1.0  0.71521  0.91913  0.89722  1.0000
  C   C1861     1.0  0.79490  0.98147  0.80962  1.0000
  C   C1862     1.0  0.81013  0.96881  0.81170  1.0000
  C   C1863     1.0  0.70573  0.82413  0.87000  1.0000
  C   C1864     1.0  0.80382  0.76218  0.81177  1.0000
  C   C1865     1.0  0.78266  0.95904  0.80470  1.0000
  C   C1866     1.0  0.75515  0.92761  0.89133  1.0000
  H   H2235     1.0  0.70446  0.77495  0.88392  1.0000
  H   H2236     1.0  0.96005  0.76083  0.83426  1.0000
  H   H2237     1.0  0.85112  0.78070  0.76274  1.0000
  C   C1867     1.0  0.73195  0.75689  0.91489  1.0000
  H   H2238     1.0  0.71213  0.82012  0.89537  1.0000
  H   H2239     1.0  0.69989  0.79098  0.85481  1.0000
  C   C1868     1.0  0.79338  0.83413  0.87372  1.0000
  C   C1869     1.0  0.81831  0.81151  0.87115  1.0000
  H   H2240     1.0  0.97602  0.85251  0.81423  1.0000
  N   N124      1.0  0.70677  0.84256  0.86490  1.0000
  H   H2241     1.0  0.77531  0.81053  0.78863  1.0000
  H   H2242     1.0  0.80115  0.79562  0.90109  1.0000
  C   C1870     1.0  0.78715  0.78907  0.85202  1.0000
  Fe  Fe251     1.0  0.78860  0.75984  0.94583  1.0000
  C   C1871     1.0  0.79691  0.80979  0.89726  1.0000
  N   N125      1.0  0.92059  0.75972  0.88543  1.0000
  H   H2243     1.0  0.76897  0.98468  0.80501  1.0000
  C   C1872     1.0  0.73608  0.90217  0.90833  1.0000
  C   C1873     1.0  0.91043  0.77660  0.87823  1.0000
  C   C1874     1.0  0.93730  0.76084  0.88857  1.0000
  H   H2244     1.0  0.90759  0.76036  0.91178  1.0000
  S   S507      1.0  0.76549  0.74916  0.96181  1.0000
  C   C1875     1.0  0.79470  0.75223  0.89720  1.0000
  C   C1876     1.0  0.99028  0.82314  0.77921  1.0000
  C   C1877     1.0  0.79780  0.94702  0.80662  1.0000
  H   H2245     1.0  0.90681  0.78566  0.88728  1.0000
  H   H2246     1.0  0.72876  0.89208  0.91442  1.0000
  C   C1878     1.0  0.96801  0.82956  0.80352  1.0000
  H   H2247     1.0  0.70030  0.82129  0.84589  1.0000
  H   H2248     1.0  0.98258  0.76242  0.89561  1.0000
  H   H2249     1.0  0.74996  0.75909  0.87175  1.0000
  C   C1879     1.0  0.96997  0.76200  0.89391  1.0000
  H   H2250     1.0  0.89807  0.77532  0.87577  1.0000
  C   C1880     1.0  0.94276  0.77669  0.88555  1.0000
  H   H2251     1.0  0.79873  0.93379  0.80585  1.0000
  H   H2252     1.0  0.89684  0.75196  0.90008  1.0000
  C   C1881     1.0  0.78117  0.97600  0.80619  1.0000
  H   H2253     1.0  0.70147  0.86538  0.84520  1.0000
  C   C1882     1.0  0.82755  0.75681  0.92220  1.0000
  N   N126      1.0  0.79945  0.81527  0.87818  1.0000
  H   H2254     1.0  0.79737  0.84605  0.76032  1.0000
  C   C1883     1.0  0.77771  0.82349  0.78132  1.0000
  H   H2255     1.0  0.79674  0.79808  0.76875  1.0000
  H   H2256     1.0  0.77771  0.82459  0.76744  1.0000
  C   C1884     1.0  0.74281  0.76138  0.89876  1.0000
  H   H2257     1.0  0.75859  0.88719  0.91676  1.0000
  H   H2258     1.0  0.82109  0.97156  0.81477  1.0000
  S   S508      1.0  0.72977  0.76645  0.93274  1.0000
  H   H2259     1.0  0.80115  0.92226  0.90299  1.0000
  H   H2260     1.0  0.98773  0.83628  0.77107  1.0000
  C   C1885     1.0  0.95409  0.77396  0.83548  1.0000
  C   C1886     1.0  0.74176  0.75550  0.88420  1.0000
  H   H2261     1.0  0.83813  0.77499  0.81763  1.0000
  H   H2262     1.0  0.97463  0.77750  0.84553  1.0000
  C   C1887     1.0  0.79540  0.84455  0.77460  1.0000
  H   H2263     1.0  0.68767  0.85032  0.84893  1.0000
  H   H2264     1.0  0.73371  0.83612  0.85362  1.0000
  H   H2265     1.0  0.91760  0.78270  0.86561  1.0000
  Fe  Fe252     1.0  0.86823  0.78579  0.85898  1.0000
  H   H2266     1.0  0.68222  0.85025  0.88128  1.0000
  C   C1888     1.0  0.82930  0.76669  0.81889  1.0000
  H   H2267     1.0  0.76208  0.84403  0.96459  1.0000
  N   N127      1.0  0.79408  0.82660  0.78354  1.0000
  C   C1889     1.0  0.80878  0.80056  0.76971  1.0000
  C   C1890     1.0  0.82365  0.78862  0.76465  1.0000
  C   C1891     1.0  0.83464  0.78516  0.91191  1.0000
  C   C1892     1.0  0.82389  0.77426  0.92288  1.0000
  H   H2268     1.0  0.71062  0.78970  0.90396  1.0000
  H   H2269     1.0  0.80620  0.84867  0.77733  1.0000
  H   H2270     1.0  0.82259  0.77767  0.76009  1.0000
  C   C1893     1.0  0.80961  0.81451  0.77669  1.0000
  H   H2271     1.0  0.78865  0.89106  0.88365  1.0000
  H   H2272     1.0  0.78194  0.83478  0.80764  1.0000
  C   C1894     1.0  0.76348  0.91221  0.90103  1.0000
  H   H2273     1.0  0.70046  0.84789  0.89081  1.0000
  H   H2274     1.0  0.70971  0.84614  0.83722  1.0000
  C   C1895     1.0  0.82625  0.81601  0.77765  1.0000
  C   C1896     1.0  0.72841  0.91739  0.89860  1.0000
  C   C1897     1.0  0.75335  0.89952  0.90955  1.0000
  C   C1898     1.0  0.79278  0.82501  0.80234  1.0000
  S   S509      1.0  0.86089  0.79288  0.88500  1.0000
  C   C1899     1.0  0.83971  0.79025  0.76622  1.0000
  H   H2275     1.0  0.80458  0.82702  0.80528  1.0000
  C   C1900     1.0  0.84100  0.80398  0.77262  1.0000
  H   H2276     1.0  0.82796  0.82621  0.78285  1.0000
  C   C1901     1.0  0.84861  0.77879  0.89971  1.0000
  C   C1902     1.0  0.73791  0.93011  0.89016  1.0000
  H   H2277     1.0  0.93506  0.78893  0.88073  1.0000
  H   H2278     1.0  0.85344  0.80513  0.77416  1.0000
  H   H2279     1.0  0.75892  0.98418  0.86307  1.0000
  S   S510      1.0  0.88305  0.76023  0.85347  1.0000
  C   C1903     1.0  0.70490  0.78852  0.88005  1.0000
  C   C1904     1.0  0.72051  0.74621  0.91639  1.0000
  H   H2280     1.0  0.79070  0.81200  0.80969  1.0000
  H   H2281     1.0  0.82309  0.94235  0.81203  1.0000
  H   H2282     1.0  0.96066  0.82067  0.80159  1.0000
  H   H2283     1.0  0.78501  0.81991  0.97037  1.0000
  H   H2284     1.0  0.98441  0.82081  0.92408  1.0000
  C   C1905     1.0  0.90978  0.75240  0.90190  1.0000
  C   C1906     1.0  0.94880  0.74566  0.89474  1.0000
  H   H2285     1.0  0.93241  0.75303  0.86061  1.0000
  H   H2286     1.0  0.86330  0.75632  0.88979  1.0000
  C   C1907     1.0  0.96493  0.74629  0.89722  1.0000
  H   H2287     1.0  0.98200  0.81543  0.77683  1.0000
  C   C1908     1.0  0.84209  0.75026  0.91060  1.0000
  H   H2288     1.0  0.78587  0.76175  0.88935  1.0000
  H   H2289     1.0  0.91161  0.74774  0.86958  1.0000
  Fe  Fe253     1.0  0.73438  0.75018  0.84054  1.0000
  N   N128      1.0  0.98693  0.82392  0.79779  1.0000
  H   H2290     1.0  0.69938  0.75051  0.74531  1.0000
  H   H2291     1.0  0.78716  0.74894  0.91058  1.0000
  H   H2292     1.0  0.80705  0.75220  0.86354  1.0000
  H   H2293     1.0  0.74385  0.84972  0.98099  1.0000
  Fe  Fe254     1.0  0.73175  0.74808  0.80409  1.0000
  C   C1909     1.0  0.83217  0.74980  0.82826  1.0000
  H   H2294     1.0  0.72939  0.75131  0.74513  1.0000
  C   C1910     1.0  0.73015  0.74481  0.88591  1.0000
  H   H2295     1.0  0.69014  0.74375  0.78846  1.0000
  Fe  Fe255     1.0  0.99170  0.80231  0.85551  1.0000
  Fe  Fe256     1.0  0.76237  0.76929  0.97744  1.0000
  H   H2296     1.0  0.99023  0.80647  0.82179  1.0000
  H   H2297     1.0  0.82445  0.74799  0.87445  1.0000
  H   H2298     1.0  0.98876  0.82541  0.95175  1.0000
  H   H2299     1.0  0.71188  0.74290  0.92867  1.0000
  H   H2300     1.0  0.91573  0.73904  0.90744  1.0000
  S   S511      1.0  0.81341  0.74344  0.93502  1.0000
  C   C1911     1.0  0.72687  0.74393  0.73704  1.0000
  H   H2301     1.0  0.75812  0.81322  0.97335  1.0000
  C   C1912     1.0  0.75801  0.84472  0.97858  1.0000
  C   C1913     1.0  0.99206  0.80632  0.80784  1.0000
  C   C1914     1.0  0.98968  0.84931  0.80901  1.0000
  C   C1915     1.0  0.70996  0.74347  0.73713  1.0000
  H   H2302     1.0  0.76423  0.85439  0.98074  1.0000
  C   C1916     1.0  0.80640  0.74538  0.82149  1.0000
  C   C1917     1.0  0.81413  0.74226  0.87274  1.0000
  S   S512      1.0  0.84977  0.74213  0.83876  1.0000
  C   C1918     1.0  0.82073  0.73912  0.82952  1.0000
  C   C1919     1.0  0.71986  0.73996  0.90216  1.0000
  C   C1920     1.0  0.78159  0.82134  0.98414  1.0000
  H   H2303     1.0  0.78931  0.83032  0.98511  1.0000
  H   H2304     1.0  0.62185  0.73750  0.65629  1.0000
