data_image0
_chemical_formula_structural       FeS2FeS2FeSFeS3FeSHNSCFeSFeSH2S2CH5CFeHC3HCHC3H4C6H4C3H2C6H5C3HCNH4CHC2HC2HNC9H16C4HC2HCHCH2CHCHCHCHSCH6C2H2C2SC2FeS2FeS2FeSFeS3FeSHCSHFeSFeSHCS2C4H4CH4C5H4C6H4C2H2C7H4NC5H10C2H4C3HSCHCHCHC3HCH4CH2SC2H2CHSH2C4H3C2H4CNH2C4H2C2H3CNC2NHCH2FeCH4CH2C3H3CH2SHNH3CH2FeHC2HS2FeHFeSH3SHC7H6SH2C2FeSFeS3CSH2CNH2SHCHC6H5NHC5HNCHC2HCHCHNH3C3FeHSHCH2C3HC2HCHCH2NC9H14C2H2CHC3SCH2C2HCH3CFeH2CHCHC2HCS2FeSFeSH2CSH2C6H5CSHCHCFeSFeS3H2CH2FeHNH4C6H4C3NHCHFeH2NC3HC2HC2H3C3H2CHCHCH2CSHCH4CHC2HCH3C3H3C2HC2H3SH3CH2S2FeSFeSHS2CFeSFeS2FeS2FeSFeS3C3H2C6H6C4H4SC6H4CH3CH3FeHNC9H11CH2CH9C5HC3H2NSCSH3CH5FeHCHC2H2CNHCHCH4C2NCH3C2SH3C2FeS2FeSFeSHSCFe2SFeS2FeS2FeSFeS3C2H2C7H4CHCHC3H3C7H6NC6H2SHSH4CH5C2HNCH4SH3C3NCHC2HC2H3CH3C5H3C2H6CHC2NCHC2HCHCFeNCH4SH5CHCHCHC2H2CHC2HFeS2FeS2FeSFeS3HCHSC2FeSFeSH2S2CH2C5H2C2H2C6H4C6H3CHC2H2CH4CSHCHCHC2H4CSH3CNC2H8CH2C2H2CHC2HC2NHCHFeCNH2CHCH2CSHCH6C2NHCHCHCH2FeCH2C2HCHC2H7FeS2FeS2FeSFeS3H5CFeSFeSH2S2H2CHCH2C2HSH3C6H4C7H2CHC3H5SH2C2HCH2C2HCH3SC2HCFeH2C2HCNC11H5CHCFeH3CHC2N2H3C2SC2HCFeH6CH2CH3C4NCSCFeSCSCH2SHC7H8CFe2H5C2S2HFeSHSC7H3C2H2SH4C3H2C2HC2SHCHCH2CHCH2C2HCS2HC3HCH3CH2NH2CHC2HCNC2H3C2H2FeH2C3H2C2HNH4SFeCH2NH3CH3SCHCH3CSHCS2FeSFeSC2FeSCHC6H4CHC3HCHC2SHCFeSCFe2SHSC7H3CH2C3H5CH4CNHCHCH5SH2CH2CSH3FeH2CHCH2CSH3CNHSC4H2CH4SH3FeSFeS3CSCH2SFeS2FeS2FeSFeS3H2Fe2HC7H3CH4CSH2CHC2H5C7H6CH2CH2FeC2HC2HC6H2CH6NHCH2CHCH3CHNCH2CHCHCNH3SH2C3HCH2NH3CH3C2HC3HC2SHCHC4H3C2FeSFeS3C2H2CHFeS2FeS2FeSFeS3H5C7H3CSCH3CH2CHC4H4C6H5C3H2CFe2C2HCSHCH5NC6H2CH2CH3CH5CH3CH2C2NH2C4H3C2SCHSHC3H3CHCH3SNHCH4CNCH2NHCHFeCHSH2C
_chemical_formula_sum              "Fe96 S192 H864 N48 C720"
_cell_length_a       39.3601
_cell_length_b       52.0724
_cell_length_c       45.4783
_cell_angle_alpha    89.9694
_cell_angle_beta     90.0797
_cell_angle_gamma    89.9871

_space_group_name_H-M_alt    "P 1"
_space_group_IT_number       1

loop_
  _space_group_symop_operation_xyz
  'x, y, z'

loop_
  _atom_site_type_symbol
  _atom_site_label
  _atom_site_symmetry_multiplicity
  _atom_site_fract_x
  _atom_site_fract_y
  _atom_site_fract_z
  _atom_site_occupancy
  Fe  Fe1       1.0  0.20984  0.12651  0.11009  1.0000
  S   S1        1.0  0.23325  0.16282  0.09188  1.0000
  S   S2        1.0  0.24495  0.09099  0.11735  1.0000
  Fe  Fe2       1.0  0.13761  0.15146  0.10950  1.0000
  S   S3        1.0  0.15733  0.18902  0.09209  1.0000
  S   S4        1.0  0.08260  0.15359  0.12555  1.0000
  Fe  Fe3       1.0  0.18857  0.16557  0.06072  1.0000
  S   S5        1.0  0.19258  0.17245  0.01062  1.0000
  Fe  Fe4       1.0  0.19975  0.18326  0.12448  1.0000
  S   S6        1.0  0.21888  0.21699  0.15137  1.0000
  S   S7        1.0  0.16678  0.12765  0.07659  1.0000
  S   S8        1.0  0.17845  0.14720  0.14417  1.0000
  Fe  Fe5       1.0  0.38036  0.00065  0.21509  1.0000
  S   S9        1.0  0.34552  0.03647  0.21108  1.0000
  H   H1        1.0  0.05478  0.26628  0.26377  1.0000
  N   N1        1.0  0.09674  0.24000  0.25812  1.0000
  S   S10       1.0  0.43772  0.00006  0.22169  1.0000
  C   C1        1.0  0.19146  0.19606  0.45449  1.0000
  Fe  Fe6       1.0  0.19763  0.25818  0.31517  1.0000
  S   S11       1.0  0.20426  0.22091  0.29026  1.0000
  Fe  Fe7       1.0  0.18512  0.27769  0.37720  1.0000
  S   S12       1.0  0.17932  0.27065  0.42697  1.0000
  H   H2        1.0  0.18484  0.26531  0.98596  1.0000
  H   H3        1.0  0.19968  0.17799  0.44515  1.0000
  S   S13       1.0  0.15069  0.25979  0.34334  1.0000
  S   S14       1.0  0.23291  0.27371  0.35014  1.0000
  C   C2        1.0  0.01743  0.16211  0.10617  1.0000
  H   H4        1.0  0.12501  0.20490  0.16678  1.0000
  H   H5        1.0  0.05865  0.15848  0.24415  1.0000
  H   H6        1.0  0.25601  0.27239  0.46119  1.0000
  H   H7        1.0  0.11152  0.17659  0.45624  1.0000
  H   H8        1.0  0.12054  0.22575  0.29774  1.0000
  C   C3        1.0  0.12145  0.26134  0.25507  1.0000
  Fe  Fe8       1.0  0.14439  0.29933  0.32471  1.0000
  H   H9        1.0  0.13951  0.22174  0.21520  1.0000
  C   C4        1.0  0.11297  0.22121  0.20916  1.0000
  C   C5        1.0  0.10495  0.21150  0.18136  1.0000
  C   C6        1.0  0.11267  0.21909  0.27549  1.0000
  H   H10       1.0  0.03707  0.16560  0.46212  1.0000
  C   C7        1.0  0.06749  0.25001  0.27532  1.0000
  H   H11       1.0  0.09503  0.20261  0.27829  1.0000
  C   C8        1.0  0.17972  0.24175  0.44814  1.0000
  C   C9        1.0  0.18932  0.21802  0.43628  1.0000
  C   C10       1.0  0.18771  0.22503  0.99725  1.0000
  H   H12       1.0  0.11123  0.27689  0.24076  1.0000
  H   H13       1.0  0.01924  0.21741  0.18350  1.0000
  H   H14       1.0  0.19588  0.21673  0.41324  1.0000
  H   H15       1.0  0.18588  0.22834  0.02068  1.0000
  C   C11       1.0  0.21259  0.21815  0.18979  1.0000
  C   C12       1.0  0.21800  0.24138  0.20475  1.0000
  C   C13       1.0  0.21493  0.24265  0.23554  1.0000
  C   C14       1.0  0.20696  0.22055  0.25157  1.0000
  C   C15       1.0  0.20129  0.19739  0.23662  1.0000
  C   C16       1.0  0.20365  0.19624  0.20583  1.0000
  H   H16       1.0  0.22500  0.25838  0.19249  1.0000
  H   H17       1.0  0.21969  0.26054  0.24687  1.0000
  H   H18       1.0  0.19516  0.18021  0.24891  1.0000
  H   H19       1.0  0.19909  0.17830  0.19468  1.0000
  C   C17       1.0  0.04559  0.14546  0.10532  1.0000
  C   C18       1.0  0.04148  0.12095  0.09327  1.0000
  C   C19       1.0  0.04542  0.21857  0.19082  1.0000
  H   H20       1.0  0.06274  0.10777  0.09297  1.0000
  H   H21       1.0  0.12751  0.27010  0.27673  1.0000
  C   C20       1.0  0.27290  0.07630  0.14388  1.0000
  C   C21       1.0  0.29611  0.05733  0.13448  1.0000
  C   C22       1.0  0.31807  0.04468  0.15456  1.0000
  C   C23       1.0  0.31746  0.05092  0.18453  1.0000
  C   C24       1.0  0.29413  0.06976  0.19395  1.0000
  C   C25       1.0  0.27183  0.08211  0.17394  1.0000
  H   H22       1.0  0.29710  0.05235  0.11140  1.0000
  H   H23       1.0  0.33579  0.03036  0.14674  1.0000
  H   H24       1.0  0.29296  0.07459  0.21706  1.0000
  H   H25       1.0  0.25325  0.09563  0.18194  1.0000
  H   H26       1.0  0.30682  0.99039  0.18839  1.0000
  C   C26       1.0  0.19106  0.19986  0.98676  1.0000
  C   C27       1.0  0.26428  0.23294  0.47271  1.0000
  C   C28       1.0  0.24482  0.00368  0.16432  1.0000
  H   H27       1.0  0.04851  0.23477  0.28012  1.0000
  C   C29       1.0  0.03612  0.30060  0.32824  1.0000
  N   N2        1.0  0.49121  0.98951  0.45726  1.0000
  H   H28       1.0  0.09371  0.14467  0.45442  1.0000
  H   H29       1.0  0.17755  0.04457  0.16180  1.0000
  H   H30       1.0  0.48197  0.97788  0.05613  1.0000
  H   H31       1.0  0.03197  0.23452  0.23199  1.0000
  C   C30       1.0  0.19398  0.02934  0.16975  1.0000
  H   H32       1.0  0.13612  0.21159  0.26495  1.0000
  C   C31       1.0  0.47138  0.99198  0.42968  1.0000
  C   C32       1.0  0.08739  0.23007  0.22868  1.0000
  H   H33       1.0  0.05071  0.28907  0.34350  1.0000
  C   C33       1.0  0.47780  0.01143  0.40842  1.0000
  C   C34       1.0  0.20780  0.99691  0.20612  1.0000
  H   H34       1.0  0.14615  0.25500  0.24581  1.0000
  N   N3        1.0  0.29715  0.16173  0.17244  1.0000
  C   C35       1.0  0.32143  0.14023  0.17692  1.0000
  C   C36       1.0  0.26289  0.15094  0.16741  1.0000
  C   C37       1.0  0.30730  0.17538  0.14511  1.0000
  C   C38       1.0  0.29618  0.17847  0.19878  1.0000
  C   C39       1.0  0.29994  0.20561  0.19723  1.0000
  C   C40       1.0  0.28949  0.16782  0.22696  1.0000
  C   C41       1.0  0.29766  0.22089  0.22246  1.0000
  C   C42       1.0  0.28701  0.18332  0.25198  1.0000
  C   C43       1.0  0.29114  0.20978  0.24973  1.0000
  H   H35       1.0  0.31341  0.12693  0.19470  1.0000
  H   H36       1.0  0.32363  0.12796  0.15689  1.0000
  H   H37       1.0  0.34721  0.14753  0.18250  1.0000
  H   H38       1.0  0.26256  0.13744  0.14842  1.0000
  H   H39       1.0  0.24445  0.16650  0.16259  1.0000
  H   H40       1.0  0.25309  0.14035  0.18679  1.0000
  H   H41       1.0  0.33274  0.18444  0.14745  1.0000
  H   H42       1.0  0.30846  0.16209  0.12591  1.0000
  H   H43       1.0  0.28841  0.19044  0.13888  1.0000
  H   H44       1.0  0.30353  0.21564  0.17670  1.0000
  H   H45       1.0  0.28510  0.14749  0.22977  1.0000
  H   H46       1.0  0.29964  0.24159  0.22069  1.0000
  H   H47       1.0  0.28088  0.17490  0.27314  1.0000
  H   H48       1.0  0.28807  0.22180  0.26904  1.0000
  H   H49       1.0  0.42031  0.99527  0.35556  1.0000
  H   H50       1.0  0.05750  0.19614  0.46538  1.0000
  C   C44       1.0  0.22301  0.02288  0.15400  1.0000
  C   C45       1.0  0.10407  0.15952  0.46956  1.0000
  C   C46       1.0  0.43385  0.99472  0.37636  1.0000
  C   C47       1.0  0.05317  0.22835  0.21873  1.0000
  H   H51       1.0  0.06172  0.15323  0.19010  1.0000
  C   C48       1.0  0.17126  0.24291  0.47822  1.0000
  C   C49       1.0  0.23777  0.98992  0.19059  1.0000
  H   H52       1.0  0.00618  0.09349  0.07510  1.0000
  C   C50       1.0  0.03597  0.15350  0.23186  1.0000
  H   H53       1.0  0.26910  0.22709  0.45022  1.0000
  C   C51       1.0  0.00866  0.14401  0.18549  1.0000
  H   H54       1.0  0.49481  0.04894  0.12834  1.0000
  H   H55       1.0  0.46496  0.02728  0.36601  1.0000
  C   C52       1.0  0.18636  0.01638  0.19573  1.0000
  H   H56       1.0  0.06525  0.20281  0.15052  1.0000
  C   C53       1.0  0.00928  0.11284  0.08334  1.0000
  H   H57       1.0  0.07574  0.25775  0.29707  1.0000
  C   C54       1.0  0.07125  0.21028  0.17217  1.0000
  H   H58       1.0  0.02024  0.18104  0.11565  1.0000
  C   C55       1.0  0.45906  0.01274  0.38230  1.0000
  H   H59       1.0  0.49782  0.02543  0.41096  1.0000
  S   S15       1.0  0.18906  0.29640  0.29384  1.0000
  C   C56       1.0  0.03772  0.15051  0.20150  1.0000
  H   H60       1.0  0.22892  0.03317  0.13387  1.0000
  H   H61       1.0  0.00379  0.15243  0.26997  1.0000
  H   H62       1.0  0.45685  0.97492  0.10619  1.0000
  H   H63       1.0  0.16377  0.02158  0.20797  1.0000
  H   H64       1.0  0.29220  0.99682  0.22484  1.0000
  H   H65       1.0  0.26756  0.99997  0.15171  1.0000
  C   C57       1.0  0.00508  0.15005  0.24631  1.0000
  C   C58       1.0  0.04963  0.17880  0.47802  1.0000
  H   H66       1.0  0.01148  0.14231  0.16197  1.0000
  H   H67       1.0  0.20045  0.98777  0.22644  1.0000
  C   C59       1.0  0.42704  0.97536  0.39662  1.0000
  C   C60       1.0  0.44542  0.97395  0.42292  1.0000
  S   S16       1.0  0.37199  0.97582  0.25544  1.0000
  C   C61       1.0  0.29471  0.98145  0.20794  1.0000
  C   C62       1.0  0.49168  0.97294  0.32734  1.0000
  Fe  Fe9       1.0  0.21935  0.12815  0.60608  1.0000
  S   S17       1.0  0.23258  0.16687  0.58679  1.0000
  S   S18       1.0  0.26396  0.09968  0.61178  1.0000
  Fe  Fe10      1.0  0.14306  0.14238  0.60685  1.0000
  S   S19       1.0  0.15118  0.18189  0.58825  1.0000
  S   S20       1.0  0.09158  0.12698  0.62110  1.0000
  Fe  Fe11      1.0  0.18729  0.16278  0.55689  1.0000
  S   S21       1.0  0.18912  0.16947  0.50700  1.0000
  Fe  Fe12      1.0  0.19559  0.18303  0.61949  1.0000
  S   S22       1.0  0.20995  0.21993  0.64273  1.0000
  S   S23       1.0  0.17643  0.12271  0.57354  1.0000
  S   S24       1.0  0.18507  0.14491  0.64072  1.0000
  Fe  Fe13      1.0  0.37888  0.99630  0.71222  1.0000
  S   S25       1.0  0.33688  0.02725  0.70785  1.0000
  H   H68       1.0  0.10266  0.23835  0.78427  1.0000
  C   C63       1.0  0.09513  0.12888  0.52495  1.0000
  S   S26       1.0  0.43577  0.00107  0.71769  1.0000
  H   H69       1.0  0.04667  0.08397  0.55939  1.0000
  Fe  Fe14      1.0  0.19450  0.25828  0.80887  1.0000
  S   S27       1.0  0.20409  0.22245  0.78190  1.0000
  Fe  Fe15      1.0  0.18592  0.27618  0.87272  1.0000
  S   S28       1.0  0.18816  0.26968  0.92290  1.0000
  H   H70       1.0  0.31937  0.12897  0.65894  1.0000
  C   C64       1.0  0.24263  0.99736  0.68932  1.0000
  S   S29       1.0  0.15304  0.25319  0.84225  1.0000
  S   S30       1.0  0.22969  0.27856  0.84061  1.0000
  C   C65       1.0  0.26373  0.24364  0.58311  1.0000
  C   C66       1.0  0.07580  0.20027  0.70979  1.0000
  C   C67       1.0  0.35685  0.09711  0.71475  1.0000
  C   C68       1.0  0.04886  0.24193  0.92474  1.0000
  H   H71       1.0  0.05858  0.21325  0.95877  1.0000
  H   H72       1.0  0.18585  0.25339  0.55274  1.0000
  H   H73       1.0  0.20372  0.22380  0.56592  1.0000
  H   H74       1.0  0.13369  0.21765  0.64391  1.0000
  C   C69       1.0  0.32413  0.12390  0.68161  1.0000
  H   H75       1.0  0.10140  0.20345  0.50091  1.0000
  H   H76       1.0  0.26764  0.19459  0.48988  1.0000
  H   H77       1.0  0.22150  0.02519  0.65937  1.0000
  H   H78       1.0  0.09551  0.22051  0.89040  1.0000
  C   C70       1.0  0.17319  0.22091  0.49634  1.0000
  C   C71       1.0  0.19280  0.21710  0.93628  1.0000
  C   C72       1.0  0.18976  0.24227  0.94680  1.0000
  C   C73       1.0  0.09746  0.19086  0.66121  1.0000
  C   C74       1.0  0.07685  0.18445  0.68494  1.0000
  H   H79       1.0  0.16646  0.22206  0.51927  1.0000
  H   H80       1.0  0.19501  0.21375  0.91289  1.0000
  H   H81       1.0  0.05431  0.26254  0.75957  1.0000
  H   H82       1.0  0.10038  0.24240  0.96700  1.0000
  C   C75       1.0  0.20535  0.22150  0.68129  1.0000
  C   C76       1.0  0.21550  0.24370  0.69644  1.0000
  C   C77       1.0  0.21386  0.24473  0.72735  1.0000
  C   C78       1.0  0.20256  0.22336  0.74321  1.0000
  C   C79       1.0  0.19158  0.20147  0.72799  1.0000
  C   C80       1.0  0.19250  0.20069  0.69714  1.0000
  H   H83       1.0  0.22526  0.26000  0.68433  1.0000
  H   H84       1.0  0.22249  0.26167  0.73895  1.0000
  H   H85       1.0  0.18238  0.18502  0.74015  1.0000
  H   H86       1.0  0.18339  0.18392  0.68567  1.0000
  C   C81       1.0  0.05219  0.13799  0.60671  1.0000
  C   C82       1.0  0.05060  0.15742  0.58553  1.0000
  H   H87       1.0  0.01441  0.14363  0.50200  1.0000
  H   H88       1.0  0.07371  0.16660  0.57829  1.0000
  C   C83       1.0  0.48753  0.97679  0.60475  1.0000
  C   C84       1.0  0.28252  0.07842  0.63837  1.0000
  C   C85       1.0  0.31188  0.06439  0.63077  1.0000
  C   C86       1.0  0.32840  0.04820  0.65134  1.0000
  C   C87       1.0  0.31613  0.04611  0.68012  1.0000
  C   C88       1.0  0.28652  0.05992  0.68763  1.0000
  C   C89       1.0  0.26959  0.07563  0.66685  1.0000
  H   H89       1.0  0.32210  0.06618  0.60879  1.0000
  H   H90       1.0  0.35101  0.03776  0.64504  1.0000
  H   H91       1.0  0.27664  0.05850  0.70974  1.0000
  H   H92       1.0  0.24669  0.08571  0.67290  1.0000
  N   N4        1.0  0.27615  0.15212  0.70107  1.0000
  C   C90       1.0  0.27013  0.15897  0.66975  1.0000
  C   C91       1.0  0.24430  0.14071  0.71263  1.0000
  C   C92       1.0  0.28330  0.17626  0.71728  1.0000
  C   C93       1.0  0.30454  0.13380  0.70532  1.0000
  C   C94       1.0  0.31289  0.12490  0.73397  1.0000
  H   H93       1.0  0.26344  0.14171  0.65643  1.0000
  H   H94       1.0  0.24873  0.17279  0.66723  1.0000
  H   H95       1.0  0.29276  0.16835  0.65979  1.0000
  H   H96       1.0  0.23916  0.12177  0.70227  1.0000
  H   H97       1.0  0.22192  0.15310  0.70819  1.0000
  H   H98       1.0  0.24501  0.13781  0.73683  1.0000
  H   H99       1.0  0.28441  0.17333  0.74148  1.0000
  H   H100      1.0  0.30797  0.18474  0.71029  1.0000
  H   H101      1.0  0.26322  0.19099  0.71348  1.0000
  H   H102      1.0  0.29922  0.13162  0.75307  1.0000
  C   C95       1.0  0.18715  0.24600  0.97743  1.0000
  C   C96       1.0  0.06976  0.14296  0.50960  1.0000
  H   H103      1.0  0.02679  0.26687  0.89074  1.0000
  H   H104      1.0  0.11693  0.27791  0.90023  1.0000
  H   H105      1.0  0.10648  0.21219  0.92765  1.0000
  H   H106      1.0  0.13238  0.23406  0.90760  1.0000
  C   C97       1.0  0.08981  0.27178  0.90115  1.0000
  C   C98       1.0  0.49092  0.98024  0.82611  1.0000
  C   C99       1.0  0.26359  0.21470  0.49509  1.0000
  H   H107      1.0  0.19679  0.24980  0.59090  1.0000
  S   S31       1.0  0.17302  0.29439  0.78954  1.0000
  C   C100      1.0  0.23789  0.97429  0.70544  1.0000
  H   H108      1.0  0.04746  0.25809  0.72090  1.0000
  C   C101      1.0  0.21700  0.00755  0.67152  1.0000
  H   H109      1.0  0.34383  0.09959  0.76044  1.0000
  C   C102      1.0  0.24934  0.26605  0.50777  1.0000
  H   H110      1.0  0.37591  0.08235  0.71816  1.0000
  C   C103      1.0  0.33851  0.10670  0.73849  1.0000
  C   C104      1.0  0.46811  0.98916  0.48306  1.0000
  C   C105      1.0  0.24876  0.24794  0.53123  1.0000
  H   H111      1.0  0.08271  0.26639  0.87823  1.0000
  C   C106      1.0  0.20496  0.24507  0.56809  1.0000
  H   H112      1.0  0.03038  0.18536  0.49435  1.0000
  H   H113      1.0  0.16598  0.00305  0.65542  1.0000
  H   H114      1.0  0.12347  0.26722  0.94953  1.0000
  H   H115      1.0  0.07681  0.19055  0.53087  1.0000
  C   C107      1.0  0.11654  0.22889  0.68701  1.0000
  H   H116      1.0  0.23387  0.28794  0.59035  1.0000
  H   H117      1.0  0.26396  0.29202  0.56107  1.0000
  S   S32       1.0  0.45737  0.98963  0.80159  1.0000
  C   C108      1.0  0.18407  0.19746  0.48474  1.0000
  C   C109      1.0  0.34994  0.10592  0.68646  1.0000
  H   H118      1.0  0.19617  0.17683  0.94765  1.0000
  H   H119      1.0  0.03960  0.23242  0.74641  1.0000
  C   C110      1.0  0.02774  0.11273  0.52963  1.0000
  H   H120      1.0  0.36376  0.09793  0.66798  1.0000
  S   S33       1.0  0.07806  0.28894  0.80959  1.0000
  H   H121      1.0  0.16354  0.26108  0.48760  1.0000
  H   H122      1.0  0.21860  0.29291  0.55406  1.0000
  C   C111      1.0  0.10555  0.22823  0.91151  1.0000
  C   C112      1.0  0.05317  0.09973  0.54487  1.0000
  C   C113      1.0  0.09454  0.18545  0.51273  1.0000
  C   C114      1.0  0.11731  0.21295  0.66228  1.0000
  H   H123      1.0  0.07490  0.28897  0.90782  1.0000
  H   H124      1.0  0.02279  0.11135  0.63256  1.0000
  H   H125      1.0  0.08692  0.20911  0.76905  1.0000
  C   C115      1.0  0.10347  0.22587  0.76435  1.0000
  C   C116      1.0  0.11424  0.26349  0.73558  1.0000
  H   H126      1.0  0.12154  0.13458  0.52421  1.0000
  H   H127      1.0  0.10710  0.27555  0.71636  1.0000
  H   H128      1.0  0.26165  0.22240  0.58445  1.0000
  H   H129      1.0  0.13001  0.21866  0.76221  1.0000
  C   C117      1.0  0.27419  0.98317  0.74727  1.0000
  N   N5        1.0  0.09281  0.24006  0.73758  1.0000
  H   H130      1.0  0.11838  0.17832  0.52299  1.0000
  H   H131      1.0  0.06152  0.16713  0.68386  1.0000
  C   C118      1.0  0.00918  0.28458  0.81761  1.0000
  C   C119      1.0  0.01915  0.16417  0.57280  1.0000
  C   C120      1.0  0.05704  0.24856  0.74121  1.0000
  C   C121      1.0  0.09542  0.22313  0.71151  1.0000
  H   H132      1.0  0.05927  0.19455  0.72757  1.0000
  H   H133      1.0  0.25357  0.20677  0.53993  1.0000
  C   C122      1.0  0.23906  0.28323  0.56687  1.0000
  C   C123      1.0  0.18581  0.99509  0.66926  1.0000
  H   H134      1.0  0.01826  0.17852  0.55564  1.0000
  H   H135      1.0  0.26639  0.00769  0.69033  1.0000
  H   H136      1.0  0.14174  0.25856  0.73433  1.0000
  C   C124      1.0  0.19347  0.19614  0.95611  1.0000
  N   N6        1.0  0.23940  0.25504  0.56172  1.0000
  C   C125      1.0  0.03571  0.13400  0.51215  1.0000
  C   C126      1.0  0.25559  0.22195  0.52385  1.0000
  N   N7        1.0  0.08476  0.25012  0.92201  1.0000
  H   H137      1.0  0.11127  0.27592  0.75534  1.0000
  C   C127      1.0  0.03960  0.22264  0.94530  1.0000
  H   H138      1.0  0.25890  0.25039  0.60598  1.0000
  H   H139      1.0  0.10638  0.09787  0.55491  1.0000
  Fe  Fe16      1.0  0.13319  0.29060  0.82498  1.0000
  C   C128      1.0  0.03964  0.29476  0.82888  1.0000
  H   H140      1.0  0.13301  0.24545  0.68644  1.0000
  H   H141      1.0  0.29042  0.24855  0.57731  1.0000
  H   H142      1.0  0.28368  0.00153  0.73792  1.0000
  H   H143      1.0  0.08073  0.27325  0.96108  1.0000
  C   C129      1.0  0.02186  0.12630  0.61606  1.0000
  H   H144      1.0  0.30622  0.97724  0.69561  1.0000
  H   H145      1.0  0.09802  0.17861  0.64197  1.0000
  C   C130      1.0  0.25700  0.25851  0.47900  1.0000
  C   C131      1.0  0.08681  0.10768  0.54238  1.0000
  C   C132      1.0  0.09772  0.25854  0.95115  1.0000
  H   H146      1.0  0.46278  0.98471  0.60969  1.0000
  H   H147      1.0  0.24312  0.28604  0.51077  1.0000
  H   H148      1.0  0.48875  0.99218  0.56061  1.0000
  C   C133      1.0  0.02225  0.25263  0.90745  1.0000
  H   H149      1.0  0.48310  0.01288  0.85444  1.0000
  H   H150      1.0  0.29469  0.97602  0.76209  1.0000
  S   S34       1.0  0.37449  0.97449  0.75511  1.0000
  H   H151      1.0  0.25163  0.98774  0.76103  1.0000
  N   N8        1.0  0.07904  0.16626  0.49269  1.0000
  H   H152      1.0  0.49379  0.99495  0.95106  1.0000
  H   H153      1.0  0.48262  0.98854  0.50416  1.0000
  H   H154      1.0  0.45170  0.00656  0.48345  1.0000
  C   C134      1.0  0.49810  0.99578  0.85074  1.0000
  H   H155      1.0  0.40791  0.98559  0.88699  1.0000
  H   H156      1.0  0.43932  0.98608  0.93335  1.0000
  Fe  Fe17      1.0  0.43175  0.97627  0.75837  1.0000
  H   H157      1.0  0.00961  0.27333  0.79765  1.0000
  C   C135      1.0  0.00570  0.21519  0.94899  1.0000
  C   C136      1.0  0.18021  0.97238  0.68477  1.0000
  H   H158      1.0  0.12813  0.15181  0.47887  1.0000
  S   S35       1.0  0.37801  0.46902  0.18545  1.0000
  S   S36       1.0  0.42859  0.44632  0.23739  1.0000
  Fe  Fe18      1.0  0.43385  0.47132  0.19669  1.0000
  H   H159      1.0  0.44424  0.39340  0.18074  1.0000
  Fe  Fe19      1.0  0.37218  0.44637  0.22797  1.0000
  S   S37       1.0  0.34031  0.40909  0.22692  1.0000
  H   H160      1.0  0.38108  0.43105  0.13645  1.0000
  H   H161      1.0  0.29199  0.61331  0.24884  1.0000
  H   H162      1.0  0.04637  0.34212  0.27123  1.0000
  S   S38       1.0  0.25642  0.34785  0.32648  1.0000
  H   H163      1.0  0.37686  0.36801  0.17594  1.0000
  C   C137      1.0  0.42615  0.44652  0.43075  1.0000
  C   C138      1.0  0.31756  0.39218  0.25512  1.0000
  C   C139      1.0  0.30034  0.36925  0.24792  1.0000
  C   C140      1.0  0.28165  0.35539  0.26928  1.0000
  C   C141      1.0  0.27976  0.36429  0.29831  1.0000
  C   C142      1.0  0.29683  0.38727  0.30544  1.0000
  C   C143      1.0  0.31555  0.40111  0.28410  1.0000
  H   H164      1.0  0.30153  0.36209  0.22563  1.0000
  H   H165      1.0  0.26887  0.33776  0.26331  1.0000
  H   H166      1.0  0.29562  0.39445  0.32773  1.0000
  H   H167      1.0  0.32839  0.41870  0.29013  1.0000
  H   H168      1.0  0.42950  0.42536  0.17194  1.0000
  H   H169      1.0  0.47190  0.41142  0.14116  1.0000
  S   S39       1.0  0.22165  0.58893  0.12478  1.0000
  H   H170      1.0  0.34373  0.54102  0.30842  1.0000
  H   H171      1.0  0.37628  0.36027  0.13775  1.0000
  C   C144      1.0  0.39241  0.36855  0.15541  1.0000
  C   C145      1.0  0.42146  0.40506  0.17506  1.0000
  Fe  Fe20      1.0  0.37140  0.50439  0.21353  1.0000
  S   S40       1.0  0.34339  0.54263  0.20408  1.0000
  Fe  Fe21      1.0  0.41943  0.48290  0.26257  1.0000
  S   S41       1.0  0.43823  0.49454  0.30902  1.0000
  S   S42       1.0  0.42777  0.50793  0.22274  1.0000
  S   S43       1.0  0.36239  0.48164  0.25521  1.0000
  C   C146      1.0  0.35481  0.60722  0.31435  1.0000
  S   S44       1.0  0.09796  0.31709  0.30281  1.0000
  H   H172      1.0  0.27475  0.53417  0.98144  1.0000
  H   H173      1.0  0.42043  0.38057  0.04816  1.0000
  C   C147      1.0  0.40361  0.56898  0.26527  1.0000
  N   N9        1.0  0.38121  0.56719  0.29140  1.0000
  H   H174      1.0  0.23028  0.58146  0.05827  1.0000
  H   H175      1.0  0.33852  0.60560  0.02768  1.0000
  S   S45       1.0  0.15787  0.63275  0.08099  1.0000
  H   H176      1.0  0.42143  0.54986  0.31712  1.0000
  C   C148      1.0  0.40343  0.56644  0.31785  1.0000
  H   H177      1.0  0.22294  0.61467  0.06349  1.0000
  C   C149      1.0  0.25569  0.57660  0.14707  1.0000
  C   C150      1.0  0.26349  0.55017  0.14580  1.0000
  C   C151      1.0  0.29013  0.53944  0.16282  1.0000
  C   C152      1.0  0.30961  0.55500  0.18147  1.0000
  C   C153      1.0  0.30201  0.58148  0.18254  1.0000
  C   C154      1.0  0.27534  0.59221  0.16554  1.0000
  H   H178      1.0  0.24861  0.53782  0.13166  1.0000
  H   H179      1.0  0.29544  0.51909  0.16161  1.0000
  H   H180      1.0  0.31689  0.59387  0.19661  1.0000
  H   H181      1.0  0.26991  0.61254  0.16683  1.0000
  H   H182      1.0  0.42303  0.55339  0.26510  1.0000
  N   N10       1.0  0.40382  0.39504  0.14856  1.0000
  H   H183      1.0  0.28641  0.58518  0.08301  1.0000
  C   C155      1.0  0.37347  0.41137  0.14343  1.0000
  C   C156      1.0  0.42536  0.39499  0.12185  1.0000
  C   C157      1.0  0.41199  0.38623  0.09461  1.0000
  C   C158      1.0  0.33089  0.62714  0.31360  1.0000
  C   C159      1.0  0.27130  0.56683  0.01043  1.0000
  H   H184      1.0  0.47415  0.43098  0.35850  1.0000
  N   N11       1.0  0.48159  0.44445  0.45982  1.0000
  C   C160      1.0  0.40863  0.44520  0.40397  1.0000
  H   H185      1.0  0.48306  0.40351  0.46630  1.0000
  C   C161      1.0  0.33339  0.59173  0.26768  1.0000
  C   C162      1.0  0.47542  0.48749  0.33053  1.0000
  H   H186      1.0  0.40468  0.40477  0.19478  1.0000
  C   C163      1.0  0.28857  0.58763  0.02418  1.0000
  H   H187      1.0  0.41937  0.58402  0.31958  1.0000
  C   C164      1.0  0.47822  0.49768  0.35919  1.0000
  H   H188      1.0  0.35645  0.40350  0.12616  1.0000
  N   N12       1.0  0.27147  0.60598  0.04414  1.0000
  H   H189      1.0  0.41455  0.35552  0.15864  1.0000
  H   H190      1.0  0.36747  0.57567  0.99484  1.0000
  H   H191      1.0  0.41243  0.43911  0.35721  1.0000
  C   C165      1.0  0.46070  0.43494  0.37880  1.0000
  C   C166      1.0  0.42590  0.43958  0.37804  1.0000
  C   C167      1.0  0.49375  0.46638  0.12940  1.0000
  Fe  Fe22      1.0  0.22076  0.31271  0.33042  1.0000
  H   H192      1.0  0.35767  0.41326  0.16366  1.0000
  S   S46       1.0  0.48097  0.46446  0.16722  1.0000
  H   H193      1.0  0.38000  0.52578  0.29206  1.0000
  C   C168      1.0  0.47076  0.47092  0.10645  1.0000
  H   H194      1.0  0.26351  0.63375  0.00965  1.0000
  H   H195      1.0  0.45799  0.50964  0.36762  1.0000
  C   C169      1.0  0.34058  0.57324  0.99923  1.0000
  C   C170      1.0  0.45945  0.40408  0.12171  1.0000
  C   C171      1.0  0.30834  0.62934  0.29008  1.0000
  H   H196      1.0  0.27468  0.61778  0.08964  1.0000
  C   C172      1.0  0.46446  0.39634  0.06939  1.0000
  C   C173      1.0  0.32376  0.59028  0.01800  1.0000
  H   H197      1.0  0.49303  0.48427  0.45187  1.0000
  C   C174      1.0  0.32293  0.55309  0.98610  1.0000
  H   H198      1.0  0.44421  0.47401  0.11142  1.0000
  C   C175      1.0  0.23470  0.60067  0.04818  1.0000
  H   H199      1.0  0.34843  0.53995  0.26917  1.0000
  H   H200      1.0  0.38931  0.56709  0.24427  1.0000
  N   N13       1.0  0.16738  0.38720  0.29210  1.0000
  C   C176      1.0  0.17581  0.36223  0.27814  1.0000
  C   C177      1.0  0.17059  0.38384  0.32437  1.0000
  C   C178      1.0  0.13135  0.39296  0.28492  1.0000
  C   C179      1.0  0.18954  0.40859  0.28238  1.0000
  C   C180      1.0  0.18388  0.43391  0.29290  1.0000
  C   C181      1.0  0.21733  0.40508  0.26279  1.0000
  C   C182      1.0  0.20457  0.45440  0.28422  1.0000
  C   C183      1.0  0.23785  0.42571  0.25428  1.0000
  C   C184      1.0  0.23152  0.45029  0.26496  1.0000
  H   H201      1.0  0.20189  0.35575  0.28415  1.0000
  H   H202      1.0  0.15822  0.34677  0.28547  1.0000
  H   H203      1.0  0.17369  0.36323  0.25377  1.0000
  H   H204      1.0  0.19744  0.37982  0.33073  1.0000
  H   H205      1.0  0.15480  0.36752  0.33241  1.0000
  H   H206      1.0  0.16235  0.40109  0.33679  1.0000
  H   H207      1.0  0.12816  0.39680  0.26099  1.0000
  H   H208      1.0  0.11428  0.37659  0.29077  1.0000
  H   H209      1.0  0.12151  0.40985  0.29712  1.0000
  H   H210      1.0  0.16356  0.43800  0.30814  1.0000
  H   H211      1.0  0.22415  0.38655  0.25398  1.0000
  H   H212      1.0  0.19983  0.47357  0.29258  1.0000
  H   H213      1.0  0.25914  0.42255  0.23956  1.0000
  H   H214      1.0  0.24772  0.46613  0.25838  1.0000
  C   C185      1.0  0.03376  0.33050  0.28765  1.0000
  C   C186      1.0  0.05306  0.31562  0.30709  1.0000
  H   H215      1.0  0.33322  0.57847  0.24942  1.0000
  H   H216      1.0  0.41718  0.58771  0.26463  1.0000
  C   C187      1.0  0.48200  0.47100  0.07688  1.0000
  H   H217      1.0  0.38833  0.56405  0.33834  1.0000
  C   C188      1.0  0.36247  0.54250  0.29021  1.0000
  C   C189      1.0  0.28840  0.54990  0.99169  1.0000
  C   C190      1.0  0.35669  0.58879  0.29131  1.0000
  S   S47       1.0  0.17540  0.31795  0.36023  1.0000
  C   C191      1.0  0.43131  0.38699  0.06881  1.0000
  H   H218      1.0  0.38629  0.37908  0.09299  1.0000
  H   H219      1.0  0.38150  0.44878  0.40319  1.0000
  C   C192      1.0  0.47855  0.40462  0.09581  1.0000
  C   C193      1.0  0.28768  0.60495  0.07362  1.0000
  H   H220      1.0  0.31473  0.61093  0.07326  1.0000
  C   C194      1.0  0.47852  0.43636  0.40536  1.0000
  H   H221      1.0  0.46380  0.47426  0.05942  1.0000
  H   H222      1.0  0.37138  0.60665  0.33326  1.0000
  H   H223      1.0  0.24458  0.56320  0.01380  1.0000
  C   C195      1.0  0.46183  0.44224  0.43219  1.0000
  Fe  Fe23      1.0  0.19707  0.62886  0.11757  1.0000
  H   H224      1.0  0.50043  0.46407  0.29821  1.0000
  H   H225      1.0  0.41122  0.45115  0.44990  1.0000
  C   C196      1.0  0.30962  0.61167  0.26714  1.0000
  H   H226      1.0  0.22036  0.60231  0.02714  1.0000
  C   C197      1.0  0.50195  0.47205  0.32014  1.0000
  H   H227      1.0  0.05293  0.62777  0.07592  1.0000
  C   C198      1.0  0.03021  0.63685  0.08434  1.0000
  C   C199      1.0  0.27457  0.63242  0.03218  1.0000
  H   H228      1.0  0.47927  0.39741  0.04932  1.0000
  C   C200      1.0  0.50056  0.42027  0.46535  1.0000
  S   S48       1.0  0.36686  0.47045  0.68225  1.0000
  S   S49       1.0  0.42437  0.44232  0.72379  1.0000
  Fe  Fe24      1.0  0.42380  0.47343  0.68868  1.0000
  S   S50       1.0  0.46175  0.48449  0.65153  1.0000
  Fe  Fe25      1.0  0.36686  0.44235  0.72050  1.0000
  S   S51       1.0  0.33384  0.40571  0.72069  1.0000
  H   H229      1.0  0.29486  0.61809  0.61387  1.0000
  H   H230      1.0  0.40840  0.42420  0.78295  1.0000
  C   C201      1.0  0.33433  0.36235  0.86243  1.0000
  S   S52       1.0  0.23466  0.35316  0.81617  1.0000
  H   H231      1.0  0.22113  0.47190  0.68674  1.0000
  H   H232      1.0  0.37644  0.51834  0.60302  1.0000
  C   C202      1.0  0.30613  0.39160  0.74754  1.0000
  C   C203      1.0  0.29105  0.36759  0.74159  1.0000
  C   C204      1.0  0.26921  0.35553  0.76212  1.0000
  C   C205      1.0  0.26213  0.36728  0.78913  1.0000
  C   C206      1.0  0.27723  0.39131  0.79507  1.0000
  C   C207      1.0  0.29886  0.40344  0.77446  1.0000
  H   H233      1.0  0.29632  0.35817  0.72090  1.0000
  H   H234      1.0  0.25790  0.33712  0.75707  1.0000
  H   H235      1.0  0.27202  0.40066  0.81581  1.0000
  H   H236      1.0  0.30974  0.42199  0.77942  1.0000
  H   H237      1.0  0.36814  0.42342  0.80121  1.0000
  C   C208      1.0  0.32001  0.34454  0.84324  1.0000
  S   S53       1.0  0.22336  0.58894  0.62196  1.0000
  H   H238      1.0  0.42005  0.36790  0.77850  1.0000
  C   C209      1.0  0.42902  0.56214  0.63402  1.0000
  H   H239      1.0  0.06162  0.31803  0.86302  1.0000
  C   C210      1.0  0.32133  0.58570  0.59557  1.0000
  Fe  Fe26      1.0  0.36275  0.50106  0.71682  1.0000
  S   S54       1.0  0.32724  0.53634  0.71400  1.0000
  Fe  Fe27      1.0  0.41731  0.47402  0.75724  1.0000
  S   S55       1.0  0.43709  0.47028  0.80517  1.0000
  S   S56       1.0  0.41951  0.50519  0.72274  1.0000
  S   S57       1.0  0.35986  0.47290  0.75455  1.0000
  H   H240      1.0  0.40636  0.53963  0.58481  1.0000
  H   H241      1.0  0.33101  0.62010  0.65825  1.0000
  C   C211      1.0  0.47474  0.47431  0.82714  1.0000
  H   H242      1.0  0.36254  0.52536  0.65582  1.0000
  H   H243      1.0  0.05407  0.61554  0.59963  1.0000
  Fe  Fe28      1.0  0.19593  0.62810  0.61606  1.0000
  H   H244      1.0  0.20173  0.49093  0.71499  1.0000
  N   N14       1.0  0.40222  0.39293  0.81337  1.0000
  H   H245      1.0  0.32022  0.32912  0.79956  1.0000
  H   H246      1.0  0.32414  0.36420  0.88447  1.0000
  H   H247      1.0  0.46008  0.43766  0.61436  1.0000
  H   H248      1.0  0.37067  0.39167  0.86906  1.0000
  C   C212      1.0  0.25189  0.57463  0.64815  1.0000
  C   C213      1.0  0.26582  0.55020  0.64214  1.0000
  C   C214      1.0  0.28891  0.53823  0.66176  1.0000
  C   C215      1.0  0.29841  0.55047  0.68794  1.0000
  C   C216      1.0  0.28422  0.57474  0.69411  1.0000
  C   C217      1.0  0.26129  0.58678  0.67441  1.0000
  H   H249      1.0  0.25885  0.54056  0.62195  1.0000
  H   H250      1.0  0.29917  0.51952  0.65659  1.0000
  H   H251      1.0  0.29115  0.58446  0.71427  1.0000
  H   H252      1.0  0.25093  0.60549  0.67952  1.0000
  C   C218      1.0  0.23250  0.45070  0.74054  1.0000
  C   C219      1.0  0.21049  0.40682  0.73450  1.0000
  C   C220      1.0  0.20760  0.42704  0.78207  1.0000
  N   N15       1.0  0.24915  0.47361  0.72765  1.0000
  H   H253      1.0  0.23413  0.50156  0.76030  1.0000
  C   C221      1.0  0.28147  0.46600  0.71331  1.0000
  H   H254      1.0  0.23812  0.50286  0.69533  1.0000
  Fe  Fe29      1.0  0.20538  0.31495  0.82308  1.0000
  H   H255      1.0  0.45006  0.54800  0.63730  1.0000
  H   H256      1.0  0.44101  0.41928  0.82847  1.0000
  N   N16       1.0  0.39582  0.54907  0.63010  1.0000
  C   C222      1.0  0.36216  0.58782  0.64571  1.0000
  C   C223      1.0  0.39983  0.53008  0.60595  1.0000
  C   C224      1.0  0.22553  0.42889  0.72277  1.0000
  H   H257      1.0  0.27758  0.45393  0.69347  1.0000
  C   C225      1.0  0.20150  0.40592  0.76407  1.0000
  C   C226      1.0  0.22655  0.48528  0.70520  1.0000
  H   H258      1.0  0.23220  0.42855  0.69974  1.0000
  C   C227      1.0  0.46040  0.44956  0.48621  1.0000
  C   C228      1.0  0.38796  0.53457  0.65726  1.0000
  H   H259      1.0  0.36583  0.35688  0.78214  1.0000
  H   H260      1.0  0.47617  0.45065  0.50661  1.0000
  H   H261      1.0  0.42943  0.57481  0.65367  1.0000
  C   C229      1.0  0.34739  0.56770  0.59939  1.0000
  C   C230      1.0  0.47854  0.45079  0.60520  1.0000
  C   C231      1.0  0.25738  0.49381  0.74963  1.0000
  H   H262      1.0  0.27512  0.48646  0.76680  1.0000
  H   H263      1.0  0.30461  0.58463  0.57663  1.0000
  C   C232      1.0  0.48434  0.47443  0.61907  1.0000
  H   H264      1.0  0.20119  0.42588  0.80522  1.0000
  C   C233      1.0  0.22288  0.44917  0.77065  1.0000
  H   H265      1.0  0.29753  0.45462  0.72868  1.0000
  C   C234      1.0  0.00726  0.31384  0.86884  1.0000
  H   H266      1.0  0.38785  0.54694  0.67718  1.0000
  H   H267      1.0  0.29638  0.48301  0.70596  1.0000
  C   C235      1.0  0.37437  0.37629  0.82415  1.0000
  S   S58       1.0  0.16340  0.31397  0.85737  1.0000
  H   H268      1.0  0.22730  0.46459  0.78601  1.0000
  C   C236      1.0  0.33228  0.34243  0.81466  1.0000
  H   H269      1.0  0.45009  0.46100  0.86665  1.0000
  H   H270      1.0  0.37653  0.58899  0.66594  1.0000
  H   H271      1.0  0.20641  0.39008  0.72078  1.0000
  H   H272      1.0  0.43536  0.57411  0.61450  1.0000
  C   C237      1.0  0.47360  0.46795  0.85731  1.0000
  H   H273      1.0  0.40701  0.51922  0.66139  1.0000
  C   C238      1.0  0.49676  0.44400  0.57946  1.0000
  C   C239      1.0  0.33617  0.60577  0.64156  1.0000
  H   H274      1.0  0.44701  0.46832  0.48454  1.0000
  C   C240      1.0  0.41891  0.40816  0.83698  1.0000
  H   H275      1.0  0.42073  0.51615  0.61067  1.0000
  H   H276      1.0  0.27019  0.51064  0.73931  1.0000
  H   H277      1.0  0.42869  0.39563  0.85490  1.0000
  C   C241      1.0  0.36868  0.56825  0.62472  1.0000
  C   C242      1.0  0.38835  0.41115  0.79144  1.0000
  C   C243      1.0  0.35863  0.35831  0.80501  1.0000
  H   H278      1.0  0.19066  0.38853  0.77332  1.0000
  H   H279      1.0  0.43834  0.36191  0.81417  1.0000
  H   H280      1.0  0.29864  0.33286  0.85020  1.0000
  C   C244      1.0  0.36113  0.37806  0.85319  1.0000
  C   C245      1.0  0.42903  0.37721  0.79907  1.0000
  H   H281      1.0  0.37718  0.40118  0.77211  1.0000
  C   C246      1.0  0.31579  0.60470  0.61655  1.0000
  C   C247      1.0  0.03127  0.62713  0.60064  1.0000
  H   H282      1.0  0.34986  0.55334  0.58246  1.0000
  H   H283      1.0  0.40144  0.42284  0.84639  1.0000
  H   H284      1.0  0.45124  0.38916  0.79242  1.0000
  S   S59       1.0  0.15293  0.63160  0.58268  1.0000
  H   H285      1.0  0.49201  0.42560  0.56923  1.0000
  H   H286      1.0  0.44154  0.43397  0.48990  1.0000
  H   H287      1.0  0.00658  0.32532  0.88864  1.0000
  C   C248      1.0  0.03853  0.30956  0.85450  1.0000
  H   H288      1.0  0.33605  0.53992  0.97155  1.0000
  H   H289      1.0  0.50084  0.46601  0.89882  1.0000
  S   S60       1.0  0.22831  0.66211  0.10113  1.0000
  S   S61       1.0  0.15730  0.69434  0.09397  1.0000
  Fe  Fe30      1.0  0.18787  0.66739  0.06647  1.0000
  S   S62       1.0  0.19769  0.67029  0.01698  1.0000
  Fe  Fe31      1.0  0.19457  0.68617  0.13012  1.0000
  S   S63       1.0  0.21287  0.72069  0.15578  1.0000
  H   H290      1.0  0.11170  0.82791  0.47515  1.0000
  S   S64       1.0  0.43006  0.93746  0.22918  1.0000
  S   S65       1.0  0.48599  0.95820  0.16333  1.0000
  C   C249      1.0  0.24956  0.95608  0.22785  1.0000
  Fe  Fe32      1.0  0.37355  0.94258  0.22416  1.0000
  S   S66       1.0  0.33155  0.91144  0.22459  1.0000
  Fe  Fe33      1.0  0.18840  0.76305  0.31993  1.0000
  S   S67       1.0  0.17537  0.80181  0.30124  1.0000
  S   S68       1.0  0.19766  0.72651  0.29423  1.0000
  Fe  Fe34      1.0  0.18621  0.78073  0.38403  1.0000
  S   S69       1.0  0.17371  0.82125  0.36972  1.0000
  S   S70       1.0  0.18946  0.77427  0.43416  1.0000
  Fe  Fe35      1.0  0.13694  0.80293  0.33813  1.0000
  S   S71       1.0  0.08408  0.81987  0.33125  1.0000
  Fe  Fe36      1.0  0.21335  0.81722  0.33402  1.0000
  S   S72       1.0  0.25527  0.84799  0.32711  1.0000
  S   S73       1.0  0.14709  0.76293  0.35421  1.0000
  S   S74       1.0  0.22863  0.77795  0.35085  1.0000
  C   C250      1.0  0.04562  0.80668  0.34463  1.0000
  C   C251      1.0  0.04473  0.78290  0.35885  1.0000
  C   C252      1.0  0.00542  0.72271  0.45347  1.0000
  H   H291      1.0  0.06756  0.77143  0.36015  1.0000
  H   H292      1.0  0.22468  0.94645  0.22416  1.0000
  C   C253      1.0  0.31015  0.89451  0.25361  1.0000
  C   C254      1.0  0.28276  0.87811  0.24658  1.0000
  C   C255      1.0  0.26524  0.86415  0.26862  1.0000
  C   C256      1.0  0.27505  0.86614  0.29818  1.0000
  C   C257      1.0  0.30231  0.88263  0.30518  1.0000
  C   C258      1.0  0.31962  0.89676  0.28318  1.0000
  H   H293      1.0  0.27500  0.87618  0.22386  1.0000
  H   H294      1.0  0.24425  0.85179  0.26270  1.0000
  H   H295      1.0  0.31025  0.88444  0.32787  1.0000
  H   H296      1.0  0.34052  0.90921  0.28916  1.0000
  H   H297      1.0  0.12606  0.78644  0.40876  1.0000
  H   H298      1.0  0.13133  0.79649  0.47274  1.0000
  C   C259      1.0  0.19658  0.72321  0.00724  1.0000
  C   C260      1.0  0.17742  0.70018  0.46358  1.0000
  C   C261      1.0  0.18571  0.74622  0.45660  1.0000
  C   C262      1.0  0.17964  0.72181  0.44485  1.0000
  H   H299      1.0  0.24149  0.94188  0.17052  1.0000
  H   H300      1.0  0.19770  0.72541  0.03087  1.0000
  H   H301      1.0  0.17331  0.68138  0.45411  1.0000
  H   H302      1.0  0.17728  0.71950  0.42129  1.0000
  S   S75       1.0  0.07286  0.66903  0.11688  1.0000
  C   C263      1.0  0.20380  0.72211  0.19375  1.0000
  C   C264      1.0  0.20148  0.74610  0.20768  1.0000
  C   C265      1.0  0.19729  0.74774  0.23834  1.0000
  C   C266      1.0  0.19692  0.72538  0.25540  1.0000
  C   C267      1.0  0.19845  0.70139  0.24139  1.0000
  C   C268      1.0  0.20144  0.69973  0.21063  1.0000
  H   H303      1.0  0.20316  0.76346  0.19469  1.0000
  H   H304      1.0  0.19514  0.76628  0.24874  1.0000
  H   H305      1.0  0.19796  0.68401  0.25442  1.0000
  H   H306      1.0  0.20337  0.68116  0.20014  1.0000
  C   C269      1.0  0.06199  0.71045  0.46909  1.0000
  H   H307      1.0  0.27928  0.95793  0.15798  1.0000
  H   H308      1.0  0.07891  0.73019  0.26713  1.0000
  H   H309      1.0  0.31294  0.96693  0.21652  1.0000
  C   C270      1.0  0.03305  0.65702  0.10452  1.0000
  H   H310      1.0  0.11104  0.83280  0.40859  1.0000
  H   H311      1.0  0.14278  0.82023  0.44745  1.0000
  H   H312      1.0  0.40787  0.96107  0.39157  1.0000
  Fe  Fe37      1.0  0.12931  0.65967  0.11067  1.0000
  H   H313      1.0  0.11264  0.76590  0.43809  1.0000
  N   N17       1.0  0.29292  0.78364  0.26874  1.0000
  C   C271      1.0  0.30769  0.77374  0.29665  1.0000
  C   C272      1.0  0.31135  0.80770  0.26128  1.0000
  C   C273      1.0  0.25688  0.79017  0.27393  1.0000
  C   C274      1.0  0.29442  0.76401  0.24522  1.0000
  C   C275      1.0  0.28349  0.73846  0.25070  1.0000
  C   C276      1.0  0.30346  0.77013  0.21575  1.0000
  C   C277      1.0  0.28247  0.72010  0.22831  1.0000
  C   C278      1.0  0.30178  0.75169  0.19342  1.0000
  C   C279      1.0  0.29126  0.72676  0.19968  1.0000
  H   H314      1.0  0.30875  0.78895  0.31391  1.0000
  H   H315      1.0  0.29220  0.75815  0.30660  1.0000
  H   H316      1.0  0.33817  0.80373  0.25508  1.0000
  H   H317      1.0  0.31194  0.82136  0.28016  1.0000
  H   H318      1.0  0.29873  0.81846  0.24315  1.0000
  H   H319      1.0  0.24443  0.79731  0.25349  1.0000
  H   H320      1.0  0.24215  0.77323  0.28169  1.0000
  H   H321      1.0  0.25419  0.80532  0.29093  1.0000
  H   H322      1.0  0.27378  0.73272  0.27194  1.0000
  H   H323      1.0  0.31090  0.78922  0.20916  1.0000
  H   H324      1.0  0.27292  0.70098  0.23284  1.0000
  C   C280      1.0  0.19662  0.69860  0.99489  1.0000
  H   H325      1.0  0.28853  0.71285  0.18209  1.0000
  H   H326      1.0  0.06024  0.76715  0.29711  1.0000
  C   C281      1.0  0.04141  0.75494  0.28661  1.0000
  H   H327      1.0  0.13020  0.73535  0.03389  1.0000
  H   H328      1.0  0.01405  0.75595  0.38325  1.0000
  H   H329      1.0  0.07140  0.81984  0.39931  1.0000
  H   H330      1.0  0.28247  0.93387  0.18542  1.0000
  H   H331      1.0  0.49403  0.94805  0.45424  1.0000
  H   H332      1.0  0.48469  0.93928  0.35427  1.0000
  H   H333      1.0  0.30757  0.75691  0.17089  1.0000
  H   H334      1.0  0.08371  0.77381  0.40903  1.0000
  H   H335      1.0  0.33391  0.76638  0.29315  1.0000
  C   C282      1.0  0.02853  0.80058  0.44325  1.0000
  C   C283      1.0  0.05200  0.73417  0.26966  1.0000
  C   C284      1.0  0.26626  0.95009  0.17769  1.0000
  C   C285      1.0  0.05235  0.70938  0.04510  1.0000
  C   C286      1.0  0.10421  0.78163  0.42318  1.0000
  H   H336      1.0  0.26775  0.94074  0.23471  1.0000
  C   C287      1.0  0.01536  0.82082  0.34175  1.0000
  C   C288      1.0  0.07620  0.72373  0.99724  1.0000
  C   C289      1.0  0.08689  0.82580  0.41853  1.0000
  H   H337      1.0  0.02044  0.72416  0.99941  1.0000
  H   H338      1.0  0.26069  0.64668  0.04588  1.0000
  N   N18       1.0  0.09262  0.80442  0.43972  1.0000
  S   S76       1.0  0.38059  0.96736  0.18337  1.0000
  C   C290      1.0  0.10245  0.68961  0.02565  1.0000
  S   S77       1.0  0.16540  0.65289  0.14875  1.0000
  H   H339      1.0  0.02482  0.80889  0.42172  1.0000
  H   H340      1.0  0.10653  0.68099  0.04782  1.0000
  H   H341      1.0  0.05885  0.70251  0.06768  1.0000
  C   C291      1.0  0.01429  0.77404  0.37154  1.0000
  H   H342      1.0  0.19568  0.76405  0.99871  1.0000
  H   H343      1.0  0.12812  0.69206  0.01588  1.0000
  H   H344      1.0  0.43962  0.95828  0.43764  1.0000
  H   H345      1.0  0.01579  0.83920  0.33064  1.0000
  H   H346      1.0  0.10790  0.72798  0.06686  1.0000
  Fe  Fe38      1.0  0.43751  0.96541  0.19155  1.0000
  H   H347      1.0  0.07433  0.84246  0.42931  1.0000
  C   C292      1.0  0.04272  0.72812  0.98646  1.0000
  H   H348      1.0  0.03722  0.72722  0.04810  1.0000
  C   C293      1.0  0.49929  0.95668  0.35128  1.0000
  C   C294      1.0  0.19556  0.74512  0.98892  1.0000
  H   H349      1.0  0.48056  0.95195  0.99836  1.0000
  H   H350      1.0  0.03632  0.69409  0.03518  1.0000
  C   C295      1.0  0.06134  0.79733  0.45587  1.0000
  N   N19       1.0  0.08337  0.71416  0.02732  1.0000
  H   H351      1.0  0.09221  0.75267  0.04284  1.0000
  C   C296      1.0  0.10428  0.73334  0.04335  1.0000
  H   H352      1.0  0.12941  0.72652  0.98446  1.0000
  C   C297      1.0  0.00677  0.76028  0.28990  1.0000
  H   H353      1.0  0.28973  0.64472  0.28965  1.0000
  H   H354      1.0  0.08870  0.67521  0.01205  1.0000
  H   H355      1.0  0.00512  0.68425  0.13075  1.0000
  H   H356      1.0  0.03637  0.70262  0.24245  1.0000
  C   C298      1.0  0.02798  0.71866  0.25582  1.0000
  C   C299      1.0  0.12044  0.81266  0.45982  1.0000
  N   N20       1.0  0.26139  0.96970  0.20101  1.0000
  C   C300      1.0  0.04032  0.72194  0.44851  1.0000
  H   H357      1.0  0.24757  0.96932  0.24698  1.0000
  H   H358      1.0  0.08888  0.71014  0.46413  1.0000
  H   H359      1.0  0.05057  0.73018  0.42849  1.0000
  C   C301      1.0  0.48298  0.96928  0.10266  1.0000
  C   C302      1.0  0.50232  0.96029  0.12643  1.0000
  S   S78       1.0  0.45751  0.96442  0.30298  1.0000
  H   H360      1.0  0.32970  0.64094  0.33144  1.0000
  H   H361      1.0  0.49949  0.93458  0.26053  1.0000
  H   H362      1.0  0.30129  0.63915  0.03110  1.0000
  C   C303      1.0  0.00321  0.66861  0.11516  1.0000
  C   C304      1.0  0.49740  0.97095  0.07415  1.0000
  Fe  Fe39      1.0  0.42917  0.97204  0.25899  1.0000
  S   S79       1.0  0.22333  0.66281  0.59778  1.0000
  S   S80       1.0  0.14999  0.69255  0.59826  1.0000
  Fe  Fe40      1.0  0.17877  0.66783  0.56682  1.0000
  S   S81       1.0  0.17800  0.67445  0.51670  1.0000
  Fe  Fe41      1.0  0.19179  0.68497  0.63063  1.0000
  S   S82       1.0  0.20784  0.72031  0.65616  1.0000
  H   H363      1.0  0.11910  0.74445  0.93584  1.0000
  S   S83       1.0  0.43862  0.93910  0.73377  1.0000
  C   C305      1.0  0.06464  0.74398  0.94006  1.0000
  Fe  Fe42      1.0  0.12630  0.65654  0.61584  1.0000
  Fe  Fe43      1.0  0.38149  0.93869  0.72835  1.0000
  S   S84       1.0  0.34561  0.90349  0.73095  1.0000
  Fe  Fe44      1.0  0.19631  0.75982  0.82279  1.0000
  S   S85       1.0  0.18123  0.79777  0.80345  1.0000
  S   S86       1.0  0.20687  0.72405  0.79582  1.0000
  Fe  Fe45      1.0  0.18961  0.77833  0.88642  1.0000
  S   S87       1.0  0.17387  0.81803  0.87107  1.0000
  S   S88       1.0  0.19175  0.77122  0.93627  1.0000
  Fe  Fe46      1.0  0.14049  0.79732  0.83851  1.0000
  S   S89       1.0  0.08650  0.80526  0.82221  1.0000
  Fe  Fe47      1.0  0.21607  0.81515  0.83729  1.0000
  S   S90       1.0  0.25540  0.84772  0.83042  1.0000
  S   S91       1.0  0.15376  0.75814  0.85572  1.0000
  S   S92       1.0  0.23380  0.77675  0.85491  1.0000
  C   C306      1.0  0.04875  0.79988  0.84265  1.0000
  C   C307      1.0  0.04926  0.79605  0.87309  1.0000
  H   H364      1.0  0.46459  0.92032  0.85786  1.0000
  H   H365      1.0  0.07325  0.79607  0.88474  1.0000
  C   C308      1.0  0.01729  0.80016  0.82791  1.0000
  C   C309      1.0  0.31961  0.88919  0.75886  1.0000
  C   C310      1.0  0.29573  0.87025  0.75082  1.0000
  C   C311      1.0  0.27536  0.85776  0.77213  1.0000
  C   C312      1.0  0.27878  0.86383  0.80201  1.0000
  C   C313      1.0  0.30223  0.88312  0.80995  1.0000
  C   C314      1.0  0.32235  0.89579  0.78861  1.0000
  H   H366      1.0  0.29325  0.86492  0.72793  1.0000
  H   H367      1.0  0.25729  0.84328  0.76544  1.0000
  H   H368      1.0  0.30510  0.88813  0.83291  1.0000
  H   H369      1.0  0.34044  0.91029  0.79531  1.0000
  C   C315      1.0  0.35867  0.81386  0.72921  1.0000
  H   H370      1.0  0.12568  0.70403  0.66034  1.0000
  C   C316      1.0  0.18641  0.72707  0.50610  1.0000
  H   H371      1.0  0.32952  0.78060  0.72060  1.0000
  C   C317      1.0  0.19432  0.74280  0.95806  1.0000
  C   C318      1.0  0.19429  0.71817  0.94573  1.0000
  C   C319      1.0  0.25714  0.93959  0.73919  1.0000
  H   H372      1.0  0.18932  0.72932  0.52962  1.0000
  H   H373      1.0  0.19566  0.67735  0.95421  1.0000
  H   H374      1.0  0.19334  0.71602  0.92209  1.0000
  C   C320      1.0  0.18114  0.70257  0.49429  1.0000
  C   C321      1.0  0.20557  0.72093  0.69492  1.0000
  C   C322      1.0  0.20469  0.74472  0.70940  1.0000
  C   C323      1.0  0.20406  0.74597  0.74027  1.0000
  C   C324      1.0  0.20508  0.72339  0.75695  1.0000
  C   C325      1.0  0.20583  0.69960  0.74246  1.0000
  C   C326      1.0  0.20579  0.69834  0.71155  1.0000
  H   H375      1.0  0.20445  0.76225  0.69661  1.0000
  H   H376      1.0  0.20316  0.76444  0.75101  1.0000
  H   H377      1.0  0.20673  0.68204  0.75517  1.0000
  H   H378      1.0  0.20675  0.67992  0.70060  1.0000
  H   H379      1.0  0.03513  0.76708  0.51913  1.0000
  H   H380      1.0  0.00982  0.65991  0.67921  1.0000
  N   N21       1.0  0.29881  0.77275  0.77593  1.0000
  C   C327      1.0  0.30979  0.76026  0.80376  1.0000
  C   C328      1.0  0.26563  0.78535  0.78093  1.0000
  C   C329      1.0  0.29363  0.75205  0.75384  1.0000
  C   C330      1.0  0.32374  0.79247  0.76673  1.0000
  C   C331      1.0  0.01851  0.79325  0.88868  1.0000
  C   C332      1.0  0.33421  0.81188  0.78672  1.0000
  H   H381      1.0  0.07433  0.66733  0.55855  1.0000
  H   H382      1.0  0.38471  0.84829  0.74267  1.0000
  S   S93       1.0  0.16674  0.65038  0.65051  1.0000
  H   H383      1.0  0.04206  0.69111  0.55593  1.0000
  S   S94       1.0  0.07076  0.66509  0.62696  1.0000
  H   H384      1.0  0.10900  0.67301  0.48467  1.0000
  H   H385      1.0  0.26710  0.80040  0.79824  1.0000
  H   H386      1.0  0.24620  0.77124  0.78819  1.0000
  H   H387      1.0  0.25615  0.79482  0.76056  1.0000
  C   C333      1.0  0.04925  0.69935  0.49543  1.0000
  H   H388      1.0  0.42022  0.95296  0.84914  1.0000
  H   H389      1.0  0.28166  0.75943  0.73329  1.0000
  H   H390      1.0  0.15589  0.96273  0.68290  1.0000
  H   H391      1.0  0.32407  0.81288  0.80879  1.0000
  H   H392      1.0  0.49711  0.91991  0.90304  1.0000
  C   C334      1.0  0.06292  0.78444  0.48341  1.0000
  C   C335      1.0  0.03338  0.77673  0.49806  1.0000
  H   H393      1.0  0.23504  0.94173  0.75422  1.0000
  N   N22       1.0  0.07280  0.68718  0.51674  1.0000
  C   C336      1.0  0.05570  0.67617  0.54302  1.0000
  H   H394      1.0  0.27603  0.73689  0.76209  1.0000
  H   H395      1.0  0.08473  0.72265  0.53881  1.0000
  H   H396      1.0  0.19347  0.76742  0.49678  1.0000
  H   H397      1.0  0.05646  0.75972  0.75846  1.0000
  S   S95       1.0  0.38393  0.96024  0.68496  1.0000
  H   H398      1.0  0.11232  0.74943  0.67053  1.0000
  H   H399      1.0  0.11313  0.71472  0.50925  1.0000
  H   H400      1.0  0.08619  0.69825  0.79142  1.0000
  C   C337      1.0  0.09766  0.73965  0.94987  1.0000
  C   C338      1.0  0.19558  0.69625  0.96405  1.0000
  C   C339      1.0  0.47729  0.93416  0.90120  1.0000
  N   N23       1.0  0.09784  0.73478  0.77117  1.0000
  C   C340      1.0  0.29618  0.95944  0.70591  1.0000
  H   H401      1.0  0.09952  0.72244  0.81659  1.0000
  C   C341      1.0  0.06207  0.74345  0.77355  1.0000
  C   C342      1.0  0.11932  0.70999  0.68250  1.0000
  H   H402      1.0  0.44970  0.93557  0.97591  1.0000
  C   C343      1.0  0.18869  0.74869  0.48737  1.0000
  C   C344      1.0  0.46653  0.95273  0.97701  1.0000
  H   H403      1.0  0.19979  0.94433  0.71393  1.0000
  H   H404      1.0  0.29086  0.94543  0.68801  1.0000
  H   H405      1.0  0.03748  0.66068  0.53696  1.0000
  C   C345      1.0  0.11166  0.73557  0.68832  1.0000
  H   H406      1.0  0.30958  0.77369  0.82276  1.0000
  H   H407      1.0  0.27866  0.93269  0.75305  1.0000
  H   H408      1.0  0.33587  0.75222  0.80168  1.0000
  C   C346      1.0  0.47080  0.95259  0.92360  1.0000
  C   C347      1.0  0.03286  0.65204  0.61206  1.0000
  C   C348      1.0  0.09761  0.70652  0.52732  1.0000
  C   C349      1.0  0.10377  0.71481  0.79399  1.0000
  C   C350      1.0  0.09156  0.66600  0.50215  1.0000
  H   H409      1.0  0.10810  0.65537  0.51795  1.0000
  H   H410      1.0  0.06035  0.75199  0.91834  1.0000
  H   H411      1.0  0.07381  0.65188  0.49206  1.0000
  C   C351      1.0  0.11933  0.69210  0.70526  1.0000
  C   C352      1.0  0.33661  0.79407  0.73756  1.0000
  H   H412      1.0  0.13059  0.70780  0.79342  1.0000
  H   H413      1.0  0.11368  0.68496  0.75064  1.0000
  H   H414      1.0  0.01661  0.80330  0.80441  1.0000
  H   H415      1.0  0.31737  0.95154  0.71926  1.0000
  H   H416      1.0  0.25195  0.92393  0.72312  1.0000
  H   H417      1.0  0.03129  0.73659  0.70522  1.0000
  C   C353      1.0  0.02342  0.69748  0.69181  1.0000
  H   H418      1.0  0.12563  0.67226  0.70056  1.0000
  C   C354      1.0  0.12032  0.75672  0.77829  1.0000
  C   C355      1.0  0.43369  0.95253  0.86997  1.0000
  N   N24       1.0  0.49014  0.95346  0.95157  1.0000
  C   C356      1.0  0.36855  0.83248  0.74946  1.0000
  H   H419      1.0  0.09842  0.76348  0.72040  1.0000
  C   C357      1.0  0.10412  0.74341  0.71698  1.0000
  C   C358      1.0  0.11227  0.69975  0.73407  1.0000
  H   H420      1.0  0.36336  0.84639  0.79364  1.0000
  C   C359      1.0  0.20578  0.96199  0.70262  1.0000
  H   H421      1.0  0.31797  0.74235  0.74828  1.0000
  C   C360      1.0  0.10473  0.72580  0.74086  1.0000
  Fe  Fe48      1.0  0.44073  0.96378  0.69246  1.0000
  N   N25       1.0  0.26561  0.96412  0.72416  1.0000
  C   C361      1.0  0.45875  0.93415  0.87494  1.0000
  H   H422      1.0  0.29237  0.74430  0.81016  1.0000
  H   H423      1.0  0.11415  0.77442  0.76574  1.0000
  H   H424      1.0  0.01908  0.79111  0.91233  1.0000
  H   H425      1.0  0.14730  0.75180  0.77428  1.0000
  S   S96       1.0  0.48727  0.95619  0.66215  1.0000
  H   H426      1.0  0.04411  0.72758  0.76839  1.0000
  H   H427      1.0  0.05625  0.75060  0.79615  1.0000
  H   H428      1.0  0.08687  0.77983  0.49372  1.0000
  H   H429      1.0  0.11817  0.76224  0.80172  1.0000
  H   H430      1.0  0.36765  0.81512  0.70672  1.0000
  C   C362      1.0  0.35656  0.83136  0.77821  1.0000
  H   H431      1.0  0.11619  0.69786  0.54289  1.0000
  C   C363      1.0  0.01345  0.72079  0.70405  1.0000
  H   H432      1.0  0.01156  0.74168  0.95039  1.0000
  C   C364      1.0  0.01349  0.70054  0.49988  1.0000
  H   H433      1.0  0.00398  0.68617  0.62180  1.0000
  C   C365      1.0  0.03721  0.73814  0.95824  1.0000
  C   C366      1.0  0.00297  0.66678  0.61331  1.0000
  H   H434      1.0  0.04897  0.69518  0.68326  1.0000
  H   H435      1.0  0.50111  0.91292  0.95436  1.0000
  C   C367      1.0  0.10338  0.72952  0.97790  1.0000
  H   H436      1.0  0.45138  0.97200  0.48339  1.0000
  C   C368      1.0  0.44512  0.97108  0.91774  1.0000
  C   C369      1.0  0.42693  0.97099  0.89130  1.0000
  H   H437      1.0  0.45014  0.97004  0.97828  1.0000
  Fe  Fe49      1.0  0.84024  0.18001  0.06667  1.0000
  S   S97       1.0  0.85095  0.14085  0.04802  1.0000
  S   S98       1.0  0.84027  0.21712  0.04051  1.0000
  Fe  Fe50      1.0  0.84380  0.16274  0.13079  1.0000
  S   S99       1.0  0.85421  0.12201  0.11650  1.0000
  S   S100      1.0  0.85161  0.17071  0.18021  1.0000
  Fe  Fe51      1.0  0.89055  0.13844  0.08370  1.0000
  S   S101      1.0  0.94010  0.11681  0.07660  1.0000
  Fe  Fe52      1.0  0.81348  0.12657  0.08179  1.0000
  S   S102      1.0  0.78180  0.08939  0.07601  1.0000
  S   S103      1.0  0.88290  0.17860  0.09971  1.0000
  S   S104      1.0  0.80000  0.16642  0.09874  1.0000
  H   H438      1.0  0.53577  0.01100  0.44446  1.0000
  C   C370      1.0  0.89056  0.03536  0.02509  1.0000
  H   H439      1.0  0.50304  0.02972  0.46253  1.0000
  S   S105      1.0  0.57805  0.99422  0.39319  1.0000
  C   C371      1.0  0.52737  0.06870  0.09773  1.0000
  C   C372      1.0  0.86468  0.06635  0.05749  1.0000
  Fe  Fe53      1.0  0.82597  0.27265  0.31379  1.0000
  S   S106      1.0  0.80322  0.25876  0.26994  1.0000
  Fe  Fe54      1.0  0.85360  0.26559  0.37585  1.0000
  S   S107      1.0  0.86977  0.23671  0.41048  1.0000
  H   H440      1.0  0.79979  0.18530  0.00106  1.0000
  H   H441      1.0  0.50544  0.00829  0.30595  1.0000
  S   S108      1.0  0.80113  0.27516  0.35887  1.0000
  S   S109      1.0  0.87669  0.25996  0.33083  1.0000
  C   C373      1.0  0.60713  0.97781  0.30067  1.0000
  H   H442      1.0  0.92955  0.17304  0.17847  1.0000
  H   H443      1.0  0.50703  0.97845  0.21990  1.0000
  C   C374      1.0  0.58793  0.97596  0.27485  1.0000
  C   C375      1.0  0.83486  0.21699  0.00198  1.0000
  C   C376      1.0  0.00001  0.30095  0.32989  1.0000
  C   C377      1.0  0.61598  0.06578  0.04425  1.0000
  C   C378      1.0  0.84972  0.22970  0.44431  1.0000
  H   H444      1.0  0.96259  0.09496  0.17372  1.0000
  H   H445      1.0  0.97232  0.11685  0.14444  1.0000
  C   C379      1.0  0.72605  0.13455  0.47182  1.0000
  C   C380      1.0  0.57773  0.04508  0.08067  1.0000
  H   H446      1.0  0.93012  0.10631  0.14888  1.0000
  H   H447      1.0  0.59515  0.06947  0.02821  1.0000
  C   C381      1.0  0.83763  0.19548  0.20459  1.0000
  C   C382      1.0  0.81480  0.21470  0.19600  1.0000
  C   C383      1.0  0.80449  0.23376  0.21628  1.0000
  C   C384      1.0  0.81712  0.23413  0.24529  1.0000
  C   C385      1.0  0.84037  0.21513  0.25373  1.0000
  C   C386      1.0  0.85037  0.19592  0.23357  1.0000
  H   H448      1.0  0.80476  0.21474  0.17385  1.0000
  H   H449      1.0  0.78648  0.24828  0.20944  1.0000
  H   H450      1.0  0.85017  0.21498  0.27597  1.0000
  H   H451      1.0  0.86793  0.18117  0.24060  1.0000
  C   C387      1.0  0.70688  0.05136  0.00984  1.0000
  C   C388      1.0  0.72104  0.03741  0.03317  1.0000
  C   C389      1.0  0.74372  0.04942  0.05308  1.0000
  C   C390      1.0  0.75305  0.07544  0.04987  1.0000
  C   C391      1.0  0.73892  0.08936  0.02650  1.0000
  C   C392      1.0  0.71589  0.07744  0.00682  1.0000
  H   H452      1.0  0.71460  0.01735  0.03587  1.0000
  H   H453      1.0  0.75434  0.03839  0.07103  1.0000
  H   H454      1.0  0.74564  0.10934  0.02363  1.0000
  C   C393      1.0  0.79318  0.04769  0.98671  1.0000
  H   H455      1.0  0.70518  0.08852  0.98894  1.0000
  C   C394      1.0  0.98093  0.12916  0.08519  1.0000
  C   C395      1.0  0.54453  0.98526  0.36832  1.0000
  H   H456      1.0  0.91480  0.15253  0.14953  1.0000
  H   H457      1.0  0.96389  0.16706  0.09673  1.0000
  C   C396      1.0  0.51591  0.01072  0.46191  1.0000
  H   H458      1.0  0.89518  0.21688  0.17139  1.0000
  H   H459      1.0  0.95800  0.16320  0.14990  1.0000
  H   H460      1.0  0.85900  0.10283  0.98942  1.0000
  H   H461      1.0  0.77373  0.03292  0.98630  1.0000
  C   C397      1.0  0.82088  0.04550  0.00581  1.0000
  S   S110      1.0  0.60719  0.00696  0.47469  1.0000
  H   H462      1.0  0.71954  0.11672  0.42937  1.0000
  C   C398      1.0  0.85089  0.23606  0.98514  1.0000
  H   H463      1.0  0.56263  0.08410  0.06747  1.0000
  C   C399      1.0  0.97683  0.13999  0.19944  1.0000
  H   H464      1.0  0.89401  0.12133  0.18569  1.0000
  C   C400      1.0  0.93685  0.15664  0.16412  1.0000
  C   C401      1.0  0.53785  0.02598  0.11601  1.0000
  H   H465      1.0  0.51164  0.08580  0.09724  1.0000
  H   H466      1.0  0.92178  0.10983  0.21418  1.0000
  H   H467      1.0  0.91458  0.03354  0.03791  1.0000
  H   H468      1.0  0.87726  0.28729  0.46219  1.0000
  C   C402      1.0  0.55688  0.06742  0.08064  1.0000
  S   S111      1.0  0.67763  0.03748  0.98408  1.0000
  H   H469      1.0  0.83593  0.29101  0.22784  1.0000
  H   H470      1.0  0.80296  0.24940  0.43497  1.0000
  H   H471      1.0  0.82905  0.29192  0.43149  1.0000
  C   C403      1.0  0.88910  0.27753  0.14490  1.0000
  N   N26       1.0  0.60886  0.04276  0.06259  1.0000
  C   C404      1.0  0.63874  0.03857  0.08193  1.0000
  C   C405      1.0  0.60552  0.02053  0.04244  1.0000
  H   H472      1.0  0.63949  0.06332  0.03089  1.0000
  H   H473      1.0  0.64155  0.05450  0.09808  1.0000
  H   H474      1.0  0.66275  0.03754  0.06903  1.0000
  H   H475      1.0  0.63704  0.02029  0.09444  1.0000
  H   H476      1.0  0.62759  0.01910  0.02723  1.0000
  H   H477      1.0  0.60412  0.00187  0.05427  1.0000
  H   H478      1.0  0.58207  0.02208  0.02881  1.0000
  H   H479      1.0  0.91232  0.07857  0.99698  1.0000
  C   C406      1.0  0.56729  0.02443  0.09895  1.0000
  H   H480      1.0  0.89575  0.23955  0.21786  1.0000
  H   H481      1.0  0.89050  0.24028  0.12437  1.0000
  C   C407      1.0  0.91621  0.12658  0.19976  1.0000
  C   C408      1.0  0.80970  0.30528  0.44062  1.0000
  H   H482      1.0  0.86853  0.24910  0.99562  1.0000
  H   H483      1.0  0.58159  0.00672  0.09989  1.0000
  C   C409      1.0  0.88928  0.29112  0.17143  1.0000
  H   H484      1.0  0.78814  0.29336  0.44862  1.0000
  C   C410      1.0  0.51094  0.99538  0.32394  1.0000
  C   C411      1.0  0.51785  0.04801  0.11532  1.0000
  H   H485      1.0  0.89710  0.10014  0.02527  1.0000
  C   C412      1.0  0.81727  0.23884  0.45124  1.0000
  C   C413      1.0  0.98537  0.15414  0.09578  1.0000
  N   N27       1.0  0.89046  0.29312  0.22673  1.0000
  H   H486      1.0  0.75070  0.27761  0.99568  1.0000
  C   C414      1.0  0.77818  0.28248  0.99705  1.0000
  H   H487      1.0  0.74299  0.14888  0.46283  1.0000
  Fe  Fe55      1.0  0.89005  0.30168  0.33390  1.0000
  C   C415      1.0  0.89450  0.25107  0.19816  1.0000
  N   N28       1.0  0.87613  0.06171  0.02696  1.0000
  H   H488      1.0  0.89228  0.20737  0.45972  1.0000
  H   H489      1.0  0.90700  0.14288  0.21344  1.0000
  C   C416      1.0  0.53697  0.00148  0.34432  1.0000
  H   H490      1.0  0.98698  0.28968  0.34638  1.0000
  C   C417      1.0  0.69119  0.09708  0.46281  1.0000
  H   H491      1.0  0.53888  0.99634  0.23875  1.0000
  H   H492      1.0  0.87514  0.26260  0.25600  1.0000
  C   C418      1.0  0.95321  0.11206  0.16149  1.0000
  S   S112      1.0  0.66321  0.97535  0.43715  1.0000
  H   H493      1.0  0.62020  0.08318  0.05797  1.0000
  C   C419      1.0  0.86732  0.21474  0.46500  1.0000
  H   H494      1.0  0.62517  0.99335  0.30352  1.0000
  H   H495      1.0  0.94283  0.30477  0.22433  1.0000
  H   H496      1.0  0.55142  0.01897  0.34145  1.0000
  H   H497      1.0  0.50527  0.98155  0.25917  1.0000
  H   H498      1.0  0.92704  0.07626  0.03425  1.0000
  H   H499      1.0  0.95270  0.14129  0.24298  1.0000
  C   C420      1.0  0.81242  0.19996  0.98823  1.0000
  C   C421      1.0  0.97581  0.14348  0.23046  1.0000
  N   N29       1.0  0.94625  0.13382  0.18177  1.0000
  H   H500      1.0  0.88655  0.28765  0.12417  1.0000
  C   C422      1.0  0.89143  0.25084  0.14493  1.0000
  H   H501      1.0  0.85341  0.08582  0.05973  1.0000
  C   C423      1.0  0.52280  0.97890  0.24023  1.0000
  H   H502      1.0  0.89454  0.28887  0.27383  1.0000
  C   C424      1.0  0.71273  0.11627  0.45245  1.0000
  H   H503      1.0  0.88604  0.06507  0.07352  1.0000
  H   H504      1.0  0.68163  0.08243  0.44801  1.0000
  Fe  Fe56      1.0  0.60613  0.98057  0.43530  1.0000
  C   C425      1.0  0.89554  0.27713  0.25344  1.0000
  H   H505      1.0  0.82135  0.02902  0.02020  1.0000
  H   H506      1.0  0.84453  0.05261  0.06439  1.0000
  C   C426      1.0  0.89198  0.27832  0.19894  1.0000
  C   C427      1.0  0.89424  0.23769  0.17148  1.0000
  H   H507      1.0  0.53022  0.00988  0.12961  1.0000
  C   C428      1.0  0.90420  0.07992  0.02035  1.0000
  H   H508      1.0  0.92064  0.26735  0.25336  1.0000
  C   C429      1.0  0.84176  0.08672  0.98902  1.0000
  C   C430      1.0  0.84667  0.06457  0.00688  1.0000
  H   H509      1.0  0.87333  0.02054  0.03433  1.0000
  H   H510      1.0  0.79177  0.26465  0.99038  1.0000
  H   H511      1.0  0.59212  0.99033  0.25812  1.0000
  H   H512      1.0  0.89621  0.03014  0.00185  1.0000
  H   H513      1.0  0.78519  0.28619  0.02039  1.0000
  H   H514      1.0  0.72922  0.97603  0.47830  1.0000
  H   H515      1.0  0.76403  0.06277  0.47875  1.0000
  Fe  Fe57      1.0  0.83205  0.18653  0.56514  1.0000
  S   S113      1.0  0.85341  0.15017  0.54625  1.0000
  S   S114      1.0  0.80434  0.21497  0.53570  1.0000
  Fe  Fe58      1.0  0.84975  0.17189  0.62898  1.0000
  S   S115      1.0  0.87125  0.13366  0.61390  1.0000
  S   S116      1.0  0.85534  0.18062  0.67855  1.0000
  Fe  Fe59      1.0  0.89678  0.15666  0.57815  1.0000
  S   S117      1.0  0.95132  0.15739  0.56065  1.0000
  Fe  Fe60      1.0  0.82575  0.13038  0.58318  1.0000
  S   S118      1.0  0.78802  0.09616  0.57930  1.0000
  S   S119      1.0  0.87700  0.19471  0.59418  1.0000
  S   S120      1.0  0.80268  0.16685  0.60119  1.0000
  H   H516      1.0  0.81590  0.15890  0.83511  1.0000
  H   H517      1.0  0.52421  0.97924  0.97397  1.0000
  H   H518      1.0  0.52989  0.00202  0.88900  1.0000
  H   H519      1.0  0.55627  0.02102  0.82310  1.0000
  H   H520      1.0  0.76106  0.19329  0.85572  1.0000
  C   C431      1.0  0.77913  0.98903  0.51845  1.0000
  Fe  Fe61      1.0  0.83177  0.28114  0.81676  1.0000
  S   S121      1.0  0.81741  0.27127  0.76886  1.0000
  Fe  Fe62      1.0  0.82678  0.26201  0.87980  1.0000
  S   S122      1.0  0.80801  0.22689  0.90446  1.0000
  H   H521      1.0  0.78488  0.16506  0.70271  1.0000
  H   H522      1.0  0.85625  0.25339  0.94217  1.0000
  S   S123      1.0  0.78929  0.28210  0.85022  1.0000
  S   S124      1.0  0.86784  0.25882  0.84561  1.0000
  H   H523      1.0  0.74653  0.19842  0.72244  1.0000
  H   H524      1.0  0.82705  0.14442  0.73488  1.0000
  C   C432      1.0  0.84378  0.23864  0.95495  1.0000
  H   H525      1.0  0.81895  0.28358  0.55848  1.0000
  C   C433      1.0  0.82142  0.21964  0.50019  1.0000
  H   H526      1.0  0.77945  0.13131  0.52757  1.0000
  H   H527      1.0  0.73858  0.19879  0.82222  1.0000
  C   C434      1.0  0.82014  0.22241  0.94151  1.0000
  C   C435      1.0  0.80498  0.20276  0.95809  1.0000
  H   H528      1.0  0.82106  0.18705  0.85715  1.0000
  S   S125      1.0  0.59642  0.99600  0.96976  1.0000
  H   H529      1.0  0.83163  0.15599  0.78639  1.0000
  H   H530      1.0  0.78679  0.19004  0.94780  1.0000
  H   H531      1.0  0.74957  0.21107  0.77399  1.0000
  C   C436      1.0  0.84665  0.20743  0.70207  1.0000
  C   C437      1.0  0.86233  0.20847  0.72994  1.0000
  C   C438      1.0  0.85447  0.22810  0.75031  1.0000
  C   C439      1.0  0.83016  0.24682  0.74339  1.0000
  C   C440      1.0  0.81472  0.24593  0.71540  1.0000
  C   C441      1.0  0.82301  0.22652  0.69482  1.0000
  H   H532      1.0  0.88065  0.19387  0.73585  1.0000
  H   H533      1.0  0.86728  0.22868  0.77132  1.0000
  H   H534      1.0  0.79603  0.26030  0.70962  1.0000
  H   H535      1.0  0.81052  0.22600  0.67364  1.0000
  C   C442      1.0  0.72907  0.04697  0.51041  1.0000
  C   C443      1.0  0.75667  0.06247  0.50165  1.0000
  C   C444      1.0  0.77492  0.07761  0.52216  1.0000
  C   C445      1.0  0.76582  0.07767  0.55195  1.0000
  C   C446      1.0  0.73837  0.06201  0.56072  1.0000
  C   C447      1.0  0.72011  0.04685  0.54021  1.0000
  C   C448      1.0  0.60113  0.97913  0.76437  1.0000
  H   H536      1.0  0.79637  0.08890  0.51488  1.0000
  H   H537      1.0  0.73111  0.06163  0.58366  1.0000
  C   C449      1.0  0.51003  0.97758  0.95287  1.0000
  H   H538      1.0  0.84544  0.18398  0.82431  1.0000
  C   C450      1.0  0.83641  0.00382  0.52770  1.0000
  C   C451      1.0  0.98895  0.15177  0.58129  1.0000
  C   C452      1.0  0.87675  0.27148  0.50516  1.0000
  H   H539      1.0  0.96737  0.12340  0.61013  1.0000
  H   H540      1.0  0.86747  0.19858  0.50873  1.0000
  H   H541      1.0  0.69499  0.15194  0.55611  1.0000
  H   H542      1.0  0.82333  0.22579  0.80670  1.0000
  H   H543      1.0  0.77899  0.23268  0.80807  1.0000
  S   S126      1.0  0.55171  0.97661  0.53335  1.0000
  H   H544      1.0  0.74878  0.29540  0.94575  1.0000
  H   H545      1.0  0.75334  0.16699  0.83078  1.0000
  C   C453      1.0  0.97685  0.30340  0.85772  1.0000
  C   C454      1.0  0.53279  0.00376  0.71742  1.0000
  H   H546      1.0  0.69587  0.18172  0.51197  1.0000
  C   C455      1.0  0.98014  0.22660  0.93222  1.0000
  H   H547      1.0  0.77857  0.24167  0.48477  1.0000
  H   H548      1.0  0.81014  0.10608  0.95720  1.0000
  C   C456      1.0  0.61743  0.98486  0.79095  1.0000
  C   C457      1.0  0.55230  0.00383  0.78015  1.0000
  H   H549      1.0  0.75221  0.99277  0.52067  1.0000
  C   C458      1.0  0.60134  1.00000  0.81199  1.0000
  H   H550      1.0  0.83795  0.28930  0.97438  1.0000
  H   H551      1.0  0.69905  0.03513  0.54749  1.0000
  H   H552      1.0  0.78316  0.16433  0.53734  1.0000
  S   S127      1.0  0.70679  0.02854  0.48312  1.0000
  C   C459      1.0  0.52459  0.98955  0.87059  1.0000
  C   C460      1.0  0.78565  0.16992  0.72590  1.0000
  H   H553      1.0  0.80186  0.22767  0.84136  1.0000
  C   C461      1.0  0.77105  0.15097  0.52152  1.0000
  Fe  Fe63      1.0  0.65322  0.99747  0.97742  1.0000
  H   H554      1.0  0.86880  0.25629  0.54860  1.0000
  H   H555      1.0  0.68962  0.11164  0.53498  1.0000
  C   C462      1.0  0.77679  0.29794  0.94741  1.0000
  C   C463      1.0  0.78958  0.06931  0.96898  1.0000
  H   H556      1.0  0.73475  0.16489  0.56802  1.0000
  C   C464      1.0  0.56903  0.00970  0.80643  1.0000
  N   N30       1.0  0.79262  0.19298  0.81697  1.0000
  C   C465      1.0  0.79938  0.22092  0.81830  1.0000
  C   C466      1.0  0.75995  0.18774  0.83202  1.0000
  C   C467      1.0  0.81997  0.18001  0.83398  1.0000
  C   C468      1.0  0.79050  0.18463  0.78587  1.0000
  C   C469      1.0  0.76637  0.19599  0.76658  1.0000
  C   C470      1.0  0.81203  0.16539  0.77377  1.0000
  C   C471      1.0  0.76417  0.18877  0.73705  1.0000
  C   C472      1.0  0.80949  0.15827  0.74419  1.0000
  C   C473      1.0  0.69621  0.11419  0.51214  1.0000
  C   C474      1.0  0.86481  0.28813  0.48336  1.0000
  C   C475      1.0  0.85323  0.20965  0.49278  1.0000
  H   H557      1.0  0.55207  0.01879  0.71258  1.0000
  H   H558      1.0  0.78886  0.27972  0.93985  1.0000
  H   H559      1.0  0.64244  0.97712  0.79560  1.0000
  H   H560      1.0  0.59173  0.98048  0.70219  1.0000
  H   H561      1.0  0.89786  0.25871  0.50058  1.0000
  C   C476      1.0  0.83217  0.28546  0.53768  1.0000
  H   H562      1.0  0.73129  0.13114  0.56260  1.0000
  C   C477      1.0  0.80148  0.00708  0.53043  1.0000
  Fe  Fe64      1.0  0.88490  0.29740  0.86256  1.0000
  H   H563      1.0  0.95477  0.28071  0.82314  1.0000
  H   H564      1.0  0.78191  0.15571  0.49965  1.0000
  H   H565      1.0  0.85355  0.01805  0.53684  1.0000
  C   C478      1.0  0.72297  0.15006  0.55358  1.0000
  H   H566      1.0  0.52643  0.01054  0.77785  1.0000
  C   C479      1.0  0.84918  0.98240  0.51305  1.0000
  C   C480      1.0  0.97797  0.28877  0.83198  1.0000
  N   N31       1.0  0.73357  0.15319  0.52242  1.0000
  N   N32       1.0  0.54870  0.98095  0.73150  1.0000
  H   H567      1.0  0.76750  0.07117  0.95484  1.0000
  H   H568      1.0  0.96853  0.25415  0.89834  1.0000
  H   H569      1.0  0.73408  0.19433  0.52845  1.0000
  C   C481      1.0  0.81361  0.08890  0.97035  1.0000
  C   C482      1.0  0.99035  0.13320  0.60349  1.0000
  S   S128      1.0  0.84640  0.29866  0.89927  1.0000
  C   C483      1.0  0.72395  0.17952  0.51303  1.0000
  C   C484      1.0  0.98843  0.24521  0.91143  1.0000
  H   H570      1.0  0.52899  0.97837  0.93475  1.0000
  C   C485      1.0  0.71834  0.13401  0.50231  1.0000
  Fe  Fe65      1.0  0.66321  0.99880  0.47915  1.0000
  H   H571      1.0  0.00139  0.10710  0.53250  1.0000
  H   H572      1.0  0.52981  0.00856  0.48315  1.0000
  H   H573      1.0  0.99920  0.20060  0.96505  1.0000
  H   H574      1.0  0.95383  0.22102  0.93529  1.0000
  H   H575      1.0  0.61360  0.00377  0.83293  1.0000
  H   H576      1.0  0.51257  0.01251  0.73117  1.0000
  C   C486      1.0  0.86039  0.27007  0.53222  1.0000
  H   H577      1.0  0.73455  0.18459  0.49114  1.0000
  H   H578      1.0  0.51995  0.99866  0.69631  1.0000
  C   C487      1.0  0.56788  0.98847  0.75819  1.0000
  H   H579      1.0  0.79163  0.02387  0.54169  1.0000
  H   H580      1.0  0.87643  0.98004  0.51085  1.0000
  H   H581      1.0  0.66672  0.08075  0.50051  1.0000
  C   C488      1.0  0.68271  0.09621  0.49250  1.0000
  C   C489      1.0  0.82024  0.30247  0.51617  1.0000
  C   C490      1.0  0.83645  0.30445  0.48831  1.0000
  C   C491      1.0  0.50240  0.98096  0.57676  1.0000
  N   N33       1.0  0.78707  0.30459  0.97783  1.0000
  C   C492      1.0  0.80332  0.23407  0.47925  1.0000
  S   S129      1.0  0.63177  0.46259  0.01089  1.0000
  C   C493      1.0  0.98101  0.31641  0.31048  1.0000
  Fe  Fe66      1.0  0.57567  0.46676  0.00085  1.0000
  S   S130      1.0  0.52875  0.46699  0.03166  1.0000
  C   C494      1.0  0.88450  0.53093  0.06636  1.0000
  S   S131      1.0  0.67495  0.39798  0.46115  1.0000
  C   C495      1.0  0.53948  0.46254  0.09260  1.0000
  H   H582      1.0  0.57229  0.54791  0.12400  1.0000
  H   H583      1.0  0.98407  0.34298  0.27435  1.0000
  S   S132      1.0  0.79206  0.35381  0.37588  1.0000
  H   H584      1.0  0.66204  0.59188  0.13881  1.0000
  C   C496      1.0  0.79878  0.52158  0.01004  1.0000
  C   C497      1.0  0.70713  0.38617  0.43668  1.0000
  C   C498      1.0  0.71151  0.35943  0.43349  1.0000
  C   C499      1.0  0.73671  0.34912  0.41467  1.0000
  C   C500      1.0  0.75858  0.36543  0.39912  1.0000
  C   C501      1.0  0.75416  0.39216  0.40229  1.0000
  C   C502      1.0  0.72854  0.40248  0.42066  1.0000
  H   H585      1.0  0.69511  0.34654  0.44560  1.0000
  H   H586      1.0  0.73925  0.32854  0.41235  1.0000
  H   H587      1.0  0.77089  0.40507  0.39056  1.0000
  H   H588      1.0  0.72577  0.42307  0.42282  1.0000
  H   H589      1.0  0.67693  0.38623  0.33252  1.0000
  H   H590      1.0  0.83206  0.59048  0.02333  1.0000
  H   H591      1.0  0.53376  0.52002  0.05881  1.0000
  H   H592      1.0  0.89420  0.51879  0.04805  1.0000
  C   C503      1.0  0.51639  0.46676  0.06963  1.0000
  Fe  Fe67      1.0  0.80154  0.62544  0.09300  1.0000
  Fe  Fe68      1.0  0.64726  0.43693  0.46740  1.0000
  H   H593      1.0  0.91341  0.32798  0.20970  1.0000
  H   H594      1.0  0.56594  0.45911  0.08759  1.0000
  H   H595      1.0  0.87625  0.57375  0.09679  1.0000
  H   H596      1.0  0.84457  0.58811  0.07402  1.0000
  H   H597      1.0  0.73543  0.31337  0.01976  1.0000
  C   C504      1.0  0.99828  0.33094  0.28937  1.0000
  C   C505      1.0  0.72826  0.35337  0.01495  1.0000
  S   S133      1.0  0.77101  0.58784  0.08617  1.0000
  S   S134      1.0  0.93594  0.31923  0.31073  1.0000
  H   H598      1.0  0.64098  0.46595  0.36704  1.0000
  Fe  Fe69      1.0  0.59448  0.47178  0.43506  1.0000
  S   S135      1.0  0.56993  0.46892  0.38864  1.0000
  H   H599      1.0  0.60171  0.55357  0.02264  1.0000
  S   S136      1.0  0.65187  0.47154  0.43830  1.0000
  C   C506      1.0  0.53330  0.47693  0.36682  1.0000
  C   C507      1.0  0.69771  0.54923  0.01906  1.0000
  C   C508      1.0  0.71097  0.53556  0.04300  1.0000
  C   C509      1.0  0.73340  0.54766  0.06304  1.0000
  C   C510      1.0  0.74308  0.57358  0.05958  1.0000
  C   C511      1.0  0.72972  0.58727  0.03570  1.0000
  C   C512      1.0  0.70729  0.57517  0.01565  1.0000
  H   H600      1.0  0.70383  0.51570  0.04619  1.0000
  H   H601      1.0  0.74328  0.53685  0.08148  1.0000
  H   H602      1.0  0.73655  0.60722  0.03271  1.0000
  C   C513      1.0  0.62400  0.41835  0.33764  1.0000
  C   C514      1.0  0.63483  0.56433  0.07525  1.0000
  H   H603      1.0  0.88705  0.59000  0.03520  1.0000
  H   H604      1.0  0.67908  0.58655  0.08696  1.0000
  S   S137      1.0  0.59029  0.43621  0.46277  1.0000
  H   H605      1.0  0.55094  0.51744  0.09468  1.0000
  H   H606      1.0  0.62047  0.43184  0.39351  1.0000
  H   H607      1.0  0.63469  0.41944  0.31502  1.0000
  H   H608      1.0  0.55985  0.54147  0.02097  1.0000
  C   C515      1.0  0.66560  0.38809  0.35483  1.0000
  C   C516      1.0  0.67679  0.43497  0.35753  1.0000
  C   C517      1.0  0.85177  0.33730  0.45249  1.0000
  H   H609      1.0  0.68268  0.50045  0.36542  1.0000
  H   H610      1.0  0.91811  0.57268  0.05492  1.0000
  C   C518      1.0  0.82424  0.57090  0.01944  1.0000
  C   C519      1.0  0.63592  0.41441  0.38945  1.0000
  H   H611      1.0  0.91727  0.32401  0.24837  1.0000
  C   C520      1.0  0.50685  0.49249  0.37718  1.0000
  C   C521      1.0  0.82458  0.30767  0.97886  1.0000
  S   S138      1.0  0.84442  0.62246  0.12608  1.0000
  H   H612      1.0  0.64372  0.56216  0.05297  1.0000
  C   C522      1.0  0.66704  0.46091  0.36215  1.0000
  H   H613      1.0  0.68535  0.38335  0.37158  1.0000
  C   C523      1.0  0.78434  0.54241  0.99545  1.0000
  H   H614      1.0  0.76182  0.44638  0.34631  1.0000
  H   H615      1.0  0.61893  0.39768  0.39335  1.0000
  C   C524      1.0  0.65538  0.57825  0.09462  1.0000
  H   H616      1.0  0.78906  0.35287  0.45635  1.0000
  C   C525      1.0  0.99779  0.62809  0.07549  1.0000
  H   H617      1.0  0.60974  0.43647  0.34167  1.0000
  H   H618      1.0  0.56779  0.57125  0.03985  1.0000
  C   C526      1.0  0.64583  0.58123  0.12386  1.0000
  C   C527      1.0  0.82623  0.52519  0.02921  1.0000
  H   H619      1.0  0.60854  0.57241  0.15676  1.0000
  C   C528      1.0  0.76338  0.37547  0.97973  1.0000
  S   S139      1.0  0.84007  0.31454  0.31476  1.0000
  S   S140      1.0  0.66809  0.53550  0.99349  1.0000
  H   H620      1.0  0.53451  0.54799  0.08175  1.0000
  C   C529      1.0  0.54922  0.53061  0.07544  1.0000
  C   C530      1.0  0.73523  0.45044  0.35056  1.0000
  C   C531      1.0  0.61570  0.57024  0.13387  1.0000
  H   H621      1.0  0.86642  0.51950  0.07990  1.0000
  C   C532      1.0  0.60178  0.51338  0.05743  1.0000
  H   H622      1.0  0.84257  0.35064  0.43497  1.0000
  H   H623      1.0  0.69712  0.58608  0.99740  1.0000
  H   H624      1.0  0.64584  0.37288  0.35671  1.0000
  C   C533      1.0  0.74429  0.33013  0.00812  1.0000
  H   H625      1.0  0.90394  0.56085  0.01970  1.0000
  H   H626      1.0  0.62669  0.51704  0.04657  1.0000
  N   N34       1.0  0.65125  0.41415  0.35970  1.0000
  H   H627      1.0  0.60479  0.40266  0.33812  1.0000
  H   H628      1.0  0.72172  0.41127  0.34778  1.0000
  C   C534      1.0  0.69076  0.48086  0.36125  1.0000
  H   H629      1.0  0.58686  0.50073  0.04253  1.0000
  C   C535      1.0  0.59496  0.55622  0.11467  1.0000
  C   C536      1.0  0.72481  0.47563  0.35553  1.0000
  H   H630      1.0  0.60691  0.50232  0.07792  1.0000
  C   C537      1.0  0.60385  0.55304  0.08456  1.0000
  N   N35       1.0  0.58332  0.53752  0.06382  1.0000
  C   C538      1.0  0.71171  0.43032  0.35144  1.0000
  C   C539      1.0  0.57798  0.55165  0.03576  1.0000
  H   H631      1.0  0.65595  0.41412  0.40659  1.0000
  H   H632      1.0  0.74319  0.49113  0.35512  1.0000
  H   H633      1.0  0.76253  0.53961  0.98118  1.0000
  C   C540      1.0  0.77036  0.32893  0.98650  1.0000
  C   C541      1.0  0.85569  0.56941  0.08067  1.0000
  H   H634      1.0  0.50427  0.41212  0.09610  1.0000
  H   H635      1.0  0.50573  0.43353  0.40452  1.0000
  Fe  Fe70      1.0  0.81926  0.31640  0.36094  1.0000
  H   H636      1.0  0.51987  0.41629  0.44817  1.0000
  H   H637      1.0  0.52505  0.46251  0.43932  1.0000
  C   C542      1.0  0.52819  0.46226  0.12216  1.0000
  C   C543      1.0  0.79715  0.56700  0.00004  1.0000
  C   C544      1.0  0.83996  0.55008  0.03438  1.0000
  H   H638      1.0  0.90648  0.53523  0.08104  1.0000
  H   H639      1.0  0.80030  0.31710  0.42194  1.0000
  C   C545      1.0  0.89544  0.57013  0.04046  1.0000
  C   C546      1.0  0.91710  0.31331  0.22710  1.0000
  H   H640      1.0  0.54628  0.45859  0.13960  1.0000
  N   N36       1.0  0.86844  0.55480  0.05505  1.0000
  H   H641      1.0  0.83581  0.50823  0.04003  1.0000
  H   H642      1.0  0.50842  0.50060  0.39900  1.0000
  H   H643      1.0  0.83516  0.55875  0.09233  1.0000
  H   H644      1.0  0.85366  0.31584  0.25041  1.0000
  S   S141      1.0  0.92770  0.62756  0.07522  1.0000
  Fe  Fe71      1.0  0.63858  0.49813  0.98290  1.0000
  C   C547      1.0  0.67517  0.62035  0.47290  1.0000
  H   H645      1.0  0.78816  0.50257  0.00681  1.0000
  H   H646      1.0  0.72449  0.39377  0.00543  1.0000
  N   N37       1.0  0.82371  0.32140  0.46454  1.0000
  H   H647      1.0  0.70783  0.35386  0.03091  1.0000
  H   H648      1.0  0.88652  0.31174  0.17028  1.0000
  H   H649      1.0  0.55071  0.45488  0.32963  1.0000
  C   C548      1.0  0.53057  0.46687  0.33811  1.0000
  H   H650      1.0  0.86393  0.34898  0.47009  1.0000
  H   H651      1.0  0.85209  0.31981  0.21142  1.0000
  H   H652      1.0  0.99587  0.61225  0.06020  1.0000
  S   S142      1.0  0.58875  0.49827  0.47427  1.0000
  C   C549      1.0  0.79654  0.33934  0.47422  1.0000
  H   H653      1.0  0.78509  0.58326  0.98936  1.0000
  C   C550      1.0  0.73777  0.37597  0.00079  1.0000
  H   H654      1.0  0.83306  0.31456  0.00083  1.0000
  H   H655      1.0  0.67014  0.61728  0.44972  1.0000
  H   H656      1.0  0.52090  0.46877  0.47769  1.0000
  C   C551      1.0  0.50617  0.46589  0.45703  1.0000
  S   S143      1.0  0.87080  0.30672  0.38004  1.0000
  H   H657      1.0  0.87193  0.32560  0.44195  1.0000
  C   C552      1.0  0.85667  0.30554  0.22913  1.0000
  S   S144      1.0  0.64403  0.46020  0.50951  1.0000
  S   S145      1.0  0.57863  0.44160  0.96018  1.0000
  Fe  Fe72      1.0  0.58695  0.46232  0.50245  1.0000
  S   S146      1.0  0.54328  0.45068  0.53422  1.0000
  Fe  Fe73      1.0  0.63546  0.44043  0.96778  1.0000
  S   S147      1.0  0.66162  0.40115  0.96069  1.0000
  C   C553      1.0  0.96970  0.63127  0.59385  1.0000
  C   C554      1.0  0.84521  0.55181  0.59533  1.0000
  Fe  Fe74      1.0  0.87957  0.63698  0.59296  1.0000
  S   S148      1.0  0.78267  0.35615  0.88046  1.0000
  C   C555      1.0  0.81999  0.52711  0.51954  1.0000
  H   H658      1.0  0.73199  0.36044  0.81969  1.0000
  C   C556      1.0  0.69415  0.38918  0.93673  1.0000
  C   C557      1.0  0.69864  0.36241  0.93403  1.0000
  C   C558      1.0  0.72509  0.35195  0.91670  1.0000
  C   C559      1.0  0.74787  0.36812  0.90197  1.0000
  C   C560      1.0  0.74292  0.39489  0.90417  1.0000
  C   C561      1.0  0.71630  0.40536  0.92132  1.0000
  H   H659      1.0  0.68174  0.34964  0.94576  1.0000
  H   H660      1.0  0.72779  0.33140  0.91475  1.0000
  H   H661      1.0  0.76007  0.40765  0.89269  1.0000
  H   H662      1.0  0.71349  0.42595  0.92319  1.0000
  C   C562      1.0  0.61931  0.42027  0.88443  1.0000
  H   H663      1.0  0.82416  0.58308  0.55133  1.0000
  C   C563      1.0  0.50544  0.48348  0.81567  1.0000
  C   C564      1.0  0.95500  0.63446  0.68535  1.0000
  C   C565      1.0  0.52135  0.46052  0.56711  1.0000
  H   H664      1.0  0.86895  0.58606  0.55905  1.0000
  C   C566      1.0  0.53420  0.48652  0.83414  1.0000
  H   H665      1.0  0.84575  0.53334  0.60762  1.0000
  C   C567      1.0  0.61451  0.43511  0.83468  1.0000
  C   C568      1.0  0.71004  0.39800  0.81395  1.0000
  S   S149      1.0  0.84396  0.61906  0.62562  1.0000
  H   H666      1.0  0.69581  0.62779  0.55565  1.0000
  C   C569      1.0  0.99975  0.61674  0.59178  1.0000
  Fe  Fe75      1.0  0.80288  0.62404  0.59139  1.0000
  S   S150      1.0  0.76224  0.59249  0.58514  1.0000
  C   C570      1.0  0.66227  0.60308  0.49345  1.0000
  Fe  Fe76      1.0  0.81142  0.31891  0.86761  1.0000
  Fe  Fe77      1.0  0.58839  0.47763  0.93433  1.0000
  S   S151      1.0  0.57043  0.48483  0.88645  1.0000
  H   H667      1.0  0.68473  0.43404  0.81310  1.0000
  S   S152      1.0  0.64547  0.47567  0.94068  1.0000
  C   C571      1.0  0.53300  0.48032  0.86434  1.0000
  C   C572      1.0  0.70580  0.54614  0.51250  1.0000
  C   C573      1.0  0.69802  0.54296  0.54232  1.0000
  C   C574      1.0  0.71553  0.55730  0.56402  1.0000
  C   C575      1.0  0.74122  0.57497  0.55643  1.0000
  C   C576      1.0  0.74917  0.57807  0.52662  1.0000
  C   C577      1.0  0.73153  0.56382  0.50490  1.0000
  H   H668      1.0  0.67833  0.52958  0.54867  1.0000
  H   H669      1.0  0.70904  0.55466  0.58693  1.0000
  H   H670      1.0  0.76866  0.59154  0.52018  1.0000
  C   C578      1.0  0.68582  0.41560  0.82395  1.0000
  H   H671      1.0  0.76991  0.39293  0.96801  1.0000
  H   H672      1.0  0.66002  0.59258  0.53902  1.0000
  C   C579      1.0  0.88168  0.53491  0.55790  1.0000
  C   C580      1.0  0.82078  0.53212  0.55025  1.0000
  C   C581      1.0  0.66922  0.60653  0.52319  1.0000
  H   H673      1.0  0.88759  0.53308  0.53411  1.0000
  H   H674      1.0  0.65151  0.37836  0.87851  1.0000
  H   H675      1.0  0.59484  0.44903  0.84224  1.0000
  H   H676      1.0  0.82121  0.56215  0.60074  1.0000
  H   H677      1.0  0.86630  0.56382  0.60422  1.0000
  C   C582      1.0  0.68955  0.62698  0.53250  1.0000
  H   H678      1.0  0.96646  0.63591  0.66301  1.0000
  H   H679      1.0  0.50696  0.48856  0.79265  1.0000
  H   H680      1.0  0.90310  0.54595  0.56787  1.0000
  H   H681      1.0  0.93513  0.61930  0.68350  1.0000
  C   C583      1.0  0.66380  0.40966  0.84773  1.0000
  N   N38       1.0  0.84857  0.54772  0.56311  1.0000
  H   H682      1.0  0.74688  0.49252  0.51401  1.0000
  C   C584      1.0  0.66675  0.38467  0.86015  1.0000
  H   H683      1.0  0.79787  0.31340  0.52174  1.0000
  C   C585      1.0  0.84924  0.57340  0.54902  1.0000
  H   H684      1.0  0.51480  0.42096  0.48656  1.0000
  H   H685      1.0  0.85514  0.57251  0.52518  1.0000
  H   H686      1.0  0.67015  0.46222  0.84821  1.0000
  H   H687      1.0  0.67657  0.44884  0.88423  1.0000
  H   H688      1.0  0.60107  0.41754  0.82702  1.0000
  S   S153      1.0  0.93013  0.61698  0.58462  1.0000
  H   H689      1.0  0.63627  0.41581  0.90337  1.0000
  H   H690      1.0  0.54576  0.49723  0.57191  1.0000
  C   C586      1.0  0.79389  0.52164  0.56734  1.0000
  H   H691      1.0  0.88192  0.51524  0.56754  1.0000
  H   H692      1.0  0.74721  0.49991  0.56760  1.0000
  C   C587      1.0  0.76800  0.50713  0.55433  1.0000
  S   S154      1.0  0.58240  0.50303  0.97418  1.0000
  H   H693      1.0  0.60355  0.40312  0.87937  1.0000
  H   H694      1.0  0.80506  0.35133  0.49309  1.0000
  H   H695      1.0  0.60138  0.43534  0.89222  1.0000
  Fe  Fe78      1.0  0.64616  0.49517  0.47995  1.0000
  H   H696      1.0  0.55752  0.49402  0.82495  1.0000
  H   H697      1.0  0.69307  0.34831  0.85971  1.0000
  C   C588      1.0  0.65715  0.45283  0.86699  1.0000
  H   H698      1.0  0.97462  0.62735  0.70101  1.0000
  C   C589      1.0  0.50243  0.47081  0.87572  1.0000
  H   H699      1.0  0.99857  0.59719  0.58382  1.0000
  H   H700      1.0  0.63929  0.46752  0.87585  1.0000
  C   C590      1.0  0.69065  0.36707  0.84957  1.0000
  S   S155      1.0  0.85134  0.31998  0.83168  1.0000
  H   H701      1.0  0.62696  0.44404  0.81530  1.0000
  H   H702      1.0  0.73774  0.56661  0.48196  1.0000
  H   H703      1.0  0.79162  0.52493  0.59069  1.0000
  C   C591      1.0  0.71261  0.37385  0.82690  1.0000
  N   N39       1.0  0.63907  0.42896  0.85843  1.0000
  H   H704      1.0  0.72721  0.40315  0.79628  1.0000
  S   S156      1.0  0.68385  0.52923  0.48381  1.0000
  C   C592      1.0  0.79372  0.51286  0.50674  1.0000
  C   C593      1.0  0.52705  0.48421  0.58090  1.0000
  C   C594      1.0  0.77918  0.35233  0.97235  1.0000
  C   C595      1.0  0.76777  0.50291  0.52411  1.0000
  H   H705      1.0  0.83940  0.53452  0.50508  1.0000
  H   H706      1.0  0.79746  0.35283  0.95461  1.0000
  C   C596      1.0  0.50863  0.49109  0.60650  1.0000
  H   H707      1.0  0.51359  0.50939  0.61688  1.0000
  H   H708      1.0  0.78396  0.31316  0.93137  1.0000
  H   H709      1.0  0.64770  0.58653  0.48627  1.0000
  H   H710      1.0  0.83419  0.32131  0.96201  1.0000
  S   S157      1.0  0.93846  0.30841  0.87729  1.0000
  H   H711      1.0  0.79300  0.50989  0.48315  1.0000
  H   H712      1.0  0.77287  0.32898  0.48044  1.0000
  H   H713      1.0  0.90269  0.63864  0.72025  1.0000
  Fe  Fe79      1.0  0.82153  0.68092  0.07955  1.0000
  S   S158      1.0  0.81417  0.71769  0.05401  1.0000
  Fe  Fe80      1.0  0.82963  0.66200  0.14228  1.0000
  S   S159      1.0  0.82727  0.66869  0.19230  1.0000
  S   S160      1.0  0.86561  0.68165  0.11114  1.0000
  S   S161      1.0  0.78432  0.66362  0.11169  1.0000
  C   C597      1.0  0.97087  0.65982  0.10642  1.0000
  S   S162      1.0  0.59568  0.94526  0.46242  1.0000
  C   C598      1.0  0.98156  0.74487  0.27605  1.0000
  H   H714      1.0  0.79822  0.81295  0.31114  1.0000
  H   H715      1.0  0.94618  0.77297  0.23829  1.0000
  S   S163      1.0  0.68202  0.90277  0.46294  1.0000
  Fe  Fe81      1.0  0.84076  0.77179  0.32536  1.0000
  S   S164      1.0  0.86491  0.80819  0.34243  1.0000
  S   S165      1.0  0.83907  0.76829  0.27506  1.0000
  Fe  Fe82      1.0  0.82814  0.75276  0.38820  1.0000
  S   S166      1.0  0.85085  0.78779  0.40933  1.0000
  S   S167      1.0  0.81028  0.71733  0.41247  1.0000
  Fe  Fe83      1.0  0.82125  0.81006  0.37502  1.0000
  S   S168      1.0  0.79243  0.84887  0.37793  1.0000
  Fe  Fe84      1.0  0.89205  0.78305  0.37513  1.0000
  S   S169      1.0  0.94766  0.77785  0.38833  1.0000
  S   S170      1.0  0.79591  0.77485  0.35598  1.0000
  S   S171      1.0  0.87059  0.74680  0.35596  1.0000
  H   H716      1.0  0.93302  0.74023  0.23296  1.0000
  H   H717      1.0  0.57692  0.94921  0.08899  1.0000
  Fe  Fe85      1.0  0.59599  0.96328  0.00242  1.0000
  Fe  Fe86      1.0  0.65299  0.94139  0.46627  1.0000
  H   H718      1.0  0.96176  0.82306  0.35214  1.0000
  C   C599      1.0  0.71191  0.88796  0.43834  1.0000
  C   C600      1.0  0.72397  0.86304  0.44471  1.0000
  C   C601      1.0  0.74837  0.85076  0.42664  1.0000
  C   C602      1.0  0.76138  0.86325  0.40179  1.0000
  C   C603      1.0  0.74938  0.88821  0.39544  1.0000
  C   C604      1.0  0.72491  0.90046  0.41347  1.0000
  C   C605      1.0  0.57873  0.94055  0.32019  1.0000
  H   H719      1.0  0.75718  0.83165  0.43203  1.0000
  H   H720      1.0  0.75915  0.89819  0.37638  1.0000
  H   H721      1.0  0.71614  0.91959  0.40811  1.0000
  C   C606      1.0  0.98420  0.78846  0.36926  1.0000
  H   H722      1.0  0.92758  0.71103  0.27437  1.0000
  H   H723      1.0  0.71436  0.85309  0.46387  1.0000
  H   H724      1.0  0.87397  0.68415  0.99377  1.0000
  H   H725      1.0  0.76106  0.96957  0.45128  1.0000
  C   C607      1.0  0.55908  0.93868  0.29463  1.0000
  S   S172      1.0  0.54797  0.96625  0.03197  1.0000
  H   H726      1.0  0.70158  0.82810  0.27238  1.0000
  H   H727      1.0  0.74656  0.81669  0.34366  1.0000
  C   C608      1.0  0.81642  0.71681  0.01535  1.0000
  H   H728      1.0  0.70480  0.65347  0.46484  1.0000
  C   C609      1.0  0.74239  0.79043  0.29055  1.0000
  C   C610      1.0  0.81548  0.71687  0.45098  1.0000
  H   H729      1.0  0.94823  0.66868  0.11529  1.0000
  H   H730      1.0  0.90052  0.67909  0.05404  1.0000
  H   H731      1.0  0.79645  0.67851  0.01111  1.0000
  H   H732      1.0  0.82172  0.67580  0.45276  1.0000
  H   H733      1.0  0.80958  0.75766  0.45653  1.0000
  C   C611      1.0  0.56326  0.95633  0.27101  1.0000
  C   C612      1.0  0.83100  0.69674  0.21476  1.0000
  C   C613      1.0  0.83540  0.72136  0.20297  1.0000
  C   C614      1.0  0.83786  0.74293  0.22174  1.0000
  C   C615      1.0  0.83606  0.74027  0.25254  1.0000
  C   C616      1.0  0.83181  0.71567  0.26436  1.0000
  C   C617      1.0  0.82926  0.69412  0.24559  1.0000
  H   H734      1.0  0.83673  0.72377  0.17937  1.0000
  H   H735      1.0  0.84106  0.76183  0.21225  1.0000
  H   H736      1.0  0.83017  0.71322  0.28794  1.0000
  H   H737      1.0  0.82579  0.67522  0.25501  1.0000
  H   H738      1.0  0.89470  0.65698  0.00958  1.0000
  H   H739      1.0  0.71695  0.77997  0.33192  1.0000
  C   C618      1.0  0.81995  0.69330  0.46548  1.0000
  H   H740      1.0  0.89850  0.73191  0.29211  1.0000
  H   H741      1.0  0.54016  0.92367  0.29433  1.0000
  C   C619      1.0  0.82774  0.73861  0.00013  1.0000
  H   H742      1.0  0.83588  0.75539  0.01226  1.0000
  H   H743      1.0  0.53116  0.94962  0.38931  1.0000
  Fe  Fe87      1.0  0.87713  0.64260  0.09280  1.0000
  C   C620      1.0  0.92844  0.71740  0.99822  1.0000
  C   C621      1.0  0.92613  0.72781  0.28938  1.0000
  H   H744      1.0  0.92439  0.70773  0.05801  1.0000
  C   C622      1.0  0.81337  0.73944  0.46749  1.0000
  C   C623      1.0  0.73650  0.73696  0.27918  1.0000
  H   H745      1.0  0.78834  0.84530  0.30127  1.0000
  C   C624      1.0  0.98468  0.81167  0.35380  1.0000
  C   C625      1.0  0.73354  0.82672  0.32519  1.0000
  C   C626      1.0  0.95525  0.67908  0.01762  1.0000
  C   C627      1.0  0.74280  0.74595  0.01650  1.0000
  C   C628      1.0  0.51064  0.96515  0.45667  1.0000
  C   C629      1.0  0.75425  0.77938  0.26392  1.0000
  H   H746      1.0  0.50449  0.93246  0.22160  1.0000
  H   H747      1.0  0.96015  0.73361  0.03298  1.0000
  C   C630      1.0  0.93162  0.75685  0.24825  1.0000
  H   H748      1.0  0.97568  0.71155  0.24730  1.0000
  H   H749      1.0  0.58244  0.93525  0.22005  1.0000
  H   H750      1.0  0.90872  0.77604  0.29883  1.0000
  H   H751      1.0  0.58245  0.96949  0.21484  1.0000
  H   H752      1.0  0.00052  0.77671  0.30327  1.0000
  H   H753      1.0  0.76160  0.74495  0.23833  1.0000
  N   N40       1.0  0.92246  0.69266  0.01347  1.0000
  H   H754      1.0  0.94822  0.79069  0.28982  1.0000
  C   C631      1.0  0.75108  0.79425  0.99093  1.0000
  H   H755      1.0  0.94515  0.76869  0.32065  1.0000
  H   H756      1.0  0.53225  0.91436  0.24475  1.0000
  C   C632      1.0  0.72403  0.74717  0.30534  1.0000
  H   H757      1.0  0.73799  0.84759  0.32913  1.0000
  C   C633      1.0  0.75127  0.75307  0.25841  1.0000
  H   H758      1.0  0.71294  0.73448  0.32162  1.0000
  H   H759      1.0  0.73521  0.71646  0.27514  1.0000
  H   H760      1.0  0.97240  0.68940  0.03302  1.0000
  C   C634      1.0  0.80566  0.69527  0.99954  1.0000
  H   H761      1.0  0.76711  0.79082  0.24753  1.0000
  N   N41       1.0  0.54298  0.95503  0.24357  1.0000
  C   C635      1.0  0.51887  0.93309  0.24274  1.0000
  H   H762      1.0  0.93621  0.72183  0.31124  1.0000
  H   H763      1.0  0.88350  0.70898  0.04078  1.0000
  C   C636      1.0  0.72661  0.77352  0.31099  1.0000
  H   H764      1.0  0.90443  0.76269  0.24888  1.0000
  C   C637      1.0  0.53640  0.95322  0.12104  1.0000
  H   H765      1.0  0.72767  0.94676  0.45813  1.0000
  C   C638      1.0  0.78361  0.82485  0.29531  1.0000
  N   N42       1.0  0.74692  0.81827  0.29620  1.0000
  H   H766      1.0  0.76431  0.91144  0.46887  1.0000
  H   H767      1.0  0.74070  0.72707  0.02646  1.0000
  H   H768      1.0  0.57454  0.92735  0.33828  1.0000
  S   S173      1.0  0.83549  0.64333  0.05880  1.0000
  H   H769      1.0  0.73093  0.85431  0.27731  1.0000
  H   H770      1.0  0.70571  0.82345  0.32708  1.0000
  C   C639      1.0  0.93659  0.77247  0.29768  1.0000
  C   C640      1.0  0.53142  0.96379  0.06876  1.0000
  C   C641      1.0  0.90713  0.69739  0.04276  1.0000
  H   H771      1.0  0.73976  0.82985  0.25093  1.0000
  C   C642      1.0  0.72902  0.83326  0.27318  1.0000
  H   H772      1.0  0.79518  0.82155  0.27336  1.0000
  H   H773      1.0  0.76658  0.80660  0.03416  1.0000
  N   N43       1.0  0.94472  0.75054  0.27799  1.0000
  H   H774      1.0  0.55177  0.94616  0.13902  1.0000
  H   H775      1.0  0.95150  0.65962  0.02730  1.0000
  H   H776      1.0  0.97131  0.77437  0.00792  1.0000
  C   C643      1.0  0.75775  0.79067  0.02085  1.0000
  H   H777      1.0  0.75512  0.81326  0.98200  1.0000
  H   H778      1.0  0.97448  0.79517  0.44768  1.0000
  H   H779      1.0  0.55116  0.95042  0.19694  1.0000
  C   C644      1.0  0.95570  0.75989  0.99735  1.0000
  C   C645      1.0  0.52554  0.96266  0.37149  1.0000
  H   H780      1.0  0.52902  0.96505  0.43811  1.0000
  C   C646      1.0  0.74534  0.96061  0.46883  1.0000
  C   C647      1.0  0.56585  0.95246  0.21782  1.0000
  C   C648      1.0  0.75368  0.76655  0.03359  1.0000
  H   H781      1.0  0.75976  0.76356  0.05662  1.0000
  C   C649      1.0  0.55085  0.95498  0.09256  1.0000
  C   C650      1.0  0.94910  0.73654  0.01148  1.0000
  S   S174      1.0  0.65257  0.96589  0.01121  1.0000
  H   H782      1.0  0.98866  0.73164  0.43743  1.0000
  C   C651      1.0  0.89930  0.67514  0.99723  1.0000
  H   H783      1.0  0.96873  0.67662  0.99630  1.0000
  C   C652      1.0  0.73638  0.74922  0.98649  1.0000
  C   C653      1.0  0.60256  0.96012  0.32327  1.0000
  C   C654      1.0  0.99328  0.72390  0.25885  1.0000
  C   C655      1.0  0.99921  0.79261  0.45796  1.0000
  H   H784      1.0  0.52536  0.96231  0.47734  1.0000
  H   H785      1.0  0.79886  0.93124  0.45783  1.0000
  H   H786      1.0  0.61669  0.96208  0.34366  1.0000
  C   C656      1.0  0.78341  0.92545  0.47722  1.0000
  C   C657      1.0  0.96797  0.63932  0.08676  1.0000
  Fe  Fe88      1.0  0.82816  0.67783  0.57722  1.0000
  S   S175      1.0  0.81741  0.71412  0.55166  1.0000
  Fe  Fe89      1.0  0.83315  0.65956  0.64085  1.0000
  S   S176      1.0  0.83228  0.66539  0.69108  1.0000
  S   S177      1.0  0.87125  0.67701  0.60983  1.0000
  S   S178      1.0  0.78910  0.66314  0.60928  1.0000
  C   C658      1.0  0.70989  0.68002  0.54752  1.0000
  C   C659      1.0  0.00158  0.78098  0.48545  1.0000
  H   H787      1.0  0.77810  0.91635  0.73419  1.0000
  H   H788      1.0  0.00137  0.69254  0.51912  1.0000
  C   C660      1.0  0.92173  0.74648  0.95599  1.0000
  H   H789      1.0  0.97230  0.74223  0.72318  1.0000
  Fe  Fe90      1.0  0.84955  0.76937  0.82525  1.0000
  S   S179      1.0  0.86683  0.80835  0.84174  1.0000
  S   S180      1.0  0.84951  0.76393  0.77489  1.0000
  Fe  Fe91      1.0  0.83580  0.75143  0.88845  1.0000
  S   S181      1.0  0.85243  0.78856  0.90878  1.0000
  S   S182      1.0  0.81538  0.71779  0.91458  1.0000
  Fe  Fe92      1.0  0.82189  0.80752  0.87299  1.0000
  S   S183      1.0  0.78114  0.83957  0.87660  1.0000
  Fe  Fe93      1.0  0.89568  0.78611  0.87620  1.0000
  S   S184      1.0  0.94908  0.79114  0.89484  1.0000
  S   S185      1.0  0.80299  0.77007  0.85398  1.0000
  S   S186      1.0  0.88081  0.74749  0.85831  1.0000
  H   H790      1.0  0.94716  0.78292  0.95864  1.0000
  H   H791      1.0  0.92956  0.67337  0.65188  1.0000
  H   H792      1.0  0.71006  0.69394  0.49004  1.0000
  H   H793      1.0  0.97871  0.77475  0.49666  1.0000
  H   H794      1.0  0.96256  0.79745  0.83188  1.0000
  C   C661      1.0  0.72253  0.88831  0.94606  1.0000
  C   C662      1.0  0.74986  0.87242  0.95469  1.0000
  C   C663      1.0  0.76842  0.85778  0.93392  1.0000
  C   C664      1.0  0.75951  0.85827  0.90407  1.0000
  C   C665      1.0  0.73219  0.87414  0.89544  1.0000
  C   C666      1.0  0.71397  0.88909  0.91615  1.0000
  C   C667      1.0  0.70914  0.79900  0.93671  1.0000
  H   H795      1.0  0.78992  0.84647  0.94105  1.0000
  H   H796      1.0  0.72495  0.87490  0.87252  1.0000
  H   H797      1.0  0.69307  0.90108  0.90900  1.0000
  C   C668      1.0  0.72068  0.75482  0.92548  1.0000
  S   S187      1.0  0.69962  0.90599  0.97363  1.0000
  C   C669      1.0  0.75790  0.65453  0.53261  1.0000
  H   H798      1.0  0.93104  0.70765  0.71851  1.0000
  H   H799      1.0  0.55231  0.93495  0.83778  1.0000
  H   H800      1.0  0.50744  0.95552  0.72082  1.0000
  C   C670      1.0  0.53688  0.95231  0.61898  1.0000
  H   H801      1.0  0.84938  0.81847  0.77408  1.0000
  H   H802      1.0  0.72672  0.92311  0.50691  1.0000
  C   C671      1.0  0.81903  0.71481  0.51289  1.0000
  H   H803      1.0  0.79896  0.79790  0.79503  1.0000
  C   C672      1.0  0.91617  0.66803  0.67244  1.0000
  C   C673      1.0  0.81686  0.71764  0.95336  1.0000
  C   C674      1.0  0.51064  0.95818  0.82176  1.0000
  C   C675      1.0  0.75599  0.91101  0.77691  1.0000
  H   H804      1.0  0.82603  0.67410  0.50720  1.0000
  H   H805      1.0  0.73779  0.90052  0.81984  1.0000
  H   H806      1.0  0.83712  0.75584  0.95789  1.0000
  H   H807      1.0  0.96482  0.71263  0.48275  1.0000
  C   C676      1.0  0.83715  0.69314  0.71385  1.0000
  C   C677      1.0  0.84328  0.71764  0.70232  1.0000
  C   C678      1.0  0.84720  0.73893  0.72133  1.0000
  C   C679      1.0  0.84515  0.73611  0.75212  1.0000
  C   C680      1.0  0.83949  0.71156  0.76365  1.0000
  C   C681      1.0  0.83552  0.69028  0.74463  1.0000
  H   H808      1.0  0.84466  0.72025  0.67875  1.0000
  H   H809      1.0  0.85162  0.75776  0.71207  1.0000
  H   H810      1.0  0.83781  0.70897  0.78721  1.0000
  H   H811      1.0  0.83081  0.67147  0.75389  1.0000
  H   H812      1.0  0.81212  0.75584  0.51101  1.0000
  C   C682      1.0  0.75142  0.89421  0.80040  1.0000
  C   C683      1.0  0.52159  0.96282  0.74024  1.0000
  C   C684      1.0  0.74470  0.93801  0.51516  1.0000
  H   H813      1.0  0.79965  0.91469  0.49303  1.0000
  H   H814      1.0  0.79774  0.82473  0.81897  1.0000
  C   C685      1.0  0.96626  0.67973  0.69946  1.0000
  Fe  Fe94      1.0  0.66004  0.93896  0.97208  1.0000
  Fe  Fe95      1.0  0.60591  0.96656  0.93453  1.0000
  C   C686      1.0  0.80572  0.69577  0.96862  1.0000
  C   C687      1.0  0.77417  0.90309  0.75227  1.0000
  H   H815      1.0  0.68504  0.79504  0.94866  1.0000
  C   C688      1.0  0.51435  0.93178  0.95517  1.0000
  S   S188      1.0  0.57866  0.95860  0.89021  1.0000
  H   H816      1.0  0.74576  0.93032  0.77800  1.0000
  C   C689      1.0  0.91479  0.72312  0.96995  1.0000
  H   H817      1.0  0.74894  0.67692  0.48125  1.0000
  H   H818      1.0  0.77082  0.64406  0.51445  1.0000
  H   H819      1.0  0.68416  0.68726  0.54159  1.0000
  H   H820      1.0  0.72566  0.69681  0.55437  1.0000
  H   H821      1.0  0.70296  0.80196  0.91303  1.0000
  N   N44       1.0  0.79892  0.83469  0.77295  1.0000
  C   C690      1.0  0.78836  0.81759  0.79743  1.0000
  C   C691      1.0  0.78965  0.82151  0.74510  1.0000
  C   C692      1.0  0.94208  0.76481  0.96964  1.0000
  C   C693      1.0  0.78323  0.86052  0.77437  1.0000
  C   C694      1.0  0.78780  0.87830  0.75101  1.0000
  C   C695      1.0  0.76481  0.86935  0.79932  1.0000
  H   H822      1.0  0.77562  0.66952  0.54086  1.0000
  H   H823      1.0  0.52786  0.93271  0.97672  1.0000
  C   C696      1.0  0.82705  0.96409  0.50112  1.0000
  H   H824      1.0  0.76025  0.81555  0.79849  1.0000
  H   H825      1.0  0.94903  0.66830  0.60436  1.0000
  C   C697      1.0  0.69517  0.64112  0.48198  1.0000
  H   H826      1.0  0.80035  0.83108  0.72538  1.0000
  H   H827      1.0  0.76156  0.82043  0.74246  1.0000
  H   H828      1.0  0.79971  0.80144  0.74448  1.0000
  C   C698      1.0  0.82230  0.69230  0.49633  1.0000
  H   H829      1.0  0.72931  0.73217  0.97447  1.0000
  H   H830      1.0  0.84654  0.84853  0.75531  1.0000
  H   H831      1.0  0.80251  0.87331  0.73180  1.0000
  H   H832      1.0  0.76076  0.85760  0.81858  1.0000
  H   H833      1.0  0.53448  0.93215  0.93793  1.0000
  C   C699      1.0  0.00037  0.67716  0.68957  1.0000
  H   H834      1.0  0.83867  0.94806  0.48996  1.0000
  H   H835      1.0  0.55042  0.94094  0.63508  1.0000
  H   H836      1.0  0.50533  0.94576  0.80331  1.0000
  C   C700      1.0  0.98703  0.79375  0.87398  1.0000
  H   H837      1.0  0.74914  0.70142  0.50825  1.0000
  H   H838      1.0  0.71593  0.75879  0.90175  1.0000
  C   C701      1.0  0.70286  0.64512  0.51222  1.0000
  C   C702      1.0  0.98659  0.79690  0.84343  1.0000
  N   N45       1.0  0.73399  0.77784  0.94101  1.0000
  H   H839      1.0  0.93902  0.64947  0.74118  1.0000
  H   H840      1.0  0.53220  0.94589  0.75203  1.0000
  C   C703      1.0  0.83638  0.83748  0.77425  1.0000
  C   C704      1.0  0.54446  0.96756  0.86615  1.0000
  C   C705      1.0  0.74012  0.77362  0.97279  1.0000
  C   C706      1.0  0.82825  0.73895  0.96925  1.0000
  H   H841      1.0  0.77806  0.80232  0.93653  1.0000
  H   H842      1.0  0.69626  0.74821  0.93518  1.0000
  H   H843      1.0  0.70751  0.66796  0.56757  1.0000
  C   C707      1.0  0.53724  0.95201  0.84154  1.0000
  C   C708      1.0  0.92148  0.65452  0.72287  1.0000
  S   S189      1.0  0.66305  0.97089  0.93883  1.0000
  C   C709      1.0  0.55179  0.95654  0.59101  1.0000
  H   H844      1.0  0.91116  0.75053  0.93439  1.0000
  S   S190      1.0  0.60341  0.93356  0.96664  1.0000
  H   H845      1.0  0.75404  0.64059  0.55085  1.0000
  C   C710      1.0  0.95686  0.70385  0.71160  1.0000
  C   C711      1.0  0.98027  0.72394  0.71407  1.0000
  C   C712      1.0  0.76632  0.78500  0.92663  1.0000
  H   H846      1.0  0.57947  0.94917  0.71639  1.0000
  H   H847      1.0  0.79676  0.67924  0.95646  1.0000
  H   H848      1.0  0.57645  0.94851  0.58601  1.0000
  C   C713      1.0  0.81475  0.73836  0.49835  1.0000
  H   H849      1.0  0.75704  0.87174  0.97765  1.0000
  C   C714      1.0  0.50459  0.96232  0.62617  1.0000
  H   H850      1.0  0.78518  0.76916  0.92840  1.0000
  H   H851      1.0  0.84434  0.84762  0.79471  1.0000
  H   H852      1.0  0.90596  0.67125  0.72989  1.0000
  S   S191      1.0  0.65482  0.96456  0.50867  1.0000
  N   N46       1.0  0.72552  0.66599  0.52251  1.0000
  H   H853      1.0  0.89835  0.71008  0.95814  1.0000
  C   C715      1.0  0.97168  0.65660  0.60383  1.0000
  H   H854      1.0  0.76256  0.78940  0.90292  1.0000
  H   H855      1.0  0.71890  0.81783  0.94453  1.0000
  H   H856      1.0  0.73935  0.73866  0.92601  1.0000
  H   H857      1.0  0.55507  0.96404  0.68841  1.0000
  C   C716      1.0  0.56994  0.96816  0.70879  1.0000
  N   N47       1.0  0.94046  0.65937  0.69519  1.0000
  C   C717      1.0  0.73354  0.68529  0.49941  1.0000
  H   H858      1.0  0.90143  0.68518  0.67953  1.0000
  H   H859      1.0  0.76000  0.92922  0.53312  1.0000
  N   N48       1.0  0.76687  0.94794  0.49135  1.0000
  H   H860      1.0  0.61480  0.96693  0.74933  1.0000
  C   C718      1.0  0.53463  0.97087  0.56952  1.0000
  H   H861      1.0  0.72863  0.95326  0.52506  1.0000
  Fe  Fe96      1.0  0.59824  0.97141  0.50233  1.0000
  C   C719      1.0  0.79118  0.96685  0.50360  1.0000
  H   H862      1.0  0.89732  0.65280  0.66700  1.0000
  S   S192      1.0  0.83944  0.63921  0.55755  1.0000
  H   H863      1.0  0.90993  0.66961  0.97548  1.0000
  H   H864      1.0  0.50266  0.97196  0.75506  1.0000
  C   C720      1.0  0.99207  0.71207  0.47909  1.0000
