data_image0
_chemical_formula_structural       SCFeSCH2C4H2CFeSFeS3FeS2FeS2FeSFeS3C6H4C6H4C2H6SH3C5FeH3CHSHC6H5CHCHCNC3H3CH13CH2CSHC2SHCH2C2HNC2H6CH2CNFeH2NC4HCFeHSC2HCHCHC2H3C2SNC9H15CHSHCHCH5CH2CHCHCHFeCSHCH2SH3CHCHCHSCFeS2HSNC2FeSFeS3FeS2FeS2FeSFeS3C6H4C6H4C2H4C2H2C6H5C2HCHCHCHC2H3NHC2HCHCHCHCSH2C4HCFeH2CHNCH5NC9H14C2H2CSCH13CH3NC5HC2SHCS2HCHSHCH2CFeHSHCHFeHCSFeC2HCNCH3C2FeS2FeS2FeSFeS3H2C2HSFeSFeS3HFeSHSHSCHCH3NCHC6H4C2H3C6H4C6H6CHNSHCH2C2HFeCHSHNC5H3CH3CH2Fe2HC2H3C3HSH2C2HCNH2C4HC2H2CH2NC9H17CSCHNC7HSFeH2SH3C2HCHCSH2CH4FeCHC2H3CH2CHCSC2FeC2FeH3CH2CH2CSCH3SCH2CSHFeSFeS2FeS2H2NCHCFeS2FeS2FeSFeS3HC3SH2C2FeHS2H2CHC2H3CH3C2H2C2HC2HSC6H4C6H4C6H5NCHC4HCH2SH8NSC5H8CNC9H14C4NC5H4CH2CH3S2H3C3H6NC3H7CH5CFeCHSHSHFeC3SCFeSC2H2C3HFeHFeSFeS3FeS2FeS2FeSFeS3C6H4C6H4C3H3CH3C3FeC2H4CH4C6H5CHSHNC5H3CH7NC9H11CH3CFeH3CH5CH2SHCHSCH3NC4HCH2CH9CH2SCNHNC6SH5C2NH2CHCHCHSHCH4CH3NC8HCSHCH3CHC2HCHS2FeHC2H3CSHC3SC3H2C2SCFeSNHSC3FeSFeS3FeS2FeS2FeSFeS3C6H4C6H5CH3C3FeHC6H4SH6CH2CH2CHNC2H2CHSNH2C2H2C2HCH4CHC3HC4H2CH2CHC2H3CHNC7SH2CH2CH7SH6CHNC9H13NC5HSC2H9FeH3CHCHCH2C2FeH2FeHSCHCFeHCSHCHSHSCH3FeHC3H4CHCFeS2FeS2FeSFeS3HCHC3FeSFeS3HFeSHSH4CH2CHC8H4C2H2C7H4C6H4CSHCHC2H4CH3C2HNCHC4H8CH2CHCH3CH2CSHCSH2CH3NCHFeH2CHC2H2CH2SC4SHSHNH3CHNH3N2C7HCH2CH10C2HCH3CHC2H2CSH2CHFeCSCFeSFeS2FeS2C2H2C2FeS2FeS2FeSFeS3H4CHC2H3C2H4C2H4NH3CFeC2H2CH3C6H4C6H4C6H5C2HCHFeC8HSHC4HCSHCHCH2CHCHC3H3C3H3CHCSCH2CH3CHCFeHC2NC5H7CFeCHNHNH3CHC2NH3CH3FeCH3CS2CHCH2SCHC3HSH5FeCSH4CFeC2HCHCFeHSCHSC4FeHCSHFeS2FeS2FeSFeS3FeH4CFeSFeS3C6H4C6H4NCHCH2C2H2CHCH2CH2S2NHFeC8H4CSC6NC10H8CH4CHC2HCH2NC7HCH11CSCNC9H12CNH2C2HC2H4FeCSH2C2SCHCH2CHSH4CH2CH2C3SHSC2H3C2H6SCH2CFe2H3C2FeCHCH2C2HSCHCHCH4FeHSC2H2SC2HCH2FeSFeSCSFeS2FeS2FeSFeS3CHCH2CH3C7H4C6H4C6H4CH2C3HCH2CH3CHCH6C2NH2C2HCHC8HCN2H4SH6FeH2FeCFeCH3SH2C2H5C2NCH2C2H2C2HNCHNCSH3CHC2HCHSC2H2CHFeSCHS2HCH2SHCH2C2HCHSCNH6CHCH5CH4CHCSHCHCH3C2H2C6H2SHCSCHFeC2FeCSH2FeS2FeS2HCH3CFeS2FeS2FeSFeS4C2HFeSHCSH2C6H4C6H4C6H4C3HCH2C5HC2SH2FeHCHNC4H7CH2NHC3H6CH2C2H2CFeNC4SHCHCH12C2HCHNC9H11CHSNC9H15CSH2C2SHC2FeS2C3SH2SHSHCH3SH2SHFeS2FeS2FeSFeS3FeS2FeS2C7HCHSCH4CHSC2H4NC2H3C6H4C6H4C6H4CHS2H3CH2C4H2C2HC4H3CH3CHSHSH4NC5S2HCH4CHSC2HCHCNC9H7FeH8CHFeCHCH5C2NH2CH2CFeHC4H2CNC4HFeH2CHC3NHCSCHCH2CFeHCHSC2H5CH3CH2SCFeHCHFe2SCHS2NC2H2CH2FeS2FeS2FeSFeS3H4C2FeSFeS3C6H4C6H4CHC3FeC3H3C2H5NSCHCHC6H4CH2CSNC9H13CSH4NCHCHSHCH2CHC3H2C2NC9HCH2SH6FeHC2H2C4H2CH4CHCH3CHCHNH5CHSCHCFeCH9SFeC2HC2H2FeS2H4SCSCH2Fe2SFeSCSFeS2FeS2FeSFeS3HC2H4CH2C6H4C6H4C6H7CHCNHFeCHC2HNCSH2CSCH3C2H2FeHSCH2CSC3H3SC2H2CNC9H15C2HSH3N2HCH2C2HC4HCH2C2HC3H2CHCH3CSCH4C3HCH2C3H2CFeH2C4HCH2CH3CH2CNHCFeCH2C2HCH7CHSCHSHCHCFeS2FeS3H5FeS2FeS2FeSFeS4HN2FeSCFeH2C7H4C6H4C6H4C2H2C2NCH3C2H4CHCH3CFeCHCHC2HCH4CHCHCSC3H2C4H2CH2SH2C2NC6H2SH11CHCNC2H4CH2CH3NC9H9C3FeH2CH2FeH2C2H4CH2C3HCH2SH4CS2FeC4HC2Fe2HCSHFeCSC2SHFeS2FeS2FeSFeS3FeS2FeS2CH3CH3C2NHCH3CHC3H2C2HCHCH2C6H4C6H4C6H4SCH2NHC3NC4H3CSH8NH2CH3SH3CH4CHC3HCHFeH5NC9H14NC4HFeCSH7CH2C2SHSCSCHCHC3HCFeCHCH4CH2C2HCSHCHCHC2H2C2SH2FeHCHCNH3C3HCFeCS
_chemical_formula_sum              "S384 C1440 Fe192 H1728 N96"
_cell_length_a       55.4197
_cell_length_b       46.15
_cell_length_c       76.0537
_cell_angle_alpha    90.0736
_cell_angle_beta     90.1402
_cell_angle_gamma    89.7663

_space_group_name_H-M_alt    "P 1"
_space_group_IT_number       1

loop_
  _space_group_symop_operation_xyz
  'x, y, z'

loop_
  _atom_site_type_symbol
  _atom_site_label
  _atom_site_symmetry_multiplicity
  _atom_site_fract_x
  _atom_site_fract_y
  _atom_site_fract_z
  _atom_site_occupancy
  S   S1        1.0  0.01867  0.25868  0.22872  1.0000
  C   C1        1.0  0.12584  0.35157  0.21081  1.0000
  Fe  Fe1       1.0  0.01305  0.27236  0.20057  1.0000
  S   S2        1.0  0.04121  0.28952  0.18131  1.0000
  C   C2        1.0  0.39221  0.03102  0.16724  1.0000
  H   H1        1.0  0.41540  0.42182  0.19543  1.0000
  H   H2        1.0  0.24792  0.37278  0.02678  1.0000
  C   C3        1.0  0.27417  0.09692  0.05192  1.0000
  C   C4        1.0  0.42365  0.39931  0.22928  1.0000
  C   C5        1.0  0.40519  0.35100  0.22822  1.0000
  C   C6        1.0  0.42333  0.45084  0.23601  1.0000
  H   H3        1.0  0.17167  0.17242  0.02871  1.0000
  H   H4        1.0  0.15618  0.19265  0.06347  1.0000
  C   C7        1.0  0.33589  0.02622  0.03395  1.0000
  Fe  Fe2       1.0  0.28187  0.04203  0.10456  1.0000
  S   S3        1.0  0.24801  0.06915  0.10941  1.0000
  Fe  Fe3       1.0  0.29709  0.47415  0.10236  1.0000
  S   S4        1.0  0.28907  0.42679  0.09599  1.0000
  S   S5        1.0  0.31898  0.06026  0.10166  1.0000
  S   S6        1.0  0.33647  0.48692  0.10123  1.0000
  Fe  Fe4       1.0  0.19279  0.29843  0.11119  1.0000
  S   S7        1.0  0.15360  0.28912  0.10494  1.0000
  S   S8        1.0  0.20485  0.34278  0.12133  1.0000
  Fe  Fe5       1.0  0.20788  0.23472  0.10650  1.0000
  S   S9        1.0  0.17015  0.22099  0.10032  1.0000
  S   S10       1.0  0.24189  0.20701  0.10373  1.0000
  Fe  Fe6       1.0  0.16860  0.26077  0.08330  1.0000
  S   S11       1.0  0.15187  0.25261  0.05645  1.0000
  Fe  Fe7       1.0  0.15807  0.25024  0.12247  1.0000
  S   S12       1.0  0.13151  0.23156  0.14252  1.0000
  S   S13       1.0  0.20717  0.27308  0.08818  1.0000
  S   S14       1.0  0.19637  0.26095  0.13005  1.0000
  C   C8        1.0  0.26387  0.40533  0.10208  1.0000
  C   C9        1.0  0.24923  0.41250  0.11640  1.0000
  C   C10       1.0  0.23100  0.39331  0.12191  1.0000
  C   C11       1.0  0.22691  0.36701  0.11301  1.0000
  C   C12       1.0  0.24099  0.36031  0.09832  1.0000
  C   C13       1.0  0.25956  0.37920  0.09303  1.0000
  H   H5        1.0  0.25237  0.43242  0.12353  1.0000
  H   H6        1.0  0.22011  0.39875  0.13324  1.0000
  H   H7        1.0  0.23768  0.34052  0.09116  1.0000
  H   H8        1.0  0.27081  0.37344  0.08195  1.0000
  C   C14       1.0  0.24701  0.10758  0.10832  1.0000
  C   C15       1.0  0.26651  0.12379  0.10216  1.0000
  C   C16       1.0  0.26468  0.15421  0.10095  1.0000
  C   C17       1.0  0.24335  0.16873  0.10579  1.0000
  C   C18       1.0  0.22385  0.15257  0.11197  1.0000
  C   C19       1.0  0.22571  0.12215  0.11323  1.0000
  H   H9        1.0  0.28300  0.11290  0.09835  1.0000
  H   H10       1.0  0.27992  0.16650  0.09624  1.0000
  H   H11       1.0  0.20739  0.16346  0.11590  1.0000
  H   H12       1.0  0.21055  0.10980  0.11807  1.0000
  C   C20       1.0  0.18498  0.28330  0.03668  1.0000
  C   C21       1.0  0.16507  0.26484  0.03666  1.0000
  H   H13       1.0  0.41493  0.45856  0.20217  1.0000
  H   H14       1.0  0.19242  0.29083  0.04902  1.0000
  H   H15       1.0  0.26544  0.13875  0.06260  1.0000
  H   H16       1.0  0.22134  0.05998  0.05310  1.0000
  H   H17       1.0  0.08218  0.30836  0.25493  1.0000
  H   H18       1.0  0.39134  0.48928  0.10159  1.0000
  S   S15       1.0  0.99548  0.32173  0.25970  1.0000
  H   H19       1.0  0.04926  0.36163  0.25370  1.0000
  H   H20       1.0  0.38300  0.48202  0.13811  1.0000
  H   H21       1.0  0.16527  0.16330  0.07711  1.0000
  C   C22       1.0  0.21457  0.08206  0.05317  1.0000
  C   C23       1.0  0.16424  0.17050  0.06318  1.0000
  C   C24       1.0  0.43364  0.36212  0.25127  1.0000
  C   C25       1.0  0.21030  0.09666  0.03744  1.0000
  C   C26       1.0  0.39076  0.49347  0.14915  1.0000
  Fe  Fe8       1.0  0.47773  0.50173  0.20096  1.0000
  H   H22       1.0  0.17850  0.20668  0.03808  1.0000
  H   H23       1.0  0.42216  0.46566  0.15081  1.0000
  H   H24       1.0  0.39233  0.43469  0.21055  1.0000
  C   C27       1.0  0.04456  0.33396  0.22316  1.0000
  H   H25       1.0  0.21369  0.08452  0.08136  1.0000
  S   S16       1.0  0.33704  0.04740  0.05323  1.0000
  H   H26       1.0  0.19854  0.13418  0.08211  1.0000
  C   C28       1.0  0.10731  0.24872  0.15384  1.0000
  C   C29       1.0  0.09426  0.23275  0.16638  1.0000
  C   C30       1.0  0.07442  0.24509  0.17531  1.0000
  C   C31       1.0  0.06724  0.27352  0.17165  1.0000
  C   C32       1.0  0.08051  0.28966  0.15934  1.0000
  C   C33       1.0  0.10043  0.27737  0.15048  1.0000
  H   H27       1.0  0.09954  0.21061  0.16915  1.0000
  H   H28       1.0  0.06457  0.23245  0.18485  1.0000
  H   H29       1.0  0.07520  0.31174  0.15645  1.0000
  H   H30       1.0  0.11031  0.28996  0.14092  1.0000
  H   H31       1.0  0.99742  0.42506  0.24182  1.0000
  C   C34       1.0  0.09147  0.30761  0.21181  1.0000
  H   H32       1.0  0.02790  0.33624  0.23115  1.0000
  C   C35       1.0  0.41174  0.43605  0.20696  1.0000
  H   H33       1.0  0.30986  0.49313  0.04930  1.0000
  C   C36       1.0  0.10603  0.35408  0.22212  1.0000
  N   N1        1.0  0.01784  0.23147  0.13770  1.0000
  C   C37       1.0  0.02293  0.20822  0.12467  1.0000
  C   C38       1.0  0.03482  0.25553  0.13415  1.0000
  C   C39       1.0  0.02297  0.21946  0.15541  1.0000
  H   H34       1.0  0.39765  0.38380  0.20956  1.0000
  H   H35       1.0  0.44386  0.35553  0.26280  1.0000
  H   H36       1.0  0.14007  0.24107  0.02040  1.0000
  C   C40       1.0  0.30690  0.49464  0.02105  1.0000
  H   H37       1.0  0.38375  0.05058  0.17216  1.0000
  H   H38       1.0  0.07849  0.29018  0.21143  1.0000
  H   H39       1.0  0.02013  0.21599  0.11096  1.0000
  H   H40       1.0  0.04205  0.20068  0.12548  1.0000
  H   H41       1.0  0.01145  0.18885  0.12700  1.0000
  H   H42       1.0  0.03153  0.26520  0.12095  1.0000
  H   H43       1.0  0.05401  0.24816  0.13469  1.0000
  H   H44       1.0  0.03319  0.27336  0.14390  1.0000
  H   H45       1.0  0.00961  0.20255  0.15906  1.0000
  H   H46       1.0  0.04131  0.20956  0.15618  1.0000
  H   H47       1.0  0.02240  0.23634  0.16582  1.0000
  H   H48       1.0  0.28300  0.05812  0.03874  1.0000
  H   H49       1.0  0.21011  0.30732  0.02080  1.0000
  C   C41       1.0  0.40793  0.37886  0.22125  1.0000
  H   H50       1.0  0.44871  0.40434  0.25119  1.0000
  H   H51       1.0  0.21364  0.08572  0.02507  1.0000
  C   C42       1.0  0.26443  0.13870  0.03425  1.0000
  S   S17       1.0  0.28929  0.50222  0.12603  1.0000
  H   H52       1.0  0.06478  0.38087  0.23689  1.0000
  C   C43       1.0  0.20496  0.18865  0.06481  1.0000
  C   C44       1.0  0.45293  0.43105  0.21609  1.0000
  S   S18       1.0  0.46940  0.08023  0.24609  1.0000
  H   H53       1.0  0.46614  0.42819  0.22700  1.0000
  C   C45       1.0  0.19496  0.29261  0.02067  1.0000
  H   H54       1.0  0.29427  0.47691  0.02053  1.0000
  H   H55       1.0  0.45647  0.45266  0.21025  1.0000
  C   C46       1.0  0.31562  0.50398  0.03746  1.0000
  C   C47       1.0  0.99760  0.35996  0.26310  1.0000
  H   H56       1.0  0.48324  0.01351  0.12590  1.0000
  N   N2        1.0  0.42762  0.42873  0.22212  1.0000
  C   C48       1.0  0.42352  0.49882  0.17079  1.0000
  C   C49       1.0  0.20190  0.12532  0.03757  1.0000
  H   H57       1.0  0.04482  0.35179  0.21331  1.0000
  H   H58       1.0  0.04969  0.31023  0.25531  1.0000
  H   H59       1.0  0.99573  0.37215  0.23586  1.0000
  H   H60       1.0  0.20265  0.18521  0.02975  1.0000
  H   H61       1.0  0.22360  0.18766  0.05944  1.0000
  H   H62       1.0  0.43727  0.45018  0.24658  1.0000
  C   C50       1.0  0.08814  0.33209  0.22291  1.0000
  H   H63       1.0  0.20601  0.18206  0.07883  1.0000
  H   H64       1.0  0.42402  0.47326  0.23064  1.0000
  C   C51       1.0  0.15552  0.25532  0.02051  1.0000
  N   N3        1.0  0.06653  0.33426  0.23430  1.0000
  Fe  Fe9       1.0  0.33181  0.02289  0.11846  1.0000
  H   H65       1.0  0.06454  0.28815  0.23945  1.0000
  H   H66       1.0  0.13920  0.36865  0.21027  1.0000
  N   N4        1.0  0.18817  0.17028  0.05446  1.0000
  C   C52       1.0  0.41295  0.48416  0.15646  1.0000
  C   C53       1.0  0.21031  0.09595  0.06911  1.0000
  C   C54       1.0  0.18521  0.18399  0.03692  1.0000
  C   C55       1.0  0.19744  0.14016  0.05367  1.0000
  H   H67       1.0  0.27733  0.08728  0.06476  1.0000
  C   C56       1.0  0.20180  0.12449  0.06940  1.0000
  Fe  Fe10      1.0  0.32221  0.02957  0.07874  1.0000
  H   H68       1.0  0.26002  0.16155  0.03336  1.0000
  S   S19       1.0  0.35607  0.03227  0.14235  1.0000
  C   C57       1.0  0.12844  0.32730  0.20005  1.0000
  C   C58       1.0  0.38267  0.01750  0.15215  1.0000
  H   H69       1.0  0.44874  0.13030  0.26272  1.0000
  C   C59       1.0  0.26763  0.12600  0.05071  1.0000
  H   H70       1.0  0.04267  0.31341  0.21573  1.0000
  C   C60       1.0  0.41805  0.34263  0.24317  1.0000
  H   H71       1.0  0.11329  0.28658  0.19206  1.0000
  C   C61       1.0  0.48242  0.10722  0.25997  1.0000
  C   C62       1.0  0.43635  0.39004  0.24450  1.0000
  H   H72       1.0  0.48136  0.13865  0.22677  1.0000
  H   H73       1.0  0.41919  0.02984  0.18789  1.0000
  H   H74       1.0  0.10506  0.37354  0.22998  1.0000
  C   C63       1.0  0.99823  0.40989  0.25265  1.0000
  C   C64       1.0  0.27712  0.08022  0.03670  1.0000
  S   S20       1.0  0.49034  0.44850  0.25939  1.0000
  N   N5        1.0  0.27919  0.28459  0.11383  1.0000
  C   C65       1.0  0.25629  0.28227  0.12381  1.0000
  C   C66       1.0  0.27334  0.28052  0.09493  1.0000
  C   C67       1.0  0.29511  0.26049  0.11962  1.0000
  C   C68       1.0  0.29158  0.31267  0.11637  1.0000
  C   C69       1.0  0.31342  0.31854  0.10734  1.0000
  C   C70       1.0  0.28235  0.33503  0.12740  1.0000
  C   C71       1.0  0.32487  0.34539  0.10882  1.0000
  C   C72       1.0  0.29413  0.36165  0.12893  1.0000
  C   C73       1.0  0.31514  0.36696  0.11951  1.0000
  H   H75       1.0  0.24293  0.29898  0.11955  1.0000
  H   H76       1.0  0.24760  0.26085  0.12177  1.0000
  H   H77       1.0  0.25924  0.28439  0.13823  1.0000
  H   H78       1.0  0.26220  0.29883  0.08989  1.0000
  H   H79       1.0  0.26296  0.26024  0.09264  1.0000
  H   H80       1.0  0.28967  0.27890  0.08658  1.0000
  H   H81       1.0  0.30038  0.26312  0.13367  1.0000
  H   H82       1.0  0.28595  0.23908  0.11830  1.0000
  H   H83       1.0  0.31190  0.25899  0.11173  1.0000
  H   H84       1.0  0.32152  0.30261  0.09874  1.0000
  H   H85       1.0  0.26556  0.33305  0.13448  1.0000
  H   H86       1.0  0.34107  0.34980  0.10134  1.0000
  H   H87       1.0  0.28624  0.37882  0.13683  1.0000
  H   H88       1.0  0.32346  0.38817  0.12011  1.0000
  H   H89       1.0  0.41601  0.32098  0.24847  1.0000
  C   C74       1.0  0.34328  0.03842  0.01795  1.0000
  H   H90       1.0  0.08142  0.36246  0.25421  1.0000
  S   S21       1.0  0.45188  0.48642  0.17906  1.0000
  H   H91       1.0  0.40538  0.44788  0.24225  1.0000
  C   C75       1.0  0.11133  0.30534  0.20058  1.0000
  H   H92       1.0  0.45717  0.41453  0.20587  1.0000
  C   C76       1.0  0.06563  0.36102  0.24519  1.0000
  H   H93       1.0  0.15129  0.15610  0.05622  1.0000
  H   H94       1.0  0.48074  0.49671  0.11314  1.0000
  H   H95       1.0  0.39311  0.33570  0.22194  1.0000
  H   H96       1.0  0.19913  0.21182  0.06489  1.0000
  H   H97       1.0  0.14366  0.32553  0.19115  1.0000
  C   C77       1.0  0.06575  0.30919  0.24649  1.0000
  H   H98       1.0  0.19903  0.13533  0.02492  1.0000
  H   H99       1.0  0.99741  0.27374  0.15846  1.0000
  C   C78       1.0  0.41233  0.01929  0.17620  1.0000
  H   H100      1.0  0.35080  0.06002  0.01784  1.0000
  C   C79       1.0  0.26741  0.12222  0.01893  1.0000
  H   H101      1.0  0.48151  0.18274  0.24401  1.0000
  C   C80       1.0  0.27329  0.09225  0.01967  1.0000
  H   H102      1.0  0.27160  0.41818  0.02627  1.0000
  Fe  Fe11      1.0  0.48499  0.04059  0.23169  1.0000
  C   C81       1.0  0.99711  0.37983  0.24922  1.0000
  S   S22       1.0  0.28421  0.01336  0.08059  1.0000
  H   H103      1.0  0.41110  0.48929  0.08292  1.0000
  C   C82       1.0  0.39697  0.50198  0.08985  1.0000
  H   H104      1.0  0.38131  0.50304  0.08060  1.0000
  H   H105      1.0  0.48182  0.23126  0.24988  1.0000
  S   S23       1.0  0.48907  0.03866  0.20221  1.0000
  H   H106      1.0  0.48490  0.01244  0.16627  1.0000
  H   H107      1.0  0.44851  0.50256  0.09141  1.0000
  H   H108      1.0  0.23918  0.50654  0.04169  1.0000
  C   C83       1.0  0.24810  0.39454  0.50567  1.0000
  H   H109      1.0  0.32876  0.32110  0.40330  1.0000
  C   C84       1.0  0.41074  0.32603  0.36597  1.0000
  H   H110      1.0  0.23697  0.45672  0.48097  1.0000
  C   C85       1.0  0.43037  0.31067  0.39270  1.0000
  H   H111      1.0  0.35483  0.37090  0.38703  1.0000
  S   S24       1.0  0.46922  0.24671  0.29879  1.0000
  C   C86       1.0  0.01385  0.50432  0.37382  1.0000
  Fe  Fe12      1.0  0.46200  0.25736  0.32739  1.0000
  S   S25       1.0  0.42243  0.26064  0.33592  1.0000
  S   S26       1.0  0.13030  0.04607  0.39873  1.0000
  H   H112      1.0  0.22994  0.43725  0.46116  1.0000
  S   S27       1.0  0.02450  0.02215  0.30241  1.0000
  N   N6        1.0  0.36587  0.33492  0.40348  1.0000
  C   C87       1.0  0.26898  0.37780  0.50821  1.0000
  C   C88       1.0  0.48739  0.39915  0.27975  1.0000
  Fe  Fe13      1.0  0.20872  0.03888  0.43179  1.0000
  S   S28       1.0  0.23832  0.07162  0.43812  1.0000
  Fe  Fe14      1.0  0.19818  0.47264  0.43072  1.0000
  S   S29       1.0  0.20119  0.42348  0.42868  1.0000
  S   S30       1.0  0.17049  0.04657  0.44054  1.0000
  S   S31       1.0  0.16632  0.48640  0.44726  1.0000
  Fe  Fe15      1.0  0.28180  0.22992  0.42185  1.0000
  S   S32       1.0  0.31474  0.21239  0.43517  1.0000
  S   S33       1.0  0.25666  0.19849  0.40771  1.0000
  Fe  Fe16      1.0  0.29568  0.29285  0.43005  1.0000
  S   S34       1.0  0.32943  0.27853  0.44426  1.0000
  S   S35       1.0  0.29444  0.34216  0.42742  1.0000
  Fe  Fe17      1.0  0.33503  0.24797  0.42157  1.0000
  S   S36       1.0  0.37329  0.24052  0.41101  1.0000
  Fe  Fe18      1.0  0.30610  0.24456  0.45647  1.0000
  S   S37       1.0  0.30892  0.22648  0.48411  1.0000
  S   S38       1.0  0.30257  0.26377  0.40667  1.0000
  S   S39       1.0  0.27175  0.26054  0.44388  1.0000
  C   C89       1.0  0.22738  0.40143  0.42731  1.0000
  C   C90       1.0  0.22475  0.37114  0.42797  1.0000
  C   C91       1.0  0.24506  0.35268  0.42797  1.0000
  C   C92       1.0  0.26825  0.36436  0.42715  1.0000
  C   C93       1.0  0.27091  0.39465  0.42636  1.0000
  C   C94       1.0  0.25059  0.41315  0.42649  1.0000
  H   H113      1.0  0.20686  0.36189  0.42862  1.0000
  H   H114      1.0  0.24276  0.32943  0.42859  1.0000
  H   H115      1.0  0.28879  0.40389  0.42576  1.0000
  H   H116      1.0  0.25288  0.43641  0.42601  1.0000
  C   C95       1.0  0.25184  0.16318  0.41622  1.0000
  C   C96       1.0  0.23843  0.14305  0.40635  1.0000
  C   C97       1.0  0.23417  0.11489  0.41283  1.0000
  C   C98       1.0  0.24307  0.10672  0.42932  1.0000
  C   C99       1.0  0.25682  0.12670  0.43902  1.0000
  C   C100      1.0  0.26115  0.15478  0.43255  1.0000
  H   H117      1.0  0.23131  0.14927  0.39365  1.0000
  H   H118      1.0  0.22436  0.09931  0.40504  1.0000
  H   H119      1.0  0.26393  0.12053  0.45175  1.0000
  H   H120      1.0  0.27152  0.16998  0.44030  1.0000
  C   C101      1.0  0.25211  0.38804  0.47423  1.0000
  C   C102      1.0  0.17242  0.49515  0.50675  1.0000
  H   H121      1.0  0.24955  0.16004  0.51497  1.0000
  H   H122      1.0  0.41104  0.32828  0.35177  1.0000
  H   H123      1.0  0.44595  0.30129  0.39926  1.0000
  H   H124      1.0  0.13330  0.49034  0.38827  1.0000
  C   C103      1.0  0.30621  0.24775  0.50336  1.0000
  C   C104      1.0  0.30044  0.27728  0.50269  1.0000
  H   H125      1.0  0.04618  0.48248  0.39474  1.0000
  H   H126      1.0  0.29764  0.28767  0.49011  1.0000
  C   C105      1.0  0.40897  0.25324  0.35668  1.0000
  C   C106      1.0  0.38392  0.25730  0.35867  1.0000
  C   C107      1.0  0.37258  0.25304  0.37506  1.0000
  C   C108      1.0  0.38625  0.24492  0.38976  1.0000
  C   C109      1.0  0.41119  0.24021  0.38768  1.0000
  C   C110      1.0  0.42251  0.24428  0.37126  1.0000
  H   H127      1.0  0.37326  0.26408  0.34746  1.0000
  H   H128      1.0  0.35333  0.25625  0.37628  1.0000
  H   H129      1.0  0.42195  0.23377  0.39892  1.0000
  H   H130      1.0  0.44177  0.24101  0.36997  1.0000
  H   H131      1.0  0.35040  0.29320  0.39868  1.0000
  C   C111      1.0  0.38850  0.32838  0.39388  1.0000
  C   C112      1.0  0.10835  0.03022  0.38449  1.0000
  H   H132      1.0  0.44651  0.01318  0.28850  1.0000
  C   C113      1.0  0.23897  0.40007  0.48848  1.0000
  H   H133      1.0  0.37449  0.34068  0.36806  1.0000
  C   C114      1.0  0.40948  0.31702  0.40227  1.0000
  H   H134      1.0  0.17859  0.09021  0.40993  1.0000
  C   C115      1.0  0.20491  0.17455  0.44465  1.0000
  H   H135      1.0  0.34288  0.31965  0.38231  1.0000
  C   C116      1.0  0.38983  0.33274  0.37542  1.0000
  C   C117      1.0  0.07405  0.03687  0.36429  1.0000
  H   H136      1.0  0.01682  0.44868  0.37911  1.0000
  H   H137      1.0  0.13632  0.16642  0.40041  1.0000
  H   H138      1.0  0.28241  0.36223  0.46570  1.0000
  N   N7        1.0  0.21687  0.41743  0.48511  1.0000
  H   H139      1.0  0.45945  0.03066  0.26942  1.0000
  C   C118      1.0  0.34617  0.31648  0.39658  1.0000
  C   C119      1.0  0.35901  0.36576  0.40097  1.0000
  H   H140      1.0  0.43674  0.11059  0.30174  1.0000
  C   C120      1.0  0.99981  0.37064  0.28039  1.0000
  H   H141      1.0  0.12710  0.13279  0.42660  1.0000
  C   C121      1.0  0.19645  0.18865  0.42967  1.0000
  H   H142      1.0  0.21763  0.18528  0.45331  1.0000
  C   C122      1.0  0.20484  0.42794  0.50136  1.0000
  H   H143      1.0  0.44254  0.06331  0.28858  1.0000
  C   C123      1.0  0.99998  0.42062  0.26997  1.0000
  S   S40       1.0  0.49118  0.22765  0.33770  1.0000
  H   H144      1.0  0.41008  0.31212  0.41614  1.0000
  H   H145      1.0  0.20693  0.45730  0.47204  1.0000
  C   C124      1.0  0.19794  0.14615  0.44800  1.0000
  C   C125      1.0  0.45689  0.07133  0.29686  1.0000
  C   C126      1.0  0.28131  0.36625  0.49385  1.0000
  C   C127      1.0  0.47688  0.15136  0.27767  1.0000
  H   H146      1.0  0.00241  0.40853  0.29721  1.0000
  C   C128      1.0  0.46329  0.01588  0.28069  1.0000
  Fe  Fe19      1.0  0.15966  0.02388  0.41534  1.0000
  H   H147      1.0  0.18801  0.44018  0.49825  1.0000
  H   H148      1.0  0.12355  0.10600  0.40953  1.0000
  C   C129      1.0  0.48951  0.36922  0.28342  1.0000
  H   H149      1.0  0.16024  0.09367  0.39074  1.0000
  N   N8        1.0  0.00801  0.49007  0.39073  1.0000
  C   C130      1.0  0.36756  0.32964  0.42272  1.0000
  H   H150      1.0  0.37149  0.30640  0.42561  1.0000
  H   H151      1.0  0.35023  0.33482  0.42951  1.0000
  H   H152      1.0  0.38170  0.34327  0.42896  1.0000
  H   H153      1.0  0.34243  0.37145  0.40858  1.0000
  H   H154      1.0  0.37375  0.38040  0.40538  1.0000
  N   N9        1.0  0.32556  0.16333  0.38773  1.0000
  C   C131      1.0  0.30371  0.14930  0.38026  1.0000
  C   C132      1.0  0.32119  0.19502  0.38782  1.0000
  C   C133      1.0  0.34607  0.15695  0.37579  1.0000
  C   C134      1.0  0.33140  0.15361  0.40582  1.0000
  C   C135      1.0  0.35262  0.16363  0.41436  1.0000
  C   C136      1.0  0.31612  0.13501  0.41567  1.0000
  C   C137      1.0  0.35804  0.15584  0.43168  1.0000
  C   C138      1.0  0.32179  0.12725  0.43298  1.0000
  C   C139      1.0  0.34261  0.13777  0.44100  1.0000
  H   H155      1.0  0.28724  0.15505  0.38793  1.0000
  H   H156      1.0  0.30002  0.15660  0.36656  1.0000
  H   H157      1.0  0.30564  0.12530  0.37996  1.0000
  H   H158      1.0  0.30595  0.20061  0.39670  1.0000
  H   H159      1.0  0.31655  0.20338  0.37451  1.0000
  H   H160      1.0  0.33717  0.20734  0.39246  1.0000
  H   H161      1.0  0.34166  0.16230  0.36187  1.0000
  H   H162      1.0  0.36237  0.16992  0.37907  1.0000
  H   H163      1.0  0.35120  0.13363  0.37642  1.0000
  H   H164      1.0  0.36481  0.17845  0.40794  1.0000
  H   H165      1.0  0.29935  0.12663  0.41053  1.0000
  H   H166      1.0  0.37394  0.16463  0.43808  1.0000
  H   H167      1.0  0.30961  0.11351  0.44035  1.0000
  H   H168      1.0  0.34655  0.13235  0.45457  1.0000
  C   C140      1.0  0.19906  0.39970  0.47527  1.0000
  C   C141      1.0  0.09177  0.04839  0.37570  1.0000
  H   H169      1.0  0.24637  0.39141  0.46085  1.0000
  H   H170      1.0  0.16093  0.15655  0.38585  1.0000
  C   C142      1.0  0.43098  0.31509  0.37460  1.0000
  S   S41       1.0  0.99984  0.45892  0.27343  1.0000
  C   C143      1.0  0.18081  0.17453  0.41803  1.0000
  H   H171      1.0  0.02842  0.47819  0.41404  1.0000
  H   H172      1.0  0.18700  0.11517  0.39296  1.0000
  H   H173      1.0  0.17544  0.18660  0.40652  1.0000
  H   H174      1.0  0.44686  0.30899  0.36712  1.0000
  H   H175      1.0  0.09259  0.07155  0.37774  1.0000
  H   H176      1.0  0.14273  0.09858  0.42748  1.0000
  H   H177      1.0  0.20279  0.21034  0.42675  1.0000
  H   H178      1.0  0.17851  0.10938  0.43925  1.0000
  H   H179      1.0  0.18215  0.41205  0.47249  1.0000
  H   H180      1.0  0.29747  0.35330  0.49582  1.0000
  H   H181      1.0  0.20537  0.13475  0.45927  1.0000
  H   H182      1.0  0.19431  0.37973  0.48264  1.0000
  H   H183      1.0  0.11223  0.47726  0.36051  1.0000
  C   C144      1.0  0.22300  0.44321  0.47440  1.0000
  H   H184      1.0  0.21657  0.44308  0.50890  1.0000
  H   H185      1.0  0.13417  0.13546  0.38621  1.0000
  H   H186      1.0  0.06147  0.05114  0.35767  1.0000
  N   N10       1.0  0.15728  0.12953  0.40887  1.0000
  C   C145      1.0  0.14676  0.14798  0.39477  1.0000
  C   C146      1.0  0.17140  0.10617  0.40027  1.0000
  C   C147      1.0  0.13685  0.11633  0.41858  1.0000
  C   C148      1.0  0.17318  0.14557  0.42115  1.0000
  C   C149      1.0  0.18247  0.13176  0.43641  1.0000
  H   H187      1.0  0.46513  0.16821  0.28268  1.0000
  C   C150      1.0  0.10496  0.49432  0.36874  1.0000
  C   C151      1.0  0.27287  0.37134  0.47689  1.0000
  S   S42       1.0  0.48576  0.29691  0.32683  1.0000
  H   H188      1.0  0.48409  0.36091  0.29608  1.0000
  C   C152      1.0  0.11701  0.50175  0.38448  1.0000
  S   S43       1.0  0.18958  0.50357  0.40857  1.0000
  S   S44       1.0  0.00580  0.47490  0.32646  1.0000
  H   H189      1.0  0.20585  0.39278  0.46219  1.0000
  C   C153      1.0  0.00101  0.40072  0.28383  1.0000
  H   H190      1.0  0.16060  0.49402  0.49542  1.0000
  S   S45       1.0  0.19806  0.01888  0.40585  1.0000
  H   H191      1.0  0.18903  0.03670  0.48712  1.0000
  C   C154      1.0  0.18222  0.02795  0.49933  1.0000
  H   H192      1.0  0.02968  0.49405  0.36726  1.0000
  H   H193      1.0  0.99940  0.44639  0.39884  1.0000
  C   C155      1.0  0.03008  0.49115  0.40183  1.0000
  Fe  Fe20      1.0  0.01957  0.00855  0.33065  1.0000
  H   H194      1.0  0.48042  0.41361  0.28975  1.0000
  S   S46       1.0  0.22392  0.50339  0.44376  1.0000
  H   H195      1.0  0.00037  0.35555  0.29126  1.0000
  C   C156      1.0  0.47877  0.05571  0.29959  1.0000
  H   H196      1.0  0.19937  0.40969  0.50998  1.0000
  Fe  Fe21      1.0  0.00254  0.48785  0.29812  1.0000
  H   H197      1.0  0.46877  0.13319  0.31972  1.0000
  C   C157      1.0  0.45327  0.09870  0.30436  1.0000
  S   S47       1.0  0.06965  0.49851  0.34331  1.0000
  Fe  Fe22      1.0  0.99385  0.05362  0.30718  1.0000
  C   C158      1.0  0.00216  0.45942  0.38676  1.0000
  C   C159      1.0  0.46761  0.12974  0.26638  1.0000
  H   H198      1.0  0.99868  0.50246  0.36434  1.0000
  C   C160      1.0  0.47127  0.11148  0.31452  1.0000
  N   N11       1.0  0.48350  0.02687  0.29168  1.0000
  C   C161      1.0  0.05767  0.45516  0.70283  1.0000
  H   H199      1.0  0.07047  0.40011  0.70163  1.0000
  H   H200      1.0  0.34938  0.21927  0.63434  1.0000
  H   H201      1.0  0.21521  0.43890  0.55402  1.0000
  C   C162      1.0  0.40177  0.18887  0.63786  1.0000
  C   C163      1.0  0.07071  0.02279  0.67354  1.0000
  Fe  Fe23      1.0  0.28184  0.28788  0.61695  1.0000
  S   S48       1.0  0.31364  0.30769  0.60362  1.0000
  S   S49       1.0  0.25477  0.31643  0.63127  1.0000
  Fe  Fe24      1.0  0.29481  0.22655  0.60450  1.0000
  S   S50       1.0  0.32732  0.24326  0.58983  1.0000
  S   S51       1.0  0.29150  0.17749  0.60113  1.0000
  Fe  Fe25      1.0  0.33463  0.26960  0.61422  1.0000
  S   S52       1.0  0.37358  0.27541  0.62376  1.0000
  Fe  Fe26      1.0  0.30325  0.27941  0.58078  1.0000
  S   S53       1.0  0.29953  0.30111  0.55414  1.0000
  S   S54       1.0  0.30335  0.25134  0.62935  1.0000
  S   S55       1.0  0.27024  0.26120  0.59361  1.0000
  H   H202      1.0  0.03258  0.08132  0.73464  1.0000
  H   H203      1.0  0.14534  0.41803  0.67823  1.0000
  C   C164      1.0  0.20213  0.49950  0.53658  1.0000
  C   C165      1.0  0.07264  0.15337  0.72080  1.0000
  H   H204      1.0  0.05587  0.11708  0.69450  1.0000
  S   S56       1.0  0.17035  0.47017  0.55787  1.0000
  Fe  Fe27      1.0  0.21704  0.48039  0.61443  1.0000
  S   S57       1.0  0.25069  0.45323  0.61978  1.0000
  Fe  Fe28      1.0  0.20000  0.04726  0.61564  1.0000
  S   S58       1.0  0.21824  0.08342  0.63122  1.0000
  S   S59       1.0  0.18104  0.46168  0.60782  1.0000
  S   S60       1.0  0.16856  0.06137  0.59907  1.0000
  H   H205      1.0  0.04375  0.11694  0.75382  1.0000
  Fe  Fe29      1.0  0.46967  0.25453  0.70521  1.0000
  S   S61       1.0  0.43020  0.25182  0.69594  1.0000
  H   H206      1.0  0.37939  0.15967  0.61064  1.0000
  S   S62       1.0  0.47339  0.24665  0.73452  1.0000
  H   H207      1.0  0.02921  0.10970  0.70709  1.0000
  S   S63       1.0  0.21547  0.01695  0.59524  1.0000
  C   C166      1.0  0.08909  0.48983  0.65632  1.0000
  H   H208      1.0  0.09408  0.44686  0.73847  1.0000
  C   C167      1.0  0.07314  0.41066  0.71465  1.0000
  H   H209      1.0  0.19329  0.39844  0.54870  1.0000
  H   H210      1.0  0.05626  0.40652  0.72221  1.0000
  H   H211      1.0  0.19646  0.15815  0.58427  1.0000
  N   N12       1.0  0.07794  0.44220  0.71286  1.0000
  C   C168      1.0  0.06917  0.02735  0.64162  1.0000
  H   H212      1.0  0.26196  0.42160  0.58609  1.0000
  C   C169      1.0  0.38895  0.26775  0.64386  1.0000
  C   C170      1.0  0.37693  0.25818  0.65892  1.0000
  C   C171      1.0  0.38992  0.25324  0.67464  1.0000
  C   C172      1.0  0.41503  0.25776  0.67555  1.0000
  C   C173      1.0  0.42706  0.26708  0.66045  1.0000
  C   C174      1.0  0.41406  0.27210  0.64474  1.0000
  H   H213      1.0  0.35765  0.25488  0.65859  1.0000
  H   H214      1.0  0.38043  0.24607  0.68625  1.0000
  H   H215      1.0  0.44634  0.27061  0.66089  1.0000
  H   H216      1.0  0.42356  0.27951  0.63319  1.0000
  C   C175      1.0  0.30201  0.28005  0.53480  1.0000
  C   C176      1.0  0.30758  0.25050  0.53546  1.0000
  H   H217      1.0  0.19736  0.41075  0.57788  1.0000
  H   H218      1.0  0.31046  0.24006  0.54802  1.0000
  H   H219      1.0  0.02378  0.37401  0.74477  1.0000
  C   C177      1.0  0.27066  0.15208  0.60970  1.0000
  C   C178      1.0  0.27133  0.12348  0.60330  1.0000
  C   C179      1.0  0.25516  0.10239  0.60957  1.0000
  C   C180      1.0  0.23833  0.10957  0.62255  1.0000
  C   C181      1.0  0.23800  0.13804  0.62924  1.0000
  C   C182      1.0  0.25387  0.15931  0.62271  1.0000
  H   H220      1.0  0.28439  0.11760  0.59335  1.0000
  H   H221      1.0  0.25595  0.08044  0.60458  1.0000
  H   H222      1.0  0.22525  0.14370  0.63945  1.0000
  H   H223      1.0  0.25325  0.18116  0.62786  1.0000
  C   C183      1.0  0.25337  0.35427  0.62733  1.0000
  C   C184      1.0  0.27380  0.36969  0.62212  1.0000
  C   C185      1.0  0.27279  0.40002  0.62038  1.0000
  C   C186      1.0  0.25107  0.41519  0.62301  1.0000
  C   C187      1.0  0.23044  0.39976  0.62786  1.0000
  C   C188      1.0  0.23172  0.36949  0.63028  1.0000
  H   H224      1.0  0.29048  0.35832  0.61973  1.0000
  H   H225      1.0  0.28883  0.41176  0.61662  1.0000
  H   H226      1.0  0.21363  0.41120  0.63006  1.0000
  H   H227      1.0  0.21584  0.35778  0.63444  1.0000
  H   H228      1.0  0.33577  0.19995  0.61631  1.0000
  H   H229      1.0  0.06182  0.07441  0.74436  1.0000
  C   C189      1.0  0.36441  0.15246  0.61927  1.0000
  H   H230      1.0  0.36675  0.20972  0.61544  1.0000
  N   N13       1.0  0.35858  0.17411  0.63307  1.0000
  S   S64       1.0  0.17893  0.01187  0.62930  1.0000
  H   H231      1.0  0.33060  0.17987  0.65248  1.0000
  C   C190      1.0  0.42179  0.19372  0.64866  1.0000
  H   H232      1.0  0.26197  0.35583  0.56003  1.0000
  H   H233      1.0  0.24651  0.43438  0.54837  1.0000
  C   C191      1.0  0.01248  0.38207  0.75528  1.0000
  C   C192      1.0  0.07817  0.45473  0.73086  1.0000
  H   H234      1.0  0.40355  0.19414  0.62408  1.0000
  Fe  Fe30      1.0  0.18200  0.48997  0.58392  1.0000
  C   C193      1.0  0.35239  0.20192  0.62443  1.0000
  H   H235      1.0  0.27305  0.40276  0.56724  1.0000
  S   S65       1.0  0.13201  0.48673  0.63830  1.0000
  H   H236      1.0  0.25961  0.38305  0.58531  1.0000
  N   N14       1.0  0.21265  0.12730  0.56647  1.0000
  C   C194      1.0  0.22644  0.09984  0.56793  1.0000
  C   C195      1.0  0.20642  0.13717  0.58450  1.0000
  C   C196      1.0  0.18953  0.12141  0.55721  1.0000
  C   C197      1.0  0.22733  0.14852  0.55658  1.0000
  C   C198      1.0  0.23194  0.14432  0.53838  1.0000
  H   H237      1.0  0.05860  0.02955  0.62971  1.0000
  H   H238      1.0  0.08803  0.39948  0.72183  1.0000
  H   H239      1.0  0.43585  0.19277  0.67505  1.0000
  C   C199      1.0  0.04791  0.10207  0.70428  1.0000
  H   H240      1.0  0.24461  0.10359  0.57368  1.0000
  H   H241      1.0  0.21699  0.08374  0.57636  1.0000
  H   H242      1.0  0.17943  0.14183  0.55456  1.0000
  C   C200      1.0  0.11032  0.50469  0.65176  1.0000
  H   H243      1.0  0.19497  0.12114  0.59156  1.0000
  H   H244      1.0  0.10665  0.01900  0.68425  1.0000
  Fe  Fe31      1.0  0.01841  0.01873  0.70598  1.0000
  Fe  Fe32      1.0  0.14838  0.02431  0.61143  1.0000
  H   H245      1.0  0.17766  0.10685  0.56502  1.0000
  C   C201      1.0  0.12933  0.48495  0.69247  1.0000
  C   C202      1.0  0.10792  0.02306  0.65598  1.0000
  H   H246      1.0  0.21980  0.42305  0.59281  1.0000
  H   H247      1.0  0.15772  0.46915  0.67575  1.0000
  H   H248      1.0  0.21532  0.38485  0.58993  1.0000
  C   C203      1.0  0.07231  0.18090  0.72853  1.0000
  C   C204      1.0  0.10077  0.44880  0.70363  1.0000
  C   C205      1.0  0.06184  0.18500  0.74498  1.0000
  H   H249      1.0  0.36979  0.13137  0.62521  1.0000
  S   S66       1.0  0.05693  0.01971  0.69464  1.0000
  H   H250      1.0  0.12739  0.02201  0.65535  1.0000
  H   H251      1.0  0.09905  0.09075  0.72805  1.0000
  C   C206      1.0  0.10868  0.47792  0.70206  1.0000
  C   C207      1.0  0.05209  0.13395  0.74624  1.0000
  H   H252      1.0  0.36309  0.16483  0.66969  1.0000
  C   C208      1.0  0.37904  0.17265  0.66316  1.0000
  N   N15       1.0  0.06239  0.10028  0.72067  1.0000
  H   H253      1.0  0.03995  0.44943  0.70859  1.0000
  H   H254      1.0  0.08064  0.15134  0.70791  1.0000
  C   C209      1.0  0.00322  0.41052  0.75438  1.0000
  C   C210      1.0  0.39922  0.17761  0.67384  1.0000
  C   C211      1.0  0.18068  0.02896  0.53149  1.0000
  C   C212      1.0  0.33660  0.16396  0.64235  1.0000
  H   H255      1.0  0.11012  0.40456  0.69516  1.0000
  C   C213      1.0  0.18015  0.48496  0.53779  1.0000
  C   C214      1.0  0.23877  0.17262  0.56477  1.0000
  H   H256      1.0  0.39827  0.17394  0.68790  1.0000
  H   H257      1.0  0.23777  0.45214  0.56847  1.0000
  C   C215      1.0  0.37971  0.17829  0.64477  1.0000
  H   H258      1.0  0.06165  0.44877  0.73838  1.0000
  H   H259      1.0  0.32104  0.16127  0.63313  1.0000
  N   N16       1.0  0.33691  0.34264  0.65495  1.0000
  C   C216      1.0  0.32155  0.36671  0.66157  1.0000
  C   C217      1.0  0.34668  0.35165  0.63762  1.0000
  C   C218      1.0  0.32155  0.31687  0.65199  1.0000
  C   C219      1.0  0.35589  0.33549  0.66803  1.0000
  C   C220      1.0  0.38093  0.33541  0.66392  1.0000
  C   C221      1.0  0.34948  0.32758  0.68545  1.0000
  C   C222      1.0  0.39829  0.32819  0.67658  1.0000
  C   C223      1.0  0.36701  0.32011  0.69793  1.0000
  C   C224      1.0  0.39136  0.32041  0.69350  1.0000
  H   H260      1.0  0.31120  0.36062  0.67349  1.0000
  H   H261      1.0  0.33264  0.38605  0.66487  1.0000
  H   H262      1.0  0.30777  0.37349  0.65167  1.0000
  H   H263      1.0  0.35845  0.37102  0.63887  1.0000
  H   H264      1.0  0.33207  0.35743  0.62819  1.0000
  H   H265      1.0  0.35713  0.33382  0.63127  1.0000
  H   H266      1.0  0.31225  0.30964  0.66413  1.0000
  H   H267      1.0  0.30702  0.32127  0.64220  1.0000
  H   H268      1.0  0.33254  0.29830  0.64709  1.0000
  H   H269      1.0  0.38764  0.34000  0.65091  1.0000
  H   H270      1.0  0.33082  0.32659  0.68946  1.0000
  H   H271      1.0  0.41724  0.32749  0.67307  1.0000
  H   H272      1.0  0.36172  0.31357  0.71105  1.0000
  H   H273      1.0  0.40491  0.31374  0.70301  1.0000
  H   H274      1.0  0.22489  0.12572  0.53144  1.0000
  H   H275      1.0  0.05258  0.05558  0.72502  1.0000
  H   H276      1.0  0.08003  0.19923  0.72168  1.0000
  C   C225      1.0  0.09452  0.02590  0.64044  1.0000
  S   S67       1.0  0.10838  0.02692  0.61928  1.0000
  C   C226      1.0  0.23923  0.33612  0.54129  1.0000
  H   H277      1.0  0.05766  0.44742  0.68895  1.0000
  N   N17       1.0  0.23417  0.40560  0.56868  1.0000
  C   C227      1.0  0.21584  0.40599  0.58286  1.0000
  C   C228      1.0  0.25828  0.40300  0.57711  1.0000
  C   C229      1.0  0.23340  0.43388  0.55941  1.0000
  C   C230      1.0  0.22881  0.38179  0.55621  1.0000
  C   C231      1.0  0.24492  0.35817  0.55321  1.0000
  C   C232      1.0  0.20667  0.38157  0.54675  1.0000
  C   C233      1.0  0.25317  0.19169  0.55513  1.0000
  H   H278      1.0  0.03784  0.02692  0.65864  1.0000
  S   S68       1.0  0.00049  0.07371  0.76283  1.0000
  Fe  Fe33      1.0  0.99341  0.04480  0.73861  1.0000
  H   H279      1.0  0.07854  0.47878  0.73082  1.0000
  H   H280      1.0  0.08773  0.06917  0.71011  1.0000
  S   S69       1.0  0.19009  0.04537  0.55141  1.0000
  H   H281      1.0  0.34862  0.14851  0.61044  1.0000
  H   H282      1.0  0.33953  0.14247  0.64864  1.0000
  H   H283      1.0  0.43820  0.20268  0.64319  1.0000
  C   C234      1.0  0.16563  0.48213  0.52272  1.0000
  C   C235      1.0  0.42052  0.18811  0.66661  1.0000
  H   H284      1.0  0.06132  0.20639  0.75092  1.0000
  C   C236      1.0  0.05191  0.07701  0.73171  1.0000
  H   H285      1.0  0.09586  0.10585  0.70637  1.0000
  C   C237      1.0  0.05732  0.02590  0.65803  1.0000
  S   S70       1.0  0.01024  0.43237  0.73569  1.0000
  H   H286      1.0  0.22915  0.08931  0.55492  1.0000
  H   H287      1.0  0.23733  0.17706  0.57867  1.0000
  C   C238      1.0  0.14242  0.46340  0.68389  1.0000
  H   H288      1.0  0.19210  0.10980  0.54454  1.0000
  H   H289      1.0  0.05554  0.49081  0.67081  1.0000
  H   H290      1.0  0.18396  0.35933  0.52807  1.0000
  H   H291      1.0  0.08586  0.46854  0.65085  1.0000
  Fe  Fe34      1.0  0.00193  0.47983  0.72877  1.0000
  C   C239      1.0  0.08735  0.09126  0.71613  1.0000
  H   H292      1.0  0.04652  0.08059  0.69763  1.0000
  C   C240      1.0  0.20115  0.35931  0.53491  1.0000
  C   C241      1.0  0.48934  0.39929  0.75532  1.0000
  H   H293      1.0  0.48192  0.41395  0.74561  1.0000
  H   H294      1.0  0.05854  0.47923  0.70257  1.0000
  H   H295      1.0  0.22270  0.13971  0.59282  1.0000
  C   C242      1.0  0.06252  0.12899  0.72942  1.0000
  H   H296      1.0  0.09838  0.49567  0.70755  1.0000
  H   H297      1.0  0.48660  0.36171  0.73833  1.0000
  C   C243      1.0  0.09607  0.02151  0.67238  1.0000
  H   H298      1.0  0.26196  0.20972  0.56170  1.0000
  C   C244      1.0  0.13526  0.43460  0.68521  1.0000
  S   S71       1.0  0.99872  0.48955  0.69969  1.0000
  C   C245      1.0  0.11481  0.42722  0.69497  1.0000
  C   C246      1.0  0.25674  0.18735  0.53720  1.0000
  Fe  Fe35      1.0  0.18275  0.02937  0.57923  1.0000
  C   C247      1.0  0.07200  0.50222  0.66785  1.0000
  C   C248      1.0  0.05181  0.16158  0.75381  1.0000
  Fe  Fe36      1.0  0.16504  0.50020  0.62210  1.0000
  H   H299      1.0  0.29396  0.31610  0.51788  1.0000
  H   H300      1.0  0.47366  0.17498  0.76320  1.0000
  H   H301      1.0  0.23946  0.40278  0.51735  1.0000
  C   C249      1.0  0.30973  0.23447  0.51979  1.0000
  H   H302      1.0  0.31428  0.21167  0.52039  1.0000
  H   H303      1.0  0.14863  0.47074  0.52357  1.0000
  C   C250      1.0  0.21747  0.33672  0.53212  1.0000
  H   H304      1.0  0.27567  0.37356  0.52138  1.0000
  H   H305      1.0  0.25177  0.31822  0.53934  1.0000
  C   C251      1.0  0.24625  0.16364  0.52886  1.0000
  S   S72       1.0  0.99400  0.05767  0.71004  1.0000
  C   C252      1.0  0.29835  0.29333  0.51839  1.0000
  H   H306      1.0  0.13461  0.50740  0.69097  1.0000
  H   H307      1.0  0.21362  0.50138  0.54805  1.0000
  H   H308      1.0  0.21315  0.31934  0.52304  1.0000
  S   S73       1.0  0.21903  0.50652  0.58952  1.0000
  C   C253      1.0  0.49210  0.36961  0.75111  1.0000
  H   H309      1.0  0.26796  0.20217  0.52981  1.0000
  H   H310      1.0  0.20127  0.05860  0.51562  1.0000
  C   C254      1.0  0.18917  0.04027  0.51551  1.0000
  S   S74       1.0  0.02530  0.27599  0.80036  1.0000
  H   H311      1.0  0.26143  0.03577  0.01314  1.0000
  Fe  Fe37      1.0  0.03523  0.26767  0.82889  1.0000
  S   S75       1.0  0.07466  0.26163  0.83756  1.0000
  Fe  Fe38      1.0  0.29425  0.05087  0.94096  1.0000
  S   S76       1.0  0.33319  0.03653  0.94298  1.0000
  S   S77       1.0  0.28651  0.09728  0.95012  1.0000
  Fe  Fe39      1.0  0.28770  0.48762  0.92214  1.0000
  S   S78       1.0  0.32010  0.47514  0.93801  1.0000
  S   S79       1.0  0.26161  0.45585  0.90928  1.0000
  H   H312      1.0  0.23914  0.07673  0.99648  1.0000
  H   H313      1.0  0.32109  0.20104  0.92104  1.0000
  N   N18       1.0  0.27693  0.07536  0.00328  1.0000
  C   C255      1.0  0.41668  0.50092  0.89108  1.0000
  H   H314      1.0  0.31632  0.24220  0.90297  1.0000
  C   C256      1.0  0.27061  0.17560  0.90033  1.0000
  Fe  Fe40      1.0  0.16459  0.28166  0.92127  1.0000
  S   S80       1.0  0.19685  0.26426  0.90671  1.0000
  S   S81       1.0  0.12775  0.29461  0.90990  1.0000
  Fe  Fe41      1.0  0.19128  0.28017  0.95704  1.0000
  S   S82       1.0  0.22461  0.26146  0.94473  1.0000
  S   S83       1.0  0.19819  0.29641  0.98484  1.0000
  Fe  Fe42      1.0  0.21893  0.29471  0.92356  1.0000
  S   S84       1.0  0.25395  0.31859  0.91757  1.0000
  Fe  Fe43      1.0  0.19996  0.23274  0.92933  1.0000
  S   S85       1.0  0.20513  0.18480  0.92294  1.0000
  S   S86       1.0  0.18654  0.31459  0.93641  1.0000
  S   S87       1.0  0.16652  0.24873  0.94324  1.0000
  H   H315      1.0  0.29936  0.10715  0.99050  1.0000
  C   C257      1.0  0.35085  0.42420  0.90440  1.0000
  C   C258      1.0  0.19933  0.37588  0.97183  1.0000
  C   C259      1.0  0.41985  0.07978  0.87725  1.0000
  S   S88       1.0  0.46596  0.00980  0.81242  1.0000
  H   H316      1.0  0.44189  0.06448  0.82141  1.0000
  H   H317      1.0  0.25872  0.06650  0.97866  1.0000
  C   C260      1.0  0.39780  0.44536  0.84796  1.0000
  C   C261      1.0  0.47736  0.13719  0.77985  1.0000
  Fe  Fe44      1.0  0.32622  0.01136  0.91795  1.0000
  H   H318      1.0  0.46991  0.09008  0.84064  1.0000
  S   S89       1.0  0.37803  0.50113  0.91389  1.0000
  S   S90       1.0  0.00830  0.29988  0.83929  1.0000
  H   H319      1.0  0.43834  0.07750  0.88155  1.0000
  H   H320      1.0  0.42698  0.49366  0.90236  1.0000
  C   C262      1.0  0.26378  0.42700  0.99908  1.0000
  H   H321      1.0  0.30273  0.11386  0.90804  1.0000
  C   C263      1.0  0.18540  0.28318  0.00452  1.0000
  C   C264      1.0  0.28612  0.19664  0.90800  1.0000
  H   H322      1.0  0.00771  0.15946  0.80119  1.0000
  H   H323      1.0  0.22832  0.34583  0.94956  1.0000
  H   H324      1.0  0.15817  0.25703  0.99212  1.0000
  C   C265      1.0  0.32731  0.45810  0.88781  1.0000
  H   H325      1.0  0.49114  0.21152  0.81312  1.0000
  H   H326      1.0  0.39248  0.43163  0.89128  1.0000
  H   H327      1.0  0.36429  0.07442  0.89589  1.0000
  C   C266      1.0  0.27692  0.14623  0.90006  1.0000
  C   C267      1.0  0.34059  0.02306  0.00207  1.0000
  H   H328      1.0  0.21542  0.39401  0.94133  1.0000
  H   H329      1.0  0.48059  0.23047  0.78527  1.0000
  C   C268      1.0  0.37092  0.08161  0.86840  1.0000
  C   C269      1.0  0.37785  0.07801  0.88587  1.0000
  H   H330      1.0  0.24446  0.40577  0.94818  1.0000
  C   C270      1.0  0.40410  0.43943  0.86532  1.0000
  C   C271      1.0  0.37359  0.44635  0.84309  1.0000
  H   H331      1.0  0.25313  0.18101  0.89490  1.0000
  S   S91       1.0  0.48915  0.46763  0.82884  1.0000
  C   C272      1.0  0.25954  0.41791  0.91271  1.0000
  C   C273      1.0  0.23863  0.40339  0.90710  1.0000
  C   C274      1.0  0.23635  0.37318  0.90914  1.0000
  C   C275      1.0  0.25531  0.35697  0.91632  1.0000
  C   C276      1.0  0.27631  0.37144  0.92189  1.0000
  C   C277      1.0  0.27826  0.40183  0.92039  1.0000
  H   H332      1.0  0.22408  0.41561  0.90110  1.0000
  H   H333      1.0  0.22019  0.36235  0.90462  1.0000
  H   H334      1.0  0.29108  0.35909  0.92747  1.0000
  H   H335      1.0  0.29433  0.41275  0.92493  1.0000
  C   C278      1.0  0.26311  0.12083  0.94290  1.0000
  C   C279      1.0  0.26224  0.14931  0.94952  1.0000
  C   C280      1.0  0.24432  0.16900  0.94385  1.0000
  C   C281      1.0  0.22719  0.16044  0.93137  1.0000
  C   C282      1.0  0.22778  0.13179  0.92502  1.0000
  C   C283      1.0  0.24560  0.11204  0.93077  1.0000
  H   H336      1.0  0.27563  0.15626  0.95897  1.0000
  H   H337      1.0  0.24373  0.19073  0.94912  1.0000
  H   H338      1.0  0.21453  0.12491  0.91543  1.0000
  H   H339      1.0  0.24599  0.09017  0.92562  1.0000
  C   C284      1.0  0.08928  0.27203  0.85752  1.0000
  C   C285      1.0  0.11337  0.26337  0.86041  1.0000
  C   C286      1.0  0.12559  0.27053  0.87615  1.0000
  C   C287      1.0  0.11385  0.28658  0.88924  1.0000
  C   C288      1.0  0.08980  0.29537  0.88630  1.0000
  C   C289      1.0  0.07757  0.28811  0.87059  1.0000
  H   H340      1.0  0.12265  0.25097  0.85040  1.0000
  H   H341      1.0  0.14404  0.26355  0.87816  1.0000
  H   H342      1.0  0.08049  0.30781  0.89628  1.0000
  H   H343      1.0  0.05906  0.29494  0.86861  1.0000
  H   H344      1.0  0.29744  0.23679  0.88403  1.0000
  N   N19       1.0  0.22511  0.38146  0.96782  1.0000
  C   C290      1.0  0.23661  0.35408  0.96191  1.0000
  H   H345      1.0  0.33704  0.44301  0.85121  1.0000
  C   C291      1.0  0.22573  0.40219  0.95290  1.0000
  C   C292      1.0  0.23779  0.39207  0.98372  1.0000
  C   C293      1.0  0.25178  0.41787  0.98387  1.0000
  C   C294      1.0  0.99652  0.11136  0.76763  1.0000
  H   H346      1.0  0.25726  0.10303  0.98501  1.0000
  C   C295      1.0  0.23704  0.37588  0.99959  1.0000
  H   H347      1.0  0.42297  0.43964  0.86913  1.0000
  H   H348      1.0  0.40748  0.07285  0.90377  1.0000
  S   S92       1.0  0.01000  0.22968  0.83123  1.0000
  H   H349      1.0  0.25618  0.35716  0.95927  1.0000
  H   H350      1.0  0.22735  0.35558  0.00033  1.0000
  H   H351      1.0  0.34604  0.03277  0.98977  1.0000
  H   H352      1.0  0.01168  0.10717  0.79365  1.0000
  H   H353      1.0  0.21767  0.42350  0.95653  1.0000
  H   H354      1.0  0.01459  0.34205  0.77018  1.0000
  H   H355      1.0  0.25396  0.43141  0.97240  1.0000
  H   H356      1.0  0.19043  0.39554  0.97733  1.0000
  N   N20       1.0  0.34184  0.43120  0.88647  1.0000
  S   S93       1.0  0.28036  0.01334  0.95661  1.0000
  C   C296      1.0  0.32581  0.40720  0.88084  1.0000
  C   C297      1.0  0.27792  0.04357  0.00636  1.0000
  C   C298      1.0  0.36132  0.43546  0.87342  1.0000
  C   C299      1.0  0.38624  0.43477  0.87796  1.0000
  C   C300      1.0  0.40223  0.07710  0.89027  1.0000
  H   H357      1.0  0.30456  0.07072  0.98348  1.0000
  H   H358      1.0  0.05260  0.22032  0.86144  1.0000
  H   H359      1.0  0.31612  0.41209  0.86838  1.0000
  H   H360      1.0  0.31143  0.40292  0.89073  1.0000
  H   H361      1.0  0.33625  0.38681  0.87890  1.0000
  H   H362      1.0  0.36882  0.45157  0.82962  1.0000
  H   H363      1.0  0.36195  0.40408  0.90442  1.0000
  H   H364      1.0  0.23487  0.33648  0.97180  1.0000
  C   C301      1.0  0.29998  0.08432  0.99515  1.0000
  N   N21       1.0  0.08283  0.22083  0.91931  1.0000
  C   C302      1.0  0.10705  0.21481  0.91174  1.0000
  C   C303      1.0  0.08443  0.24823  0.92951  1.0000
  C   C304      1.0  0.07716  0.19677  0.93150  1.0000
  C   C305      1.0  0.06347  0.22345  0.90592  1.0000
  C   C306      1.0  0.06764  0.21962  0.88761  1.0000
  C   C307      1.0  0.03949  0.23032  0.91109  1.0000
  C   C308      1.0  0.04891  0.22266  0.87538  1.0000
  C   C309      1.0  0.02096  0.23354  0.89871  1.0000
  C   C310      1.0  0.02571  0.22980  0.88089  1.0000
  H   H365      1.0  0.10748  0.19395  0.90439  1.0000
  H   H366      1.0  0.11275  0.23242  0.90275  1.0000
  H   H367      1.0  0.12132  0.21342  0.92206  1.0000
  H   H368      1.0  0.06869  0.25174  0.93826  1.0000
  H   H369      1.0  0.08531  0.26725  0.92055  1.0000
  H   H370      1.0  0.10085  0.24905  0.93798  1.0000
  H   H371      1.0  0.06004  0.20052  0.93876  1.0000
  H   H372      1.0  0.07527  0.17595  0.92420  1.0000
  H   H373      1.0  0.09159  0.19386  0.94158  1.0000
  H   H374      1.0  0.08529  0.21510  0.88225  1.0000
  H   H375      1.0  0.03497  0.23370  0.92475  1.0000
  H   H376      1.0  0.33075  0.14930  0.92116  1.0000
  H   H377      1.0  0.00284  0.23934  0.90282  1.0000
  H   H378      1.0  0.01141  0.23283  0.87132  1.0000
  C   C311      1.0  0.25707  0.08071  0.99048  1.0000
  C   C312      1.0  0.16575  0.26426  0.00448  1.0000
  C   C313      1.0  0.29848  0.13683  0.90760  1.0000
  C   C314      1.0  0.00396  0.12202  0.78415  1.0000
  N   N22       1.0  0.43151  0.08688  0.84510  1.0000
  C   C315      1.0  0.45681  0.08739  0.85161  1.0000
  C   C316      1.0  0.42940  0.06216  0.83276  1.0000
  C   C317      1.0  0.42730  0.11414  0.83520  1.0000
  C   C318      1.0  0.41341  0.08394  0.85930  1.0000
  C   C319      1.0  0.38836  0.08465  0.85528  1.0000
  H   H379      1.0  0.46176  0.06662  0.85822  1.0000
  H   H380      1.0  0.44145  0.11757  0.82498  1.0000
  H   H381      1.0  0.45982  0.10555  0.86098  1.0000
  H   H382      1.0  0.43397  0.04144  0.83945  1.0000
  C   C320      1.0  0.00171  0.15171  0.78849  1.0000
  H   H383      1.0  0.41096  0.05988  0.82721  1.0000
  H   H384      1.0  0.42740  0.13320  0.84417  1.0000
  C   C321      1.0  0.42833  0.50418  0.87469  1.0000
  H   H385      1.0  0.40984  0.11405  0.82800  1.0000
  H   H386      1.0  0.38205  0.08670  0.84190  1.0000
  H   H387      1.0  0.31278  0.45614  0.89784  1.0000
  S   S94       1.0  0.48178  0.09019  0.80208  1.0000
  S   S95       1.0  0.28788  0.02809  0.91522  1.0000
  H   H388      1.0  0.36176  0.44229  0.90996  1.0000
  H   H389      1.0  0.29388  0.03727  0.01430  1.0000
  H   H390      1.0  0.26452  0.13044  0.89460  1.0000
  C   C322      1.0  0.30828  0.18638  0.91513  1.0000
  C   C323      1.0  0.35556  0.44143  0.85557  1.0000
  C   C324      1.0  0.31417  0.15686  0.91508  1.0000
  H   H391      1.0  0.18907  0.36914  0.95990  1.0000
  H   H392      1.0  0.04350  0.16493  0.76656  1.0000
  H   H393      1.0  0.31818  0.46389  0.87528  1.0000
  H   H394      1.0  0.46111  0.14188  0.78718  1.0000
  H   H395      1.0  0.33579  0.42084  0.91383  1.0000
  H   H396      1.0  0.35191  0.08092  0.86501  1.0000
  N   N23       1.0  0.28006  0.22795  0.90865  1.0000
  C   C325      1.0  0.28125  0.23859  0.92706  1.0000
  C   C326      1.0  0.29757  0.24444  0.89793  1.0000
  C   C327      1.0  0.25553  0.23475  0.90187  1.0000
  H   H397      1.0  0.29974  0.23765  0.93265  1.0000
  H   H398      1.0  0.27539  0.26168  0.92812  1.0000
  H   H399      1.0  0.26933  0.22558  0.93572  1.0000
  H   H400      1.0  0.29321  0.26808  0.89789  1.0000
  H   H401      1.0  0.24142  0.22326  0.90955  1.0000
  H   H402      1.0  0.25134  0.25835  0.90281  1.0000
  H   H403      1.0  0.25350  0.22886  0.88775  1.0000
  C   C328      1.0  0.00729  0.36381  0.76970  1.0000
  H   H404      1.0  0.27447  0.44664  0.99879  1.0000
  H   H405      1.0  0.41175  0.45007  0.83839  1.0000
  H   H406      1.0  0.33895  0.47672  0.89159  1.0000
  H   H407      1.0  0.31516  0.08257  0.00467  1.0000
  H   H408      1.0  0.27985  0.03118  0.99387  1.0000
  C   C329      1.0  0.24895  0.38538  0.01477  1.0000
  Fe  Fe45      1.0  0.99804  0.24006  0.80363  1.0000
  C   C330      1.0  0.26227  0.41092  0.01452  1.0000
  H   H409      1.0  0.19686  0.35800  0.98141  1.0000
  S   S96       1.0  0.34658  0.01198  0.89167  1.0000
  H   H410      1.0  0.44737  0.49938  0.87345  1.0000
  S   S97       1.0  0.30128  0.49614  0.98534  1.0000
  H   H411      1.0  0.26564  0.13330  0.00648  1.0000
  Fe  Fe46      1.0  0.99659  0.30598  0.81095  1.0000
  C   C331      1.0  0.49092  0.11220  0.78397  1.0000
  C   C332      1.0  0.39187  0.50686  0.89301  1.0000
  C   C333      1.0  0.48458  0.15623  0.76631  1.0000
  S   S98       1.0  0.02217  0.75400  0.23182  1.0000
  C   C334      1.0  0.23944  0.65520  0.16216  1.0000
  Fe  Fe47      1.0  0.02836  0.76099  0.20278  1.0000
  S   S99       1.0  0.06766  0.75323  0.19419  1.0000
  C   C335      1.0  0.30630  0.58150  0.17599  1.0000
  C   C336      1.0  0.44297  0.53906  0.13706  1.0000
  H   H412      1.0  0.35729  0.88779  0.16310  1.0000
  H   H413      1.0  0.24716  0.54690  0.06158  1.0000
  C   C337      1.0  0.37462  0.91326  0.18249  1.0000
  C   C338      1.0  0.41144  0.52280  0.17787  1.0000
  C   C339      1.0  0.27109  0.57511  0.02390  1.0000
  H   H414      1.0  0.47993  0.90190  0.24469  1.0000
  Fe  Fe48      1.0  0.99780  0.79327  0.23102  1.0000
  H   H415      1.0  0.26891  0.63314  0.03509  1.0000
  Fe  Fe49      1.0  0.28058  0.53753  0.10638  1.0000
  S   S100      1.0  0.24739  0.56691  0.10683  1.0000
  Fe  Fe50      1.0  0.29950  0.97943  0.09882  1.0000
  S   S101      1.0  0.29374  0.93055  0.09575  1.0000
  S   S102      1.0  0.31833  0.55423  0.10541  1.0000
  S   S103      1.0  0.33821  0.99384  0.09512  1.0000
  Fe  Fe51      1.0  0.20243  0.79912  0.10957  1.0000
  S   S104      1.0  0.16972  0.79065  0.09268  1.0000
  S   S105      1.0  0.20852  0.84578  0.11876  1.0000
  Fe  Fe52      1.0  0.21279  0.73386  0.11373  1.0000
  S   S106      1.0  0.18039  0.72128  0.09785  1.0000
  S   S107      1.0  0.24095  0.70185  0.12404  1.0000
  Fe  Fe53      1.0  0.19224  0.75654  0.07940  1.0000
  S   S108      1.0  0.19521  0.74215  0.05091  1.0000
  Fe  Fe54      1.0  0.16029  0.75633  0.11258  1.0000
  S   S109      1.0  0.11982  0.75408  0.11890  1.0000
  S   S110      1.0  0.22579  0.76762  0.09465  1.0000
  S   S111      1.0  0.19191  0.76630  0.13019  1.0000
  C   C340      1.0  0.26939  0.90781  0.10195  1.0000
  C   C341      1.0  0.25025  0.91767  0.11235  1.0000
  C   C342      1.0  0.23176  0.89841  0.11735  1.0000
  C   C343      1.0  0.23208  0.86923  0.11189  1.0000
  C   C344      1.0  0.25119  0.85944  0.10146  1.0000
  C   C345      1.0  0.26979  0.87860  0.09662  1.0000
  H   H416      1.0  0.24969  0.94006  0.11655  1.0000
  H   H417      1.0  0.21707  0.90623  0.12542  1.0000
  H   H418      1.0  0.25175  0.83707  0.09721  1.0000
  H   H419      1.0  0.28454  0.87073  0.08862  1.0000
  C   C346      1.0  0.24670  0.60512  0.10967  1.0000
  C   C347      1.0  0.26731  0.62090  0.11417  1.0000
  C   C348      1.0  0.26543  0.65072  0.11806  1.0000
  C   C349      1.0  0.24315  0.66533  0.11679  1.0000
  C   C350      1.0  0.22283  0.64985  0.11126  1.0000
  C   C351      1.0  0.22456  0.61985  0.10794  1.0000
  H   H420      1.0  0.28456  0.61009  0.11512  1.0000
  H   H421      1.0  0.28123  0.66251  0.12232  1.0000
  H   H422      1.0  0.20555  0.66073  0.11033  1.0000
  H   H423      1.0  0.20852  0.60790  0.10437  1.0000
  C   C352      1.0  0.02200  0.59486  0.23359  1.0000
  C   C353      1.0  0.18442  0.75985  0.03184  1.0000
  C   C354      1.0  0.17180  0.78617  0.03247  1.0000
  H   H424      1.0  0.21467  0.62851  0.14778  1.0000
  H   H425      1.0  0.16879  0.79678  0.04496  1.0000
  H   H426      1.0  0.42875  0.53459  0.07244  1.0000
  C   C355      1.0  0.02802  0.61964  0.22399  1.0000
  H   H427      1.0  0.42082  0.56854  0.08249  1.0000
  H   H428      1.0  0.48171  0.65355  0.24464  1.0000
  H   H429      1.0  0.46654  0.99160  0.14114  1.0000
  C   C356      1.0  0.23161  0.62916  0.15494  1.0000
  C   C357      1.0  0.33952  0.54037  0.02285  1.0000
  C   C358      1.0  0.38922  0.53206  0.17060  1.0000
  Fe  Fe55      1.0  0.32369  0.52255  0.08330  1.0000
  C   C359      1.0  0.24612  0.60439  0.15597  1.0000
  C   C360      1.0  0.00003  0.91176  0.24999  1.0000
  H   H430      1.0  0.41931  0.53438  0.18884  1.0000
  H   H431      1.0  0.38017  0.55073  0.17616  1.0000
  H   H432      1.0  0.28369  0.64215  0.05529  1.0000
  H   H433      1.0  0.28065  0.59302  0.01811  1.0000
  C   C361      1.0  0.04751  0.63770  0.22923  1.0000
  H   H434      1.0  0.06330  0.82190  0.18622  1.0000
  H   H435      1.0  0.31869  0.59841  0.17085  1.0000
  H   H436      1.0  0.28234  0.53364  0.17266  1.0000
  H   H437      1.0  0.37603  0.53672  0.11346  1.0000
  C   C362      1.0  0.10569  0.75429  0.14000  1.0000
  C   C363      1.0  0.08049  0.75801  0.14109  1.0000
  C   C364      1.0  0.06853  0.75791  0.15749  1.0000
  C   C365      1.0  0.08163  0.75382  0.17305  1.0000
  C   C366      1.0  0.10683  0.75011  0.17195  1.0000
  C   C367      1.0  0.11882  0.75051  0.15558  1.0000
  H   H438      1.0  0.07011  0.76094  0.12916  1.0000
  H   H439      1.0  0.04917  0.76083  0.15808  1.0000
  H   H440      1.0  0.11718  0.74697  0.18388  1.0000
  H   H441      1.0  0.13816  0.74743  0.15502  1.0000
  H   H442      1.0  0.09276  0.65930  0.22390  1.0000
  C   C368      1.0  0.42507  0.52896  0.10809  1.0000
  H   H443      1.0  0.23977  0.58522  0.14923  1.0000
  S   S112      1.0  0.35079  0.53061  0.14753  1.0000
  H   H444      1.0  0.29337  0.93994  0.13736  1.0000
  N   N24       1.0  0.28434  0.57861  0.16486  1.0000
  C   C369      1.0  0.29239  0.57250  0.14670  1.0000
  C   C370      1.0  0.27063  0.55323  0.17141  1.0000
  C   C371      1.0  0.26882  0.60482  0.16468  1.0000
  C   C372      1.0  0.27619  0.63171  0.17208  1.0000
  C   C373      1.0  0.26163  0.65647  0.17073  1.0000
  H   H445      1.0  0.30281  0.59097  0.14125  1.0000
  H   H446      1.0  0.30420  0.55305  0.14618  1.0000
  H   H447      1.0  0.27698  0.56833  0.13768  1.0000
  C   C374      1.0  0.25245  0.54919  0.04797  1.0000
  H   H448      1.0  0.25581  0.54677  0.16235  1.0000
  H   H449      1.0  0.29080  0.60603  0.07754  1.0000
  H   H450      1.0  0.26256  0.55784  0.18451  1.0000
  H   H451      1.0  0.29331  0.63441  0.17865  1.0000
  H   H452      1.0  0.26779  0.67702  0.17597  1.0000
  H   H453      1.0  0.30293  0.57957  0.06239  1.0000
  H   H454      1.0  0.06209  0.84216  0.15616  1.0000
  N   N25       1.0  0.14603  0.83945  0.15029  1.0000
  C   C375      1.0  0.14815  0.87022  0.14487  1.0000
  C   C376      1.0  0.16839  0.83168  0.16007  1.0000
  C   C377      1.0  0.14524  0.82113  0.13430  1.0000
  C   C378      1.0  0.12364  0.83521  0.16057  1.0000
  C   C379      1.0  0.10081  0.84199  0.15306  1.0000
  C   C380      1.0  0.12361  0.82382  0.17796  1.0000
  C   C381      1.0  0.07935  0.83747  0.16228  1.0000
  C   C382      1.0  0.10202  0.81952  0.18708  1.0000
  C   C383      1.0  0.07997  0.82623  0.17925  1.0000
  H   H455      1.0  0.14772  0.88489  0.15650  1.0000
  H   H456      1.0  0.16538  0.87424  0.13770  1.0000
  H   H457      1.0  0.13346  0.87698  0.13578  1.0000
  H   H458      1.0  0.17056  0.84514  0.17211  1.0000
  H   H459      1.0  0.18486  0.83520  0.15194  1.0000
  H   H460      1.0  0.16865  0.80832  0.16373  1.0000
  H   H461      1.0  0.12957  0.82602  0.12567  1.0000
  H   H462      1.0  0.16165  0.82400  0.12610  1.0000
  H   H463      1.0  0.14411  0.79784  0.13786  1.0000
  H   H464      1.0  0.09935  0.85033  0.13983  1.0000
  H   H465      1.0  0.13993  0.81748  0.18471  1.0000
  C   C384      1.0  0.10465  0.76648  0.02941  1.0000
  H   H466      1.0  0.10221  0.80989  0.20009  1.0000
  H   H467      1.0  0.40867  0.55460  0.12944  1.0000
  H   H468      1.0  0.01955  0.67378  0.20817  1.0000
  C   C385      1.0  0.03868  0.67054  0.20410  1.0000
  Fe  Fe56      1.0  0.47143  0.99497  0.20364  1.0000
  H   H469      1.0  0.01662  0.62464  0.21287  1.0000
  H   H470      1.0  0.08143  0.64193  0.20442  1.0000
  H   H471      1.0  0.39080  0.94372  0.20044  1.0000
  C   C386      1.0  0.48817  0.89369  0.25660  1.0000
  H   H472      1.0  0.29693  0.93049  0.16021  1.0000
  H   H473      1.0  0.25012  0.88935  0.01657  1.0000
  H   H474      1.0  0.38838  0.57026  0.10508  1.0000
  H   H475      1.0  0.34460  0.89096  0.13457  1.0000
  H   H476      1.0  0.34021  0.97997  0.16430  1.0000
  C   C387      1.0  0.00033  0.88184  0.24595  1.0000
  H   H477      1.0  0.36928  0.54862  0.09163  1.0000
  H   H478      1.0  0.35227  0.55801  0.02348  1.0000
  S   S113      1.0  0.46431  0.99844  0.23281  1.0000
  H   H479      1.0  0.38709  0.98188  0.13419  1.0000
  C   C388      1.0  0.07949  0.66136  0.21300  1.0000
  H   H480      1.0  0.31868  0.96012  0.01868  1.0000
  S   S114      1.0  0.34337  0.53856  0.05909  1.0000
  C   C389      1.0  0.03479  0.58759  0.24875  1.0000
  H   H481      1.0  0.04413  0.69090  0.19730  1.0000
  H   H482      1.0  0.34143  0.97126  0.13410  1.0000
  H   H483      1.0  0.00660  0.58191  0.22972  1.0000
  N   N26       1.0  0.11160  0.74160  0.05895  1.0000
  C   C390      1.0  0.13595  0.74006  0.06697  1.0000
  C   C391      1.0  0.09911  0.76708  0.06679  1.0000
  C   C392      1.0  0.09798  0.71534  0.06407  1.0000
  C   C393      1.0  0.11378  0.74296  0.03955  1.0000
  H   H484      1.0  0.05795  0.71004  0.22441  1.0000
  C   C394      1.0  0.06041  0.62933  0.24459  1.0000
  H   H485      1.0  0.35973  0.94053  0.12836  1.0000
  H   H486      1.0  0.30554  0.96560  0.15234  1.0000
  C   C395      1.0  0.48374  0.99297  0.13357  1.0000
  H   H487      1.0  0.13503  0.74009  0.08160  1.0000
  H   H488      1.0  0.14609  0.72021  0.06316  1.0000
  H   H489      1.0  0.14709  0.75883  0.06285  1.0000
  H   H490      1.0  0.10906  0.78750  0.06405  1.0000
  H   H491      1.0  0.09797  0.76535  0.08141  1.0000
  H   H492      1.0  0.08028  0.76916  0.06183  1.0000
  H   H493      1.0  0.10745  0.69505  0.06017  1.0000
  H   H494      1.0  0.09550  0.71412  0.07861  1.0000
  H   H495      1.0  0.07981  0.71513  0.05780  1.0000
  C   C396      1.0  0.12562  0.72033  0.03023  1.0000
  H   H496      1.0  0.08495  0.68071  0.20518  1.0000
  H   H497      1.0  0.38490  0.89503  0.18753  1.0000
  S   S115      1.0  0.29399  0.00656  0.12309  1.0000
  C   C397      1.0  0.41375  0.98023  0.15506  1.0000
  N   N27       1.0  0.05440  0.66423  0.21951  1.0000
  H   H498      1.0  0.32144  0.98827  0.04643  1.0000
  N   N28       1.0  0.26928  0.59872  0.05425  1.0000
  C   C398      1.0  0.28061  0.62421  0.04573  1.0000
  C   C399      1.0  0.24652  0.60882  0.06257  1.0000
  C   C400      1.0  0.28596  0.58842  0.06817  1.0000
  C   C401      1.0  0.26418  0.57459  0.04192  1.0000
  C   C402      1.0  0.32509  0.98219  0.01834  1.0000
  C   C403      1.0  0.00422  0.66929  0.26486  1.0000
  S   S116      1.0  0.99874  0.82317  0.25535  1.0000
  H   H499      1.0  0.24957  0.62766  0.07149  1.0000
  H   H500      1.0  0.07528  0.64205  0.24951  1.0000
  H   H501      1.0  0.47733  0.51929  0.14257  1.0000
  H   H502      1.0  0.23808  0.59187  0.07089  1.0000
  H   H503      1.0  0.31903  0.88623  0.14920  1.0000
  C   C404      1.0  0.33198  0.52685  0.03846  1.0000
  C   C405      1.0  0.36488  0.96417  0.18343  1.0000
  N   N29       1.0  0.40525  0.53133  0.09504  1.0000
  H   H504      1.0  0.03441  0.69231  0.23662  1.0000
  H   H505      1.0  0.09584  0.78500  0.03525  1.0000
  C   C406      1.0  0.42301  0.99356  0.17031  1.0000
  H   H506      1.0  0.13357  0.70210  0.03705  1.0000
  C   C407      1.0  0.99962  0.86126  0.25944  1.0000
  H   H507      1.0  0.03947  0.65289  0.19415  1.0000
  C   C408      1.0  0.41395  0.54657  0.07912  1.0000
  H   H508      1.0  0.33059  0.94535  0.11859  1.0000
  S   S117      1.0  0.44727  0.97659  0.18183  1.0000
  H   H509      1.0  0.39923  0.54926  0.06918  1.0000
  C   C409      1.0  0.48407  0.86474  0.26188  1.0000
  H   H510      1.0  0.44166  0.54881  0.15001  1.0000
  H   H511      1.0  0.29861  0.61859  0.04015  1.0000
  H   H512      1.0  0.36779  0.98558  0.18894  1.0000
  H   H513      1.0  0.22860  0.67467  0.16058  1.0000
  C   C410      1.0  0.37787  0.94061  0.18988  1.0000
  H   H514      1.0  0.30155  0.58665  0.18986  1.0000
  H   H515      1.0  0.31721  0.56110  0.17611  1.0000
  H   H516      1.0  0.06537  0.68799  0.24283  1.0000
  N   N30       1.0  0.33000  0.93060  0.14542  1.0000
  C   C411      1.0  0.32712  0.90038  0.13898  1.0000
  C   C412      1.0  0.30546  0.94214  0.14905  1.0000
  C   C413      1.0  0.34090  0.94768  0.13104  1.0000
  C   C414      1.0  0.34546  0.93321  0.16125  1.0000
  C   C415      1.0  0.34897  0.96065  0.16931  1.0000
  C   C416      1.0  0.35865  0.90943  0.16838  1.0000
  C   C417      1.0  0.05303  0.68967  0.23138  1.0000
  C   C418      1.0  0.39389  0.99228  0.14591  1.0000
  H   H517      1.0  0.31489  0.89937  0.12729  1.0000
  C   C419      1.0  0.38388  0.54745  0.10169  1.0000
  S   S118      1.0  0.00635  0.80228  0.20258  1.0000
  H   H518      1.0  0.23302  0.61544  0.05248  1.0000
  C   C420      1.0  0.42406  0.54222  0.12499  1.0000
  H   H519      1.0  0.47266  0.85097  0.25391  1.0000
  H   H520      1.0  0.27787  0.57091  0.07618  1.0000
  H   H521      1.0  0.42182  0.96031  0.15037  1.0000
  C   C421      1.0  0.32685  0.99799  0.03412  1.0000
  H   H522      1.0  0.01162  0.69089  0.26420  1.0000
  C   C422      1.0  0.37875  0.51755  0.15618  1.0000
  C   C423      1.0  0.46317  0.52245  0.13287  1.0000
  H   H523      1.0  0.15292  0.81885  0.01735  1.0000
  C   C424      1.0  0.16294  0.79871  0.01682  1.0000
  H   H524      1.0  0.00078  0.87469  0.23240  1.0000
  S   S119      1.0  0.48822  0.59258  0.23823  1.0000
  S   S120      1.0  0.46778  0.51068  0.22913  1.0000
  Fe  Fe57      1.0  0.32803  0.51728  0.12355  1.0000
  H   H525      1.0  0.00035  0.92739  0.23940  1.0000
  C   C425      1.0  0.05392  0.60482  0.25426  1.0000
  C   C426      1.0  0.49004  0.64463  0.25633  1.0000
  H   H526      1.0  0.48352  0.97473  0.12403  1.0000
  H   H527      1.0  0.22238  0.84905  0.01976  1.0000
  H   H528      1.0  0.02934  0.56914  0.25661  1.0000
  C   C427      1.0  0.24775  0.52592  0.03669  1.0000
  S   S121      1.0  0.99729  0.73266  0.19477  1.0000
  H   H529      1.0  0.48930  0.96147  0.16343  1.0000
  C   C428      1.0  0.44628  0.51292  0.10405  1.0000
  C   C429      1.0  0.25453  0.52727  0.01908  1.0000
  C   C430      1.0  0.46492  0.50957  0.11634  1.0000
  S   S122      1.0  0.28522  0.50817  0.08300  1.0000
  C   C431      1.0  0.18842  0.74652  0.01551  1.0000
  C   C432      1.0  0.21428  0.93412  0.48270  1.0000
  C   C433      1.0  0.06378  0.92348  0.28138  1.0000
  H   H530      1.0  0.49067  0.68591  0.27001  1.0000
  H   H531      1.0  0.25364  0.99477  0.50472  1.0000
  C   C434      1.0  0.10034  0.89933  0.30368  1.0000
  C   C435      1.0  0.12630  0.90145  0.32936  1.0000
  S   S123      1.0  0.47305  0.74996  0.31318  1.0000
  C   C436      1.0  0.08654  0.53812  0.39011  1.0000
  Fe  Fe58      1.0  0.48127  0.76082  0.34153  1.0000
  S   S124      1.0  0.45893  0.76340  0.36696  1.0000
  N   N31       1.0  0.19916  0.91245  0.47345  1.0000
  H   H532      1.0  0.22824  0.88847  0.46096  1.0000
  S   S125      1.0  0.12208  0.53358  0.41546  1.0000
  C   C437      1.0  0.07462  0.53087  0.37427  1.0000
  C   C438      1.0  0.10780  0.52362  0.39533  1.0000
  C   C439      1.0  0.40412  0.67848  0.34944  1.0000
  Fe  Fe59      1.0  0.21222  0.53615  0.42352  1.0000
  S   S126      1.0  0.23898  0.56743  0.41114  1.0000
  Fe  Fe60      1.0  0.19794  0.97624  0.42056  1.0000
  S   S127      1.0  0.20845  0.93218  0.40904  1.0000
  S   S128      1.0  0.18147  0.55325  0.43938  1.0000
  S   S129      1.0  0.15883  0.98022  0.42827  1.0000
  Fe  Fe61      1.0  0.27803  0.73173  0.42835  1.0000
  S   S130      1.0  0.31611  0.71524  0.43032  1.0000
  S   S131      1.0  0.24447  0.70316  0.42727  1.0000
  Fe  Fe62      1.0  0.29339  0.79544  0.43389  1.0000
  S   S132      1.0  0.33269  0.78282  0.43623  1.0000
  S   S133      1.0  0.28689  0.84364  0.43904  1.0000
  Fe  Fe63      1.0  0.32606  0.75331  0.41315  1.0000
  S   S134      1.0  0.34732  0.75052  0.38725  1.0000
  Fe  Fe64      1.0  0.31932  0.74634  0.45320  1.0000
  S   S135      1.0  0.33640  0.73213  0.47907  1.0000
  S   S136      1.0  0.28730  0.76816  0.40975  1.0000
  S   S137      1.0  0.28074  0.76054  0.45225  1.0000
  C   C440      1.0  0.22975  0.90760  0.41811  1.0000
  C   C441      1.0  0.22773  0.87785  0.41435  1.0000
  C   C442      1.0  0.24496  0.85784  0.42071  1.0000
  C   C443      1.0  0.26446  0.86751  0.43080  1.0000
  C   C444      1.0  0.26634  0.89722  0.43467  1.0000
  C   C445      1.0  0.24912  0.91719  0.42834  1.0000
  H   H533      1.0  0.21287  0.87027  0.40634  1.0000
  H   H534      1.0  0.24328  0.83503  0.41766  1.0000
  H   H535      1.0  0.28140  0.90489  0.44244  1.0000
  H   H536      1.0  0.25109  0.94009  0.43106  1.0000
  C   C446      1.0  0.24393  0.66520  0.42337  1.0000
  C   C447      1.0  0.26297  0.65066  0.41507  1.0000
  C   C448      1.0  0.26131  0.62069  0.41160  1.0000
  C   C449      1.0  0.24090  0.60478  0.41673  1.0000
  C   C450      1.0  0.22217  0.61921  0.42547  1.0000
  C   C451      1.0  0.22358  0.64928  0.42858  1.0000
  H   H537      1.0  0.27870  0.66263  0.41093  1.0000
  H   H538      1.0  0.27587  0.60979  0.40478  1.0000
  H   H539      1.0  0.20640  0.60736  0.42953  1.0000
  H   H540      1.0  0.20879  0.66031  0.43504  1.0000
  H   H541      1.0  0.19601  0.61868  0.38988  1.0000
  C   C452      1.0  0.18581  0.61305  0.50086  1.0000
  H   H542      1.0  0.13225  0.63983  0.37419  1.0000
  H   H543      1.0  0.09037  0.59055  0.33766  1.0000
  H   H544      1.0  0.20180  0.86805  0.46444  1.0000
  C   C453      1.0  0.99879  0.90099  0.28102  1.0000
  C   C454      1.0  0.32465  0.74381  0.49960  1.0000
  C   C455      1.0  0.30523  0.76317  0.50052  1.0000
  Fe  Fe65      1.0  0.15915  0.51904  0.42572  1.0000
  H   H545      1.0  0.29754  0.77196  0.48860  1.0000
  C   C456      1.0  0.42765  0.76082  0.37212  1.0000
  C   C457      1.0  0.42058  0.76200  0.38989  1.0000
  C   C458      1.0  0.39614  0.75914  0.39479  1.0000
  C   C459      1.0  0.37840  0.75491  0.38193  1.0000
  C   C460      1.0  0.38543  0.75402  0.36415  1.0000
  C   C461      1.0  0.40986  0.75708  0.35924  1.0000
  H   H546      1.0  0.43414  0.76482  0.40000  1.0000
  H   H547      1.0  0.39107  0.75977  0.40852  1.0000
  H   H548      1.0  0.37188  0.75079  0.35408  1.0000
  H   H549      1.0  0.41495  0.75609  0.34553  1.0000
  S   S138      1.0  0.00695  0.54432  0.33659  1.0000
  H   H550      1.0  0.14093  0.89253  0.33718  1.0000
  H   H551      1.0  0.05879  0.54286  0.37020  1.0000
  H   H552      1.0  0.22092  0.87691  0.48286  1.0000
  H   H553      1.0  0.02274  0.65847  0.28903  1.0000
  H   H554      1.0  0.99856  0.85542  0.28753  1.0000
  H   H555      1.0  0.25505  0.67715  0.46094  1.0000
  C   C462      1.0  0.42397  0.68854  0.35885  1.0000
  H   H556      1.0  0.07123  0.98208  0.30771  1.0000
  H   H557      1.0  0.25303  0.90313  0.38225  1.0000
  C   C463      1.0  0.00086  0.62267  0.28035  1.0000
  H   H558      1.0  0.18133  0.89583  0.49648  1.0000
  H   H559      1.0  0.18914  0.57042  0.39919  1.0000
  C   C464      1.0  0.21316  0.88539  0.47037  1.0000
  H   H560      1.0  0.14572  0.97486  0.51482  1.0000
  N   N32       1.0  0.06769  0.93759  0.29874  1.0000
  C   C465      1.0  0.04515  0.93460  0.30899  1.0000
  C   C466      1.0  0.07204  0.96887  0.29546  1.0000
  H   H561      1.0  0.45456  0.62563  0.29185  1.0000
  H   H562      1.0  0.08025  0.92449  0.27308  1.0000
  C   C467      1.0  0.10510  0.59178  0.34706  1.0000
  H   H563      1.0  0.04107  0.91144  0.31169  1.0000
  S   S139      1.0  0.03280  0.52029  0.30049  1.0000
  N   N33       1.0  0.28201  0.66461  0.47995  1.0000
  H   H564      1.0  0.24384  0.93254  0.46383  1.0000
  H   H565      1.0  0.02951  0.94413  0.30183  1.0000
  C   C468      1.0  0.26883  0.63898  0.48652  1.0000
  C   C469      1.0  0.17695  0.90458  0.48322  1.0000
  H   H566      1.0  0.05816  0.97837  0.28651  1.0000
  H   H567      1.0  0.44554  0.67566  0.28069  1.0000
  C   C470      1.0  0.10701  0.00030  0.38169  1.0000
  C   C471      1.0  0.09544  0.93794  0.32499  1.0000
  H   H568      1.0  0.07941  0.55533  0.39828  1.0000
  C   C472      1.0  0.07270  0.00693  0.36152  1.0000
  H   H569      1.0  0.09002  0.97235  0.28934  1.0000
  H   H570      1.0  0.26820  0.96981  0.47791  1.0000
  H   H571      1.0  0.28550  0.71026  0.48580  1.0000
  H   H572      1.0  0.08840  0.96560  0.36833  1.0000
  C   C473      1.0  0.08797  0.92497  0.30894  1.0000
  H   H573      1.0  0.28003  0.65639  0.45195  1.0000
  C   C474      1.0  0.01043  0.65084  0.27901  1.0000
  C   C475      1.0  0.19878  0.63845  0.50362  1.0000
  C   C476      1.0  0.19151  0.92436  0.45622  1.0000
  H   H574      1.0  0.20389  0.65178  0.49252  1.0000
  C   C477      1.0  0.27761  0.69015  0.49146  1.0000
  C   C478      1.0  0.44663  0.68899  0.35101  1.0000
  C   C479      1.0  0.20667  0.94868  0.49823  1.0000
  C   C480      1.0  0.23708  0.94214  0.47578  1.0000
  H   H575      1.0  0.18031  0.94419  0.45795  1.0000
  H   H576      1.0  0.46174  0.68867  0.29920  1.0000
  C   C481      1.0  0.30820  0.65805  0.47982  1.0000
  H   H577      1.0  0.11967  0.93685  0.34717  1.0000
  H   H578      1.0  0.42167  0.69664  0.37215  1.0000
  C   C482      1.0  0.08932  0.98878  0.37027  1.0000
  H   H579      1.0  0.20708  0.93054  0.44795  1.0000
  C   C483      1.0  0.24303  0.97761  0.49882  1.0000
  C   C484      1.0  0.22089  0.97012  0.50608  1.0000
  H   H580      1.0  0.18937  0.94479  0.50424  1.0000
  H   H581      1.0  0.18851  0.61179  0.36727  1.0000
  H   H582      1.0  0.28639  0.93224  0.39432  1.0000
  C   C485      1.0  0.13734  0.56821  0.36323  1.0000
  H   H583      1.0  0.28380  0.69336  0.45758  1.0000
  N   N34       1.0  0.43352  0.65816  0.30553  1.0000
  C   C486      1.0  0.44349  0.68204  0.29474  1.0000
  C   C487      1.0  0.45081  0.63351  0.30545  1.0000
  C   C488      1.0  0.41106  0.64815  0.29676  1.0000
  C   C489      1.0  0.42982  0.66840  0.32381  1.0000
  C   C490      1.0  0.44961  0.67902  0.33379  1.0000
  C   C491      1.0  0.40685  0.66849  0.33217  1.0000
  C   C492      1.0  0.16649  0.00435  0.49899  1.0000
  S   S140      1.0  0.00996  0.60029  0.29840  1.0000
  H   H584      1.0  0.38644  0.67883  0.35556  1.0000
  H   H585      1.0  0.12849  0.86834  0.30956  1.0000
  C   C493      1.0  0.24283  0.59654  0.48198  1.0000
  H   H586      1.0  0.43175  0.70165  0.29532  1.0000
  H   H587      1.0  0.46859  0.63942  0.31114  1.0000
  C   C494      1.0  0.11927  0.88791  0.31379  1.0000
  H   H588      1.0  0.44389  0.61499  0.31329  1.0000
  H   H589      1.0  0.39752  0.66597  0.29572  1.0000
  H   H590      1.0  0.41464  0.64049  0.28309  1.0000
  H   H591      1.0  0.40289  0.62955  0.30387  1.0000
  H   H592      1.0  0.18109  0.60648  0.48759  1.0000
  H   H593      1.0  0.39066  0.66116  0.32567  1.0000
  H   H594      1.0  0.31215  0.63830  0.47188  1.0000
  S   S141      1.0  0.21180  0.99571  0.44567  1.0000
  H   H595      1.0  0.04904  0.93430  0.27379  1.0000
  H   H596      1.0  0.25190  0.62547  0.46157  1.0000
  H   H597      1.0  0.11445  0.54685  0.34426  1.0000
  H   H598      1.0  0.03436  0.51387  0.40568  1.0000
  H   H599      1.0  0.08655  0.95706  0.33009  1.0000
  H   H600      1.0  0.99827  0.90787  0.29458  1.0000
  C   C495      1.0  0.27483  0.67305  0.46185  1.0000
  H   H601      1.0  0.18073  0.90858  0.44843  1.0000
  N   N35       1.0  0.33946  0.85323  0.39611  1.0000
  C   C496      1.0  0.34064  0.82169  0.39235  1.0000
  C   C497      1.0  0.35816  0.86746  0.38523  1.0000
  C   C498      1.0  0.34561  0.85724  0.41495  1.0000
  C   C499      1.0  0.31555  0.86635  0.39232  1.0000
  C   C500      1.0  0.31155  0.89639  0.39528  1.0000
  C   C501      1.0  0.29581  0.85018  0.38549  1.0000
  C   C502      1.0  0.28929  0.90942  0.39156  1.0000
  C   C503      1.0  0.27366  0.86350  0.38175  1.0000
  C   C504      1.0  0.27043  0.89304  0.38473  1.0000
  H   H602      1.0  0.33726  0.81679  0.37822  1.0000
  H   H603      1.0  0.35866  0.81226  0.39554  1.0000
  H   H604      1.0  0.32739  0.80946  0.40036  1.0000
  H   H605      1.0  0.35358  0.86584  0.37099  1.0000
  H   H606      1.0  0.37623  0.85721  0.38714  1.0000
  H   H607      1.0  0.36020  0.89080  0.38849  1.0000
  H   H608      1.0  0.33165  0.84731  0.42350  1.0000
  H   H609      1.0  0.36315  0.84684  0.41842  1.0000
  H   H610      1.0  0.34689  0.88039  0.41879  1.0000
  H   H611      1.0  0.32553  0.91000  0.40068  1.0000
  H   H612      1.0  0.29683  0.82712  0.38314  1.0000
  H   H613      1.0  0.09568  0.88759  0.29188  1.0000
  H   H614      1.0  0.25867  0.85071  0.37693  1.0000
  N   N36       1.0  0.16227  0.59632  0.38576  1.0000
  C   C505      1.0  0.18074  0.61767  0.38029  1.0000
  C   C506      1.0  0.15169  0.60578  0.40274  1.0000
  C   C507      1.0  0.17489  0.56838  0.38891  1.0000
  C   C508      1.0  0.14302  0.59438  0.37224  1.0000
  C   C509      1.0  0.12900  0.61921  0.36789  1.0000
  H   H615      1.0  0.09955  0.63691  0.35261  1.0000
  S   S142      1.0  0.05095  0.99091  0.34719  1.0000
  C   C510      1.0  0.11436  0.92639  0.33496  1.0000
  C   C511      1.0  0.15794  0.99307  0.51497  1.0000
  H   H616      1.0  0.17333  0.64000  0.37930  1.0000
  H   H617      1.0  0.28612  0.68803  0.50464  1.0000
  H   H618      1.0  0.14409  0.62804  0.40214  1.0000
  H   H619      1.0  0.16536  0.60579  0.41350  1.0000
  H   H620      1.0  0.13687  0.59099  0.40682  1.0000
  H   H621      1.0  0.18415  0.56030  0.37689  1.0000
  H   H622      1.0  0.16210  0.55155  0.39361  1.0000
  H   H623      1.0  0.14666  0.54803  0.36574  1.0000
  H   H624      1.0  0.46190  0.69757  0.35826  1.0000
  Fe  Fe66      1.0  0.17286  0.00235  0.45264  1.0000
  H   H625      1.0  0.46758  0.67991  0.32830  1.0000
  H   H626      1.0  0.31876  0.67615  0.47402  1.0000
  H   H627      1.0  0.16461  0.92360  0.48473  1.0000
  C   C512      1.0  0.25117  0.96355  0.48375  1.0000
  H   H628      1.0  0.25796  0.69417  0.49322  1.0000
  C   C513      1.0  0.25439  0.62113  0.47543  1.0000
  H   H629      1.0  0.04619  0.94585  0.32191  1.0000
  C   C514      1.0  0.11872  0.56714  0.35080  1.0000
  H   H630      1.0  0.23197  0.58309  0.47332  1.0000
  H   H631      1.0  0.01823  0.52761  0.37569  1.0000
  C   C515      1.0  0.99908  0.87112  0.27698  1.0000
  C   C516      1.0  0.48807  0.00525  0.30573  1.0000
  Fe  Fe67      1.0  0.00406  0.55309  0.30727  1.0000
  H   H632      1.0  0.16626  0.88784  0.47613  1.0000
  H   H633      1.0  0.31549  0.65450  0.49328  1.0000
  Fe  Fe68      1.0  0.99583  0.98899  0.29611  1.0000
  H   H634      1.0  0.05804  0.90049  0.28278  1.0000
  S   S143      1.0  0.15779  0.98769  0.47898  1.0000
  C   C517      1.0  0.24527  0.58895  0.49961  1.0000
  H   H635      1.0  0.06327  0.59949  0.26638  1.0000
  C   C518      1.0  0.11028  0.61780  0.35554  1.0000
  Fe  Fe69      1.0  0.19174  0.51892  0.45899  1.0000
  H   H636      1.0  0.47253  0.00411  0.31495  1.0000
  C   C519      1.0  0.19398  0.51065  0.50575  1.0000
  S   S144      1.0  0.99826  0.95976  0.27166  1.0000
  H   H637      1.0  0.11955  0.98601  0.38836  1.0000
  C   C520      1.0  0.99899  0.92160  0.26752  1.0000
  H   H638      1.0  0.46758  0.99429  0.27482  1.0000
  S   S145      1.0  0.20156  0.53104  0.48703  1.0000
  H   H639      1.0  0.48060  0.79450  0.40043  1.0000
  S   S146      1.0  0.48861  0.81654  0.28318  1.0000
  C   C521      1.0  0.27123  0.63029  0.50435  1.0000
  H   H640      1.0  0.49102  0.98311  0.30016  1.0000
  H   H641      1.0  0.16980  0.57587  0.51185  1.0000
  H   H642      1.0  0.34960  0.71791  0.51476  1.0000
  Fe  Fe70      1.0  0.03387  0.50977  0.32946  1.0000
  H   H643      1.0  0.23616  0.56991  0.50455  1.0000
  C   C522      1.0  0.08364  0.50868  0.36354  1.0000
  C   C523      1.0  0.17934  0.59554  0.51508  1.0000
  C   C524      1.0  0.25944  0.60576  0.51078  1.0000
  H   H644      1.0  0.28255  0.64221  0.51339  1.0000
  H   H645      1.0  0.45333  0.81746  0.74594  1.0000
  H   H646      1.0  0.38930  0.83969  0.73788  1.0000
  H   H647      1.0  0.41814  0.90215  0.72520  1.0000
  C   C525      1.0  0.18562  0.60320  0.53263  1.0000
  H   H648      1.0  0.28211  0.81947  0.57703  1.0000
  C   C526      1.0  0.26674  0.88330  0.55760  1.0000
  Fe  Fe71      1.0  0.29191  0.80002  0.61434  1.0000
  S   S147      1.0  0.32398  0.79675  0.59637  1.0000
  S   S148      1.0  0.28422  0.84693  0.62252  1.0000
  Fe  Fe72      1.0  0.28687  0.73305  0.61540  1.0000
  S   S149      1.0  0.31826  0.72641  0.59710  1.0000
  S   S150      1.0  0.26995  0.69431  0.62957  1.0000
  Fe  Fe73      1.0  0.33698  0.76041  0.61375  1.0000
  S   S151      1.0  0.37650  0.75470  0.62242  1.0000
  Fe  Fe74      1.0  0.30232  0.76357  0.58158  1.0000
  S   S152      1.0  0.29243  0.77171  0.55280  1.0000
  S   S153      1.0  0.30635  0.76555  0.63264  1.0000
  S   S154      1.0  0.26954  0.76818  0.59902  1.0000
  H   H649      1.0  0.42240  0.94442  0.74433  1.0000
  C   C527      1.0  0.16231  0.56132  0.54384  1.0000
  H   H650      1.0  0.19919  0.55518  0.56498  1.0000
  C   C528      1.0  0.16511  0.00520  0.53118  1.0000
  C   C529      1.0  0.31831  0.71213  0.66486  1.0000
  C   C530      1.0  0.35680  0.68641  0.68758  1.0000
  Fe  Fe75      1.0  0.19161  0.98271  0.60724  1.0000
  S   S155      1.0  0.19552  0.93334  0.60950  1.0000
  Fe  Fe76      1.0  0.20090  0.54223  0.60487  1.0000
  S   S156      1.0  0.21086  0.58841  0.59651  1.0000
  S   S157      1.0  0.15977  0.99357  0.58984  1.0000
  S   S158      1.0  0.16339  0.52715  0.59740  1.0000
  H   H651      1.0  0.16950  0.54563  0.53411  1.0000
  Fe  Fe77      1.0  0.46302  0.76408  0.70812  1.0000
  S   S159      1.0  0.42418  0.77211  0.69869  1.0000
  H   H652      1.0  0.09515  0.62641  0.71689  1.0000
  S   S160      1.0  0.46795  0.75137  0.73656  1.0000
  H   H653      1.0  0.31655  0.65694  0.67542  1.0000
  H   H654      1.0  0.13037  0.54402  0.65545  1.0000
  H   H655      1.0  0.41837  0.69833  0.66480  1.0000
  H   H656      1.0  0.37716  0.68742  0.71181  1.0000
  C   C531      1.0  0.20902  0.51224  0.52060  1.0000
  H   H657      1.0  0.15354  0.61462  0.55810  1.0000
  H   H658      1.0  0.27564  0.88097  0.52949  1.0000
  C   C532      1.0  0.09731  0.54443  0.67069  1.0000
  H   H659      1.0  0.29008  0.88104  0.58947  1.0000
  C   C533      1.0  0.40118  0.69448  0.67112  1.0000
  C   C534      1.0  0.44321  0.84901  0.71756  1.0000
  C   C535      1.0  0.38954  0.76076  0.64361  1.0000
  C   C536      1.0  0.37566  0.76893  0.65816  1.0000
  C   C537      1.0  0.38658  0.77234  0.67484  1.0000
  C   C538      1.0  0.41153  0.76783  0.67723  1.0000
  C   C539      1.0  0.42549  0.75997  0.66265  1.0000
  C   C540      1.0  0.41452  0.75638  0.64598  1.0000
  H   H660      1.0  0.35652  0.77271  0.65655  1.0000
  H   H661      1.0  0.37558  0.77851  0.68597  1.0000
  H   H662      1.0  0.44470  0.75657  0.66421  1.0000
  H   H663      1.0  0.42547  0.75019  0.63483  1.0000
  C   C541      1.0  0.30558  0.76049  0.53266  1.0000
  C   C542      1.0  0.32509  0.74121  0.53181  1.0000
  H   H664      1.0  0.31338  0.85743  0.58255  1.0000
  H   H665      1.0  0.33288  0.73273  0.54382  1.0000
  C   C543      1.0  0.07699  0.58127  0.73541  1.0000
  C   C544      1.0  0.25458  0.66440  0.61991  1.0000
  C   C545      1.0  0.24871  0.64038  0.63047  1.0000
  C   C546      1.0  0.23590  0.61657  0.62349  1.0000
  C   C547      1.0  0.22849  0.61672  0.60589  1.0000
  C   C548      1.0  0.23448  0.64066  0.59532  1.0000
  C   C549      1.0  0.24759  0.66425  0.60222  1.0000
  H   H666      1.0  0.25390  0.64029  0.64418  1.0000
  H   H667      1.0  0.23132  0.59843  0.63181  1.0000
  H   H668      1.0  0.22882  0.64109  0.58171  1.0000
  H   H669      1.0  0.25189  0.68257  0.59395  1.0000
  C   C550      1.0  0.25913  0.87043  0.61914  1.0000
  C   C551      1.0  0.26239  0.90050  0.62114  1.0000
  C   C552      1.0  0.24325  0.92015  0.61813  1.0000
  C   C553      1.0  0.22047  0.90986  0.61334  1.0000
  C   C554      1.0  0.21712  0.87977  0.61154  1.0000
  C   C555      1.0  0.23633  0.86015  0.61434  1.0000
  H   H670      1.0  0.27992  0.90869  0.62495  1.0000
  H   H671      1.0  0.24610  0.94321  0.61963  1.0000
  H   H672      1.0  0.19955  0.87155  0.60788  1.0000
  H   H673      1.0  0.23348  0.83708  0.61290  1.0000
  C   C556      1.0  0.35718  0.68893  0.66897  1.0000
  S   S161      1.0  0.20161  0.51738  0.63054  1.0000
  H   H674      1.0  0.07053  0.70205  0.75415  1.0000
  C   C557      1.0  0.26995  0.83690  0.57217  1.0000
  H   H675      1.0  0.15790  0.54813  0.55568  1.0000
  C   C558      1.0  0.07655  0.94205  0.68048  1.0000
  C   C559      1.0  0.23352  0.92640  0.54614  1.0000
  H   H676      1.0  0.25160  0.89305  0.58338  1.0000
  H   H677      1.0  0.28836  0.83638  0.54009  1.0000
  H   H678      1.0  0.38232  0.69563  0.64697  1.0000
  H   H679      1.0  0.44278  0.82985  0.70861  1.0000
  C   C560      1.0  0.07389  0.95257  0.66345  1.0000
  H   H680      1.0  0.39601  0.86099  0.71877  1.0000
  H   H681      1.0  0.31003  0.89242  0.57230  1.0000
  H   H682      1.0  0.46226  0.85224  0.72179  1.0000
  C   C561      1.0  0.11415  0.53232  0.65881  1.0000
  C   C562      1.0  0.40007  0.69279  0.68937  1.0000
  H   H683      1.0  0.21168  0.55887  0.54329  1.0000
  N   N37       1.0  0.06431  0.60838  0.73016  1.0000
  C   C563      1.0  0.07636  0.61937  0.71405  1.0000
  H   H684      1.0  0.15838  0.99640  0.54339  1.0000
  C   C564      1.0  0.03908  0.60132  0.72552  1.0000
  C   C565      1.0  0.06406  0.62951  0.74484  1.0000
  C   C566      1.0  0.06926  0.65942  0.74243  1.0000
  C   C567      1.0  0.37794  0.68853  0.69759  1.0000
  H   H685      1.0  0.15283  0.97329  0.65549  1.0000
  H   H686      1.0  0.10075  0.56555  0.67631  1.0000
  H   H687      1.0  0.16402  0.58810  0.57378  1.0000
  H   H688      1.0  0.41636  0.69537  0.69716  1.0000
  H   H689      1.0  0.07737  0.60240  0.70359  1.0000
  H   H690      1.0  0.39985  0.82266  0.71800  1.0000
  H   H691      1.0  0.05082  0.59897  0.76455  1.0000
  H   H692      1.0  0.22331  0.92994  0.57335  1.0000
  C   C568      1.0  0.05659  0.62088  0.76190  1.0000
  H   H693      1.0  0.02871  0.62118  0.72197  1.0000
  H   H694      1.0  0.03815  0.58638  0.71410  1.0000
  C   C569      1.0  0.40200  0.84204  0.72666  1.0000
  H   H695      1.0  0.07441  0.66824  0.72988  1.0000
  C   C570      1.0  0.06718  0.67920  0.75632  1.0000
  H   H696      1.0  0.10004  0.92056  0.69879  1.0000
  H   H697      1.0  0.34004  0.68344  0.69455  1.0000
  H   H698      1.0  0.31053  0.86477  0.54364  1.0000
  C   C571      1.0  0.43417  0.81718  0.74145  1.0000
  H   H699      1.0  0.21568  0.58693  0.55919  1.0000
  H   H700      1.0  0.43245  0.79863  0.73218  1.0000
  C   C572      1.0  0.29998  0.87356  0.57761  1.0000
  S   S162      1.0  0.05651  0.54487  0.69139  1.0000
  H   H701      1.0  0.18276  0.61738  0.56839  1.0000
  C   C573      1.0  0.24839  0.91241  0.53400  1.0000
  S   S163      1.0  0.02780  0.51652  0.73360  1.0000
  H   H702      1.0  0.46164  0.65603  0.67147  1.0000
  H   H703      1.0  0.25738  0.82680  0.56253  1.0000
  C   C574      1.0  0.20257  0.57076  0.55408  1.0000
  H   H704      1.0  0.99723  0.67677  0.74782  1.0000
  H   H705      1.0  0.34594  0.71330  0.63647  1.0000
  H   H706      1.0  0.09533  0.58601  0.74062  1.0000
  N   N38       1.0  0.17995  0.58459  0.54792  1.0000
  C   C575      1.0  0.38013  0.69281  0.66099  1.0000
  H   H707      1.0  0.31193  0.83151  0.55563  1.0000
  Fe  Fe78      1.0  0.02246  0.52809  0.70512  1.0000
  H   H708      1.0  0.06201  0.94471  0.68988  1.0000
  H   H709      1.0  0.32045  0.69112  0.63224  1.0000
  C   C576      1.0  0.42914  0.87030  0.74491  1.0000
  H   H710      1.0  0.33356  0.64180  0.65750  1.0000
  C   C577      1.0  0.25125  0.89795  0.56952  1.0000
  C   C578      1.0  0.19943  0.62882  0.53490  1.0000
  H   H711      1.0  0.30141  0.71335  0.65692  1.0000
  H   H712      1.0  0.34940  0.67451  0.63393  1.0000
  C   C579      1.0  0.23493  0.91914  0.56386  1.0000
  H   H713      1.0  0.02947  0.59066  0.73659  1.0000
  H   H714      1.0  0.28061  0.78624  0.51745  1.0000
  S   S164      1.0  0.49174  0.79849  0.70934  1.0000
  C   C580      1.0  0.32186  0.66031  0.66151  1.0000
  C   C581      1.0  0.20567  0.64626  0.52060  1.0000
  C   C582      1.0  0.26477  0.89107  0.53955  1.0000
  C   C583      1.0  0.16959  0.60204  0.56253  1.0000
  S   S165      1.0  0.99427  0.57276  0.76377  1.0000
  H   H715      1.0  0.05721  0.96330  0.65970  1.0000
  S   S166      1.0  0.01927  0.00728  0.73487  1.0000
  H   H716      1.0  0.06615  0.63763  0.70799  1.0000
  N   N39       1.0  0.33434  0.68832  0.65879  1.0000
  H   H717      1.0  0.06698  0.56885  0.74553  1.0000
  H   H718      1.0  0.24724  0.91815  0.52020  1.0000
  H   H719      1.0  0.43790  0.86789  0.70938  1.0000
  C   C584      1.0  0.42600  0.92294  0.74949  1.0000
  H   H720      1.0  0.22084  0.94291  0.54187  1.0000
  N   N40       1.0  0.42722  0.84498  0.73299  1.0000
  H   H721      1.0  0.30487  0.65908  0.65360  1.0000
  H   H722      1.0  0.21429  0.98171  0.51753  1.0000
  H   H723      1.0  0.14507  0.57044  0.53869  1.0000
  N   N41       1.0  0.28375  0.86088  0.56410  1.0000
  N   N42       1.0  0.13613  0.93571  0.64409  1.0000
  C   C585      1.0  0.15726  0.95038  0.65209  1.0000
  C   C586      1.0  0.14248  0.90493  0.64077  1.0000
  C   C587      1.0  0.13153  0.94955  0.62677  1.0000
  C   C588      1.0  0.11528  0.93749  0.65621  1.0000
  C   C589      1.0  0.11712  0.92619  0.67354  1.0000
  C   C590      1.0  0.09291  0.95060  0.65146  1.0000
  C   C591      1.0  0.09806  0.92867  0.68549  1.0000
  H   H724      1.0  0.31253  0.70949  0.67871  1.0000
  C   C592      1.0  0.33784  0.69193  0.63956  1.0000
  H   H725      1.0  0.16371  0.93955  0.66425  1.0000
  H   H726      1.0  0.17299  0.95059  0.64297  1.0000
  C   C593      1.0  0.29926  0.84807  0.55016  1.0000
  H   H727      1.0  0.14823  0.89350  0.65293  1.0000
  H   H728      1.0  0.15781  0.90294  0.63133  1.0000
  H   H729      1.0  0.12687  0.89299  0.63511  1.0000
  H   H730      1.0  0.12761  0.97306  0.62826  1.0000
  H   H731      1.0  0.14746  0.94793  0.61794  1.0000
  H   H732      1.0  0.11632  0.93915  0.61963  1.0000
  H   H733      1.0  0.13348  0.91577  0.67806  1.0000
  H   H734      1.0  0.08979  0.96029  0.63872  1.0000
  H   H735      1.0  0.32751  0.73346  0.66377  1.0000
  H   H736      1.0  0.25927  0.84405  0.58370  1.0000
  C   C594      1.0  0.07629  0.52932  0.67546  1.0000
  C   C595      1.0  0.42379  0.89859  0.73863  1.0000
  H   H737      1.0  0.07899  0.56603  0.72411  1.0000
  C   C596      1.0  0.99672  0.66117  0.75842  1.0000
  H   H738      1.0  0.20588  0.63531  0.54774  1.0000
  H   H739      1.0  0.48529  0.60943  0.73987  1.0000
  H   H740      1.0  0.44184  0.64459  0.75597  1.0000
  C   C597      1.0  0.47941  0.68978  0.65710  1.0000
  H   H741      1.0  0.46344  0.69577  0.64966  1.0000
  C   C598      1.0  0.47847  0.66739  0.66936  1.0000
  C   C599      1.0  0.43630  0.86787  0.76284  1.0000
  H   H742      1.0  0.42239  0.81208  0.75284  1.0000
  H   H743      1.0  0.26147  0.59959  0.52446  1.0000
  C   C600      1.0  0.29571  0.77134  0.51694  1.0000
  S   S167      1.0  0.48838  0.72966  0.69873  1.0000
  H   H744      1.0  0.99393  0.62429  0.74093  1.0000
  H   H745      1.0  0.21616  0.66576  0.52269  1.0000
  C   C601      1.0  0.99520  0.63134  0.75444  1.0000
  H   H746      1.0  0.22585  0.52396  0.51985  1.0000
  Fe  Fe79      1.0  0.99516  0.54462  0.73881  1.0000
  C   C602      1.0  0.33453  0.73286  0.51532  1.0000
  S   S168      1.0  0.02570  0.77118  0.81192  1.0000
  C   C603      1.0  0.25219  0.93824  0.97518  1.0000
  Fe  Fe80      1.0  0.01442  0.76235  0.83985  1.0000
  S   S169      1.0  0.03614  0.76125  0.86555  1.0000
  Fe  Fe81      1.0  0.29700  0.55305  0.92737  1.0000
  S   S170      1.0  0.33026  0.54469  0.94392  1.0000
  S   S171      1.0  0.28581  0.59765  0.91702  1.0000
  Fe  Fe82      1.0  0.27748  0.98884  0.93117  1.0000
  S   S172      1.0  0.31497  0.97080  0.93234  1.0000
  S   S173      1.0  0.24394  0.96101  0.92763  1.0000
  C   C604      1.0  0.10729  0.76707  0.01111  1.0000
  C   C605      1.0  0.42036  0.00412  0.89107  1.0000
  H   H747      1.0  0.28129  0.79805  0.96465  1.0000
  H   H748      1.0  0.41027  0.58715  0.83230  1.0000
  C   C606      1.0  0.20497  0.60829  0.91559  1.0000
  C   C607      1.0  0.27114  0.75203  0.96435  1.0000
  Fe  Fe83      1.0  0.16551  0.76820  0.91647  1.0000
  S   S174      1.0  0.20488  0.75540  0.91491  1.0000
  S   S175      1.0  0.14693  0.76287  0.88969  1.0000
  Fe  Fe84      1.0  0.17040  0.78345  0.95554  1.0000
  S   S176      1.0  0.20945  0.77173  0.95636  1.0000
  S   S177      1.0  0.15480  0.80053  0.98106  1.0000
  Fe  Fe85      1.0  0.21202  0.79570  0.93082  1.0000
  S   S178      1.0  0.24581  0.82278  0.92694  1.0000
  Fe  Fe86      1.0  0.19901  0.73267  0.94055  1.0000
  S   S179      1.0  0.21115  0.68800  0.94990  1.0000
  S   S180      1.0  0.17331  0.81020  0.93075  1.0000
  S   S181      1.0  0.15923  0.74277  0.94136  1.0000
  H   H749      1.0  0.43055  0.60300  0.77348  1.0000
  H   H750      1.0  0.25431  0.70991  0.96898  1.0000
  H   H751      1.0  0.28675  0.94713  0.99849  1.0000
  H   H752      1.0  0.26958  0.73472  0.92091  1.0000
  C   C608      1.0  0.45240  0.67065  0.77799  1.0000
  H   H753      1.0  0.29096  0.78669  0.93732  1.0000
  C   C609      1.0  0.12110  0.84251  0.86539  1.0000
  C   C610      1.0  0.39629  0.00587  0.89711  1.0000
  H   H754      1.0  0.42297  0.62243  0.83330  1.0000
  H   H755      1.0  0.18226  0.64196  0.92458  1.0000
  H   H756      1.0  0.01502  0.91125  0.79573  1.0000
  C   C611      1.0  0.40650  0.00338  0.86095  1.0000
  C   C612      1.0  0.44320  0.64572  0.77019  1.0000
  H   H757      1.0  0.16254  0.66094  0.86750  1.0000
  H   H758      1.0  0.45194  0.65005  0.82061  1.0000
  H   H759      1.0  0.05860  0.80324  0.83745  1.0000
  H   H760      1.0  0.21570  0.84147  0.96379  1.0000
  C   C613      1.0  0.16691  0.78521  0.00049  1.0000
  C   C614      1.0  0.17989  0.75921  0.99990  1.0000
  H   H761      1.0  0.39257  0.00691  0.91105  1.0000
  H   H762      1.0  0.18277  0.74837  0.98747  1.0000
  H   H763      1.0  0.14474  0.68815  0.87813  1.0000
  H   H764      1.0  0.31411  0.76972  0.95076  1.0000
  N   N43       1.0  0.17567  0.67389  0.89313  1.0000
  H   H765      1.0  0.26011  0.93641  0.00978  1.0000
  H   H766      1.0  0.30749  0.71518  0.95962  1.0000
  H   H767      1.0  0.44413  0.89013  0.78714  1.0000
  C   C615      1.0  0.15579  0.66823  0.88052  1.0000
  Fe  Fe87      1.0  0.47801  0.00346  0.84049  1.0000
  C   C616      1.0  0.27237  0.78057  0.97141  1.0000
  C   C617      1.0  0.43688  0.62184  0.78049  1.0000
  H   H768      1.0  0.01952  0.84954  0.84232  1.0000
  H   H769      1.0  0.25347  0.76312  0.93202  1.0000
  C   C618      1.0  0.29979  0.76567  0.94079  1.0000
  H   H770      1.0  0.29685  0.88834  0.98044  1.0000
  H   H771      1.0  0.39911  0.61515  0.81787  1.0000
  H   H772      1.0  0.99537  0.60506  0.79610  1.0000
  C   C619      1.0  0.24480  0.92261  0.92617  1.0000
  C   C620      1.0  0.26659  0.90723  0.92544  1.0000
  C   C621      1.0  0.26658  0.87668  0.92525  1.0000
  C   C622      1.0  0.24483  0.86116  0.92588  1.0000
  C   C623      1.0  0.22301  0.87651  0.92643  1.0000
  C   C624      1.0  0.22303  0.90707  0.92655  1.0000
  H   H773      1.0  0.28347  0.91887  0.92501  1.0000
  H   H774      1.0  0.28355  0.86506  0.92474  1.0000
  H   H775      1.0  0.20612  0.86490  0.92692  1.0000
  H   H776      1.0  0.20608  0.91874  0.92712  1.0000
  C   C625      1.0  0.26570  0.62294  0.92673  1.0000
  C   C626      1.0  0.25511  0.61812  0.94313  1.0000
  C   C627      1.0  0.23871  0.63851  0.95010  1.0000
  C   C628      1.0  0.23268  0.66381  0.94076  1.0000
  C   C629      1.0  0.24343  0.66878  0.92443  1.0000
  C   C630      1.0  0.25993  0.64848  0.91751  1.0000
  H   H777      1.0  0.25939  0.59856  0.95034  1.0000
  H   H778      1.0  0.23042  0.63443  0.96272  1.0000
  H   H779      1.0  0.23871  0.68786  0.91696  1.0000
  H   H780      1.0  0.26794  0.65223  0.90476  1.0000
  C   C631      1.0  0.06715  0.76109  0.87182  1.0000
  C   C632      1.0  0.07300  0.76163  0.88986  1.0000
  C   C633      1.0  0.09725  0.76206  0.89560  1.0000
  C   C634      1.0  0.11599  0.76201  0.88333  1.0000
  C   C635      1.0  0.11017  0.76116  0.86529  1.0000
  C   C636      1.0  0.08592  0.76069  0.85955  1.0000
  H   H781      1.0  0.05865  0.76183  0.89947  1.0000
  H   H782      1.0  0.10139  0.76263  0.90950  1.0000
  H   H783      1.0  0.12452  0.76104  0.85568  1.0000
  H   H784      1.0  0.08180  0.75987  0.84566  1.0000
  H   H785      1.0  0.04524  0.88059  0.82699  1.0000
  C   C637      1.0  0.20238  0.63339  0.88230  1.0000
  C   C638      1.0  0.45525  0.67192  0.79616  1.0000
  H   H786      1.0  0.35980  0.52111  0.87950  1.0000
  C   C639      1.0  0.99765  0.67102  0.77594  1.0000
  H   H787      1.0  0.22675  0.59915  0.87438  1.0000
  Fe  Fe88      1.0  0.33952  0.51074  0.92345  1.0000
  C   C640      1.0  0.33054  0.53119  0.00636  1.0000
  C   C641      1.0  0.26618  0.55176  0.01273  1.0000
  C   C642      1.0  0.21651  0.60862  0.88508  1.0000
  C   C643      1.0  0.43807  0.89233  0.77363  1.0000
  C   C644      1.0  0.22341  0.85212  0.97524  1.0000
  C   C645      1.0  0.07317  0.83703  0.87616  1.0000
  C   C646      1.0  0.21792  0.59621  0.90173  1.0000
  C   C647      1.0  0.43322  0.91981  0.76693  1.0000
  H   H788      1.0  0.03018  0.82424  0.85825  1.0000
  S   S182      1.0  0.00415  0.85194  0.80417  1.0000
  H   H789      1.0  0.13787  0.70409  0.00517  1.0000
  C   C648      1.0  0.42567  0.00315  0.87297  1.0000
  C   C649      1.0  0.45572  0.58707  0.81944  1.0000
  C   C650      1.0  0.11594  0.83566  0.88280  1.0000
  C   C651      1.0  0.06056  0.82514  0.83149  1.0000
  H   H790      1.0  0.26239  0.80950  0.99247  1.0000
  C   C652      1.0  0.39042  0.51926  0.86186  1.0000
  S   S183      1.0  0.42855  0.51636  0.83868  1.0000
  H   H791      1.0  0.46435  0.60399  0.82769  1.0000
  C   C653      1.0  0.25739  0.73153  0.97395  1.0000
  H   H792      1.0  0.41898  0.55396  0.80957  1.0000
  C   C654      1.0  0.18955  0.64685  0.89627  1.0000
  H   H793      1.0  0.19835  0.69059  0.87227  1.0000
  H   H794      1.0  0.04642  0.82753  0.82115  1.0000
  C   C655      1.0  0.19104  0.63329  0.91304  1.0000
  H   H795      1.0  0.23921  0.77249  0.00875  1.0000
  C   C656      1.0  0.99933  0.92079  0.77034  1.0000
  H   H796      1.0  0.10733  0.85162  0.83989  1.0000
  C   C657      1.0  0.29461  0.71560  0.94837  1.0000
  C   C658      1.0  0.26259  0.74186  0.93393  1.0000
  C   C659      1.0  0.19175  0.69632  0.88560  1.0000
  H   H797      1.0  0.28189  0.69717  0.94992  1.0000
  H   H798      1.0  0.06005  0.89452  0.84634  1.0000
  H   H799      1.0  0.26371  0.95754  0.97275  1.0000
  C   C660      1.0  0.12811  0.72115  0.01195  1.0000
  C   C661      1.0  0.24825  0.76681  0.99657  1.0000
  C   C662      1.0  0.38248  0.00557  0.86698  1.0000
  H   H800      1.0  0.20187  0.64219  0.86915  1.0000
  H   H801      1.0  0.30879  0.75837  0.92847  1.0000
  H   H802      1.0  0.20644  0.59876  0.92859  1.0000
  C   C663      1.0  0.24947  0.89005  0.98764  1.0000
  H   H803      1.0  0.33626  0.54183  0.99441  1.0000
  C   C664      1.0  0.24626  0.73886  0.98983  1.0000
  S   S184      1.0  0.32805  0.97476  0.98262  1.0000
  C   C665      1.0  0.06038  0.87673  0.83645  1.0000
  H   H804      1.0  0.24846  0.72633  0.93803  1.0000
  H   H805      1.0  0.24595  0.93103  0.96201  1.0000
  C   C666      1.0  0.44888  0.64825  0.80661  1.0000
  H   H806      1.0  0.15478  0.70677  0.90659  1.0000
  H   H807      1.0  0.18233  0.71758  0.88416  1.0000
  H   H808      1.0  0.00557  0.94297  0.77019  1.0000
  C   C667      1.0  0.05503  0.64075  0.77574  1.0000
  H   H809      1.0  0.30489  0.71047  0.93619  1.0000
  C   C668      1.0  0.07779  0.84422  0.85830  1.0000
  Fe  Fe89      1.0  0.31849  0.99744  0.95708  1.0000
  H   H810      1.0  0.17884  0.69145  0.91930  1.0000
  C   C669      1.0  0.21728  0.84282  0.99203  1.0000
  C   C670      1.0  0.26128  0.78761  0.98738  1.0000
  N   N44       1.0  0.28202  0.74408  0.94721  1.0000
  C   C671      1.0  0.99674  0.87370  0.78542  1.0000
  C   C672      1.0  0.10237  0.84682  0.85330  1.0000
  C   C673      1.0  0.27494  0.92820  0.00127  1.0000
  C   C674      1.0  0.28665  0.90625  0.97402  1.0000
  C   C675      1.0  0.41520  0.51316  0.85992  1.0000
  H   H811      1.0  0.23549  0.72294  0.99671  1.0000
  H   H812      1.0  0.07718  0.87885  0.82864  1.0000
  H   H813      1.0  0.07820  0.82565  0.82462  1.0000
  H   H814      1.0  0.36784  0.00621  0.85755  1.0000
  H   H815      1.0  0.15147  0.67122  0.91531  1.0000
  H   H816      1.0  0.43498  0.00370  0.90051  1.0000
  H   H817      1.0  0.20780  0.69976  0.89415  1.0000
  C   C676      1.0  0.31414  0.50824  0.00542  1.0000
  Fe  Fe90      1.0  0.30800  0.50991  0.95694  1.0000
  C   C677      1.0  0.16477  0.68624  0.90933  1.0000
  H   H818      1.0  0.45206  0.56835  0.82823  1.0000
  N   N45       1.0  0.26554  0.91519  0.98476  1.0000
  H   H819      1.0  0.14349  0.65115  0.88558  1.0000
  N   N46       1.0  0.05834  0.84800  0.84508  1.0000
  H   H820      1.0  0.08818  0.82696  0.90163  1.0000
  H   H821      1.0  0.22946  0.57750  0.90399  1.0000
  H   H822      1.0  0.43639  0.56358  0.79090  1.0000
  C   C678      1.0  0.43949  0.62242  0.79912  1.0000
  H   H823      1.0  0.12166  0.74559  0.98831  1.0000
  C   C679      1.0  0.42330  0.57238  0.80066  1.0000
  C   C680      1.0  0.41570  0.60601  0.82403  1.0000
  N   N47       1.0  0.43355  0.59737  0.81047  1.0000
  H   H824      1.0  0.40625  0.57837  0.79380  1.0000
  H   H825      1.0  0.29944  0.92454  0.97197  1.0000
  H   H826      1.0  0.13051  0.83153  0.89203  1.0000
  C   C681      1.0  0.03366  0.84609  0.85258  1.0000
  H   H827      1.0  0.28617  0.91249  0.00883  1.0000
  H   H828      1.0  0.03066  0.86276  0.86292  1.0000
  H   H829      1.0  0.27211  0.55218  0.99913  1.0000
  Fe  Fe91      1.0  0.99578  0.80460  0.81148  1.0000
  C   C682      1.0  0.09205  0.83310  0.88818  1.0000
  H   H830      1.0  0.46937  0.57999  0.80968  1.0000
  H   H831      1.0  0.13976  0.84395  0.86123  1.0000
  H   H832      1.0  0.05519  0.83350  0.88112  1.0000
  C   C683      1.0  0.24317  0.87973  0.00465  1.0000
  S   S185      1.0  0.47358  0.51751  0.80049  1.0000
  S   S186      1.0  0.27419  0.52055  0.94162  1.0000
  C   C684      1.0  0.00467  0.90268  0.78485  1.0000
  H   H833      1.0  0.46298  0.69112  0.80213  1.0000
  C   C685      1.0  0.23922  0.87534  0.97307  1.0000
  H   H834      1.0  0.20478  0.82500  0.99363  1.0000
  H   H835      1.0  0.24316  0.88203  0.95982  1.0000
  S   S187      1.0  0.45654  0.00243  0.86627  1.0000
  C   C686      1.0  0.33143  0.99487  0.00222  1.0000
  H   H836      1.0  0.28141  0.89887  0.96065  1.0000
  C   C687      1.0  0.99565  0.62069  0.78551  1.0000
  C   C688      1.0  0.11892  0.74445  0.00242  1.0000
  C   C689      1.0  0.06008  0.66989  0.77292  1.0000
  H   H837      1.0  0.10105  0.78563  0.00360  1.0000
  S   S188      1.0  0.00072  0.70891  0.77995  1.0000
  H   H838      1.0  0.05770  0.68545  0.78349  1.0000
  H   H839      1.0  0.23593  0.94538  0.98257  1.0000
  H   H840      1.0  0.41006  0.00173  0.84703  1.0000
  H   H841      1.0  0.44127  0.84747  0.76879  1.0000
  H   H842      1.0  0.04878  0.63374  0.78854  1.0000
  Fe  Fe92      1.0  0.46764  0.50916  0.82942  1.0000
  C   C690      1.0  0.99683  0.65058  0.78950  1.0000
  S   S189      1.0  0.30765  0.52107  0.90629  1.0000
  H   H843      1.0  0.43557  0.93875  0.77523  1.0000
  H   H844      1.0  0.45803  0.68867  0.76984  1.0000
  H   H845      1.0  0.19791  0.72603  0.01495  1.0000
  H   H846      1.0  0.38004  0.52618  0.85055  1.0000
  C   C691      1.0  0.37882  0.51626  0.87828  1.0000
  Fe  Fe93      1.0  0.99712  0.73860  0.80411  1.0000
  C   C692      1.0  0.22724  0.85646  0.00671  1.0000
  C   C693      1.0  0.99508  0.61082  0.76797  1.0000
  H   H847      1.0  0.99779  0.65770  0.80302  1.0000
  C   C694      1.0  0.37718  0.00697  0.88507  1.0000
  H   H848      1.0  0.25144  0.50898  0.01040  1.0000
  C   C695      1.0  0.54420  0.01791  0.13744  1.0000
  Fe  Fe94      1.0  0.95748  0.27445  0.20437  1.0000
  H   H849      1.0  0.95595  0.29172  0.15809  1.0000
  S   S190      1.0  0.92367  0.29262  0.19057  1.0000
  C   C696      1.0  0.68416  0.02064  0.03618  1.0000
  H   H850      1.0  0.71379  0.17432  0.08097  1.0000
  S   S191      1.0  0.95931  0.26112  0.23295  1.0000
  C   C697      1.0  0.70624  0.16371  0.06948  1.0000
  C   C698      1.0  0.98867  0.15883  0.25072  1.0000
  C   C699      1.0  0.99269  0.24249  0.13709  1.0000
  C   C700      1.0  0.58499  0.49873  0.17839  1.0000
  Fe  Fe95      1.0  0.49794  0.47967  0.23634  1.0000
  H   H851      1.0  0.54152  0.24587  0.22940  1.0000
  C   C701      1.0  0.59519  0.02748  0.16967  1.0000
  S   S192      1.0  0.50648  0.46869  0.20821  1.0000
  H   H852      1.0  0.51865  0.09027  0.25963  1.0000
  Fe  Fe96      1.0  0.82742  0.24414  0.11146  1.0000
  S   S193      1.0  0.78924  0.23041  0.11754  1.0000
  S   S194      1.0  0.85690  0.23323  0.13176  1.0000
  Fe  Fe97      1.0  0.81342  0.26225  0.07375  1.0000
  S   S195      1.0  0.77469  0.25015  0.07759  1.0000
  S   S196      1.0  0.82243  0.28531  0.04831  1.0000
  Fe  Fe98      1.0  0.77843  0.27193  0.10385  1.0000
  S   S197      1.0  0.74697  0.29933  0.11374  1.0000
  Fe  Fe99      1.0  0.78890  0.20995  0.09067  1.0000
  S   S198      1.0  0.77584  0.16581  0.08095  1.0000
  S   S199      1.0  0.81647  0.28687  0.09931  1.0000
  S   S200      1.0  0.82779  0.22084  0.08526  1.0000
  Fe  Fe100     1.0  0.69200  0.49381  0.08061  1.0000
  H   H853      1.0  0.55827  0.21945  0.25440  1.0000
  H   H854      1.0  0.93814  0.23390  0.11601  1.0000
  H   H855      1.0  0.72263  0.35565  0.15829  1.0000
  H   H856      1.0  0.95110  0.32941  0.24041  1.0000
  C   C702      1.0  0.97508  0.23169  0.12513  1.0000
  Fe  Fe101     1.0  0.71333  0.46795  0.11424  1.0000
  S   S201      1.0  0.74363  0.43679  0.12229  1.0000
  Fe  Fe102     1.0  0.69078  0.03485  0.10970  1.0000
  S   S202      1.0  0.70353  0.07916  0.11893  1.0000
  S   S203      1.0  0.68025  0.45741  0.09837  1.0000
  S   S204      1.0  0.65133  0.02715  0.10430  1.0000
  C   C703      1.0  0.75593  0.14193  0.09183  1.0000
  C   C704      1.0  0.75054  0.11510  0.08398  1.0000
  C   C705      1.0  0.73460  0.09555  0.09208  1.0000
  C   C706      1.0  0.72388  0.10272  0.10815  1.0000
  C   C707      1.0  0.72923  0.12956  0.11597  1.0000
  C   C708      1.0  0.74517  0.14911  0.10787  1.0000
  H   H857      1.0  0.75879  0.10940  0.07156  1.0000
  H   H858      1.0  0.73064  0.07507  0.08585  1.0000
  H   H859      1.0  0.72097  0.13532  0.12838  1.0000
  H   H860      1.0  0.74911  0.16973  0.11400  1.0000
  C   C709      1.0  0.74642  0.33776  0.11463  1.0000
  C   C710      1.0  0.72407  0.35213  0.11599  1.0000
  C   C711      1.0  0.72287  0.38251  0.11780  1.0000
  C   C712      1.0  0.74409  0.39874  0.11877  1.0000
  C   C713      1.0  0.76644  0.38436  0.11735  1.0000
  C   C714      1.0  0.76761  0.35411  0.11497  1.0000
  H   H861      1.0  0.70758  0.33967  0.11580  1.0000
  H   H862      1.0  0.70556  0.39325  0.11898  1.0000
  H   H863      1.0  0.78296  0.39668  0.11819  1.0000
  H   H864      1.0  0.78493  0.34343  0.11385  1.0000
  N   N48       1.0  0.92681  0.36095  0.22913  1.0000
  C   C715      1.0  0.76659  0.14945  0.02946  1.0000
  H   H865      1.0  0.50085  0.03704  0.15258  1.0000
  C   C716      1.0  0.56556  0.01932  0.12772  1.0000
  H   H866      1.0  0.71411  0.03675  0.02111  1.0000
  H   H867      1.0  0.79346  0.39619  0.05023  1.0000
  C   C717      1.0  0.82493  0.26616  0.02825  1.0000
  C   C718      1.0  0.83137  0.23684  0.02782  1.0000
  H   H868      1.0  0.76468  0.01399  0.09810  1.0000
  H   H869      1.0  0.83435  0.22525  0.03999  1.0000
  C   C719      1.0  0.49784  0.22822  0.25854  1.0000
  H   H870      1.0  0.50826  0.39979  0.23778  1.0000
  C   C720      1.0  0.78423  0.05719  0.11822  1.0000
  H   H871      1.0  0.74838  0.01447  0.14470  1.0000
  H   H872      1.0  0.64135  0.49163  0.16026  1.0000
  C   C721      1.0  0.52409  0.24737  0.23653  1.0000
  H   H873      1.0  0.72514  0.19116  0.05141  1.0000
  H   H874      1.0  0.93827  0.38581  0.20643  1.0000
  S   S205      1.0  0.98729  0.17971  0.23088  1.0000
  S   S206      1.0  0.69387  0.49978  0.13184  1.0000
  N   N49       1.0  0.77191  0.03059  0.12430  1.0000
  H   H875      1.0  0.52437  0.26817  0.24405  1.0000
  Fe  Fe103     1.0  0.99049  0.29239  0.23549  1.0000
  C   C722      1.0  0.66373  0.50591  0.03107  1.0000
  C   C723      1.0  0.96144  0.27518  0.14875  1.0000
  C   C724      1.0  0.90542  0.27576  0.17415  1.0000
  C   C725      1.0  0.90712  0.24617  0.17036  1.0000
  C   C726      1.0  0.89210  0.23369  0.15740  1.0000
  C   C727      1.0  0.87532  0.25056  0.14790  1.0000
  C   C728      1.0  0.87376  0.28025  0.15158  1.0000
  C   C729      1.0  0.88858  0.29268  0.16472  1.0000
  H   H876      1.0  0.91994  0.23281  0.17746  1.0000
  H   H877      1.0  0.89355  0.21072  0.15467  1.0000
  H   H878      1.0  0.86137  0.29365  0.14420  1.0000
  H   H879      1.0  0.88723  0.31564  0.16741  1.0000
  C   C730      1.0  0.64726  0.01285  0.01984  1.0000
  S   S207      1.0  0.70343  0.01191  0.08543  1.0000
  C   C731      1.0  0.94266  0.36561  0.21368  1.0000
  C   C732      1.0  0.90134  0.36141  0.22313  1.0000
  C   C733      1.0  0.57602  0.01210  0.17730  1.0000
  C   C734      1.0  0.62193  0.49360  0.16080  1.0000
  C   C735      1.0  0.79883  0.05650  0.10289  1.0000
  C   C736      1.0  0.60839  0.49279  0.14523  1.0000
  N   N50       1.0  0.75336  0.42086  0.06546  1.0000
  C   C737      1.0  0.75319  0.43501  0.04793  1.0000
  C   C738      1.0  0.72950  0.42652  0.07362  1.0000
  C   C739      1.0  0.77192  0.43496  0.07661  1.0000
  C   C740      1.0  0.75908  0.38963  0.06365  1.0000
  C   C741      1.0  0.78079  0.38063  0.05534  1.0000
  C   C742      1.0  0.74397  0.36742  0.07042  1.0000
  C   C743      1.0  0.78686  0.35131  0.05378  1.0000
  C   C744      1.0  0.75033  0.33818  0.06889  1.0000
  C   C745      1.0  0.77165  0.33016  0.06054  1.0000
  C   C746      1.0  0.93070  0.38417  0.24230  1.0000
  H   H880      1.0  0.73971  0.42475  0.03906  1.0000
  H   H881      1.0  0.74833  0.45843  0.04895  1.0000
  H   H882      1.0  0.71443  0.41763  0.06558  1.0000
  H   H883      1.0  0.72603  0.45007  0.07511  1.0000
  H   H884      1.0  0.72842  0.41765  0.08712  1.0000
  H   H885      1.0  0.79019  0.43390  0.07068  1.0000
  H   H886      1.0  0.76769  0.45829  0.07894  1.0000
  H   H887      1.0  0.77299  0.42445  0.08974  1.0000
  C   C747      1.0  0.53851  0.16014  0.21800  1.0000
  H   H888      1.0  0.72739  0.37197  0.07733  1.0000
  H   H889      1.0  0.73895  0.32158  0.07461  1.0000
  H   H890      1.0  0.68129  0.12618  0.02771  1.0000
  H   H891      1.0  0.77659  0.30749  0.05950  1.0000
  C   C748      1.0  0.92794  0.41374  0.23749  1.0000
  H   H892      1.0  0.77104  0.43418  0.04136  1.0000
  C   C749      1.0  0.98511  0.26459  0.14889  1.0000
  C   C750      1.0  0.81020  0.08144  0.09663  1.0000
  H   H893      1.0  0.97899  0.21480  0.11573  1.0000
  C   C751      1.0  0.75525  0.02032  0.11040  1.0000
  H   H894      1.0  0.79104  0.12979  0.12715  1.0000
  H   H895      1.0  0.76889  0.04205  0.15174  1.0000
  N   N51       1.0  0.66467  0.10041  0.05914  1.0000
  C   C752      1.0  0.65475  0.08861  0.04243  1.0000
  C   C753      1.0  0.67828  0.07683  0.06796  1.0000
  C   C754      1.0  0.64387  0.10860  0.07039  1.0000
  C   C755      1.0  0.68078  0.12561  0.05666  1.0000
  C   C756      1.0  0.68764  0.13596  0.03976  1.0000
  C   C757      1.0  0.69072  0.14013  0.07145  1.0000
  C   C758      1.0  0.51878  0.19525  0.23769  1.0000
  H   H896      1.0  0.69417  0.02003  0.04834  1.0000
  C   C759      1.0  0.70333  0.15947  0.03797  1.0000
  H   H897      1.0  0.64250  0.06989  0.04478  1.0000
  H   H898      1.0  0.91997  0.32565  0.24710  1.0000
  H   H899      1.0  0.66928  0.08026  0.03368  1.0000
  H   H900      1.0  0.69487  0.07111  0.06047  1.0000
  H   H901      1.0  0.66723  0.05684  0.06918  1.0000
  H   H902      1.0  0.68394  0.08280  0.08153  1.0000
  H   H903      1.0  0.63386  0.12736  0.06472  1.0000
  H   H904      1.0  0.63094  0.09030  0.07186  1.0000
  H   H905      1.0  0.64945  0.11452  0.08398  1.0000
  H   H906      1.0  0.79065  0.18579  0.03100  1.0000
  H   H907      1.0  0.68696  0.13304  0.08472  1.0000
  C   C760      1.0  0.71266  0.17324  0.05280  1.0000
  S   S208      1.0  0.62206  0.49059  0.12397  1.0000
  C   C761      1.0  0.53904  0.18586  0.22775  1.0000
  N   N52       1.0  0.79238  0.29724  0.15945  1.0000
  C   C762      1.0  0.80635  0.29703  0.14291  1.0000
  C   C763      1.0  0.80936  0.29349  0.17443  1.0000
  C   C764      1.0  0.77623  0.27159  0.15914  1.0000
  C   C765      1.0  0.77927  0.32521  0.16088  1.0000
  C   C766      1.0  0.75371  0.32743  0.15952  1.0000
  C   C767      1.0  0.79223  0.35158  0.16255  1.0000
  C   C768      1.0  0.74205  0.35437  0.15997  1.0000
  C   C769      1.0  0.78036  0.37839  0.16291  1.0000
  C   C770      1.0  0.75533  0.37977  0.16160  1.0000
  H   H908      1.0  0.81989  0.31469  0.14237  1.0000
  H   H909      1.0  0.81636  0.27624  0.14104  1.0000
  H   H910      1.0  0.79405  0.30004  0.13149  1.0000
  H   H911      1.0  0.82413  0.30967  0.17436  1.0000
  H   H912      1.0  0.81860  0.27197  0.17398  1.0000
  H   H913      1.0  0.79973  0.29525  0.18721  1.0000
  H   H914      1.0  0.76437  0.27158  0.14725  1.0000
  H   H915      1.0  0.78665  0.25090  0.15850  1.0000
  H   H916      1.0  0.76471  0.27070  0.17108  1.0000
  H   H917      1.0  0.74231  0.30884  0.15740  1.0000
  H   H918      1.0  0.81170  0.35174  0.16300  1.0000
  H   H919      1.0  0.79061  0.39831  0.16367  1.0000
  C   C771      1.0  0.49420  0.41058  0.26332  1.0000
  N   N53       1.0  0.52006  0.22221  0.24826  1.0000
  H   H920      1.0  0.89775  0.34375  0.21342  1.0000
  H   H921      1.0  0.93096  0.45856  0.24545  1.0000
  C   C772      1.0  0.94469  0.26426  0.13682  1.0000
  C   C773      1.0  0.78185  0.08438  0.12691  1.0000
  H   H922      1.0  0.81581  0.12719  0.10034  1.0000
  C   C774      1.0  0.61083  0.01410  0.15747  1.0000
  C   C775      1.0  0.75744  0.03486  0.14054  1.0000
  H   H923      1.0  0.71460  0.38391  0.01753  1.0000
  H   H924      1.0  0.74623  0.40064  0.16120  1.0000
  H   H925      1.0  0.94104  0.34768  0.20391  1.0000
  H   H926      1.0  0.89648  0.38213  0.21658  1.0000
  Fe  Fe104     1.0  0.66148  0.49209  0.11463  1.0000
  C   C776      1.0  0.50302  0.39150  0.25051  1.0000
  S   S209      1.0  0.55727  0.03001  0.19287  1.0000
  H   H927      1.0  0.55430  0.15312  0.21073  1.0000
  H   H928      1.0  0.55192  0.49829  0.16355  1.0000
  C   C777      1.0  0.69546  0.02993  0.02069  1.0000
  C   C778      1.0  0.80752  0.10768  0.10547  1.0000
  S   S210      1.0  0.57156  0.50438  0.19947  1.0000
  C   C779      1.0  0.58304  0.49416  0.14645  1.0000
  H   H929      1.0  0.74268  0.05101  0.13846  1.0000
  C   C780      1.0  0.49742  0.15208  0.22696  1.0000
  H   H930      1.0  0.80124  0.03673  0.09547  1.0000
  H   H931      1.0  0.59807  0.04990  0.17327  1.0000
  C   C781      1.0  0.79351  0.10909  0.12061  1.0000
  H   H932      1.0  0.77063  0.08738  0.13836  1.0000
  S   S211      1.0  0.52082  0.01940  0.23664  1.0000
  H   H933      1.0  0.92277  0.41985  0.22431  1.0000
  H   H934      1.0  0.70848  0.16694  0.02500  1.0000
  H   H935      1.0  0.64403  0.10518  0.03517  1.0000
  H   H936      1.0  0.62102  0.49791  0.18909  1.0000
  C   C782      1.0  0.61031  0.49686  0.17720  1.0000
  H   H937      1.0  0.88882  0.35842  0.23440  1.0000
  H   H938      1.0  0.76373  0.14867  0.04357  1.0000
  C   C783      1.0  0.49779  0.17763  0.23687  1.0000
  H   H939      1.0  0.51207  0.34712  0.24416  1.0000
  H   H940      1.0  0.92919  0.31451  0.22574  1.0000
  C   C784      1.0  0.57139  0.49696  0.16289  1.0000
  C   C785      1.0  0.78178  0.17033  0.02237  1.0000
  C   C786      1.0  0.51777  0.14320  0.21768  1.0000
  S   S212      1.0  0.98675  0.30774  0.20777  1.0000
  H   H941      1.0  0.74341  0.11335  0.02400  1.0000
  S   S213      1.0  0.72587  0.50315  0.09605  1.0000
  C   C787      1.0  0.75523  0.12957  0.01841  1.0000
  C   C788      1.0  0.95144  0.24252  0.12509  1.0000
  H   H942      1.0  0.80342  0.01468  0.13782  1.0000
  H   H943      1.0  0.55554  0.19823  0.22759  1.0000
  H   H944      1.0  0.62554  0.02618  0.15176  1.0000
  C   C789      1.0  0.50195  0.01521  0.15873  1.0000
  C   C790      1.0  0.93230  0.43609  0.24952  1.0000
  H   H945      1.0  0.57232  0.49328  0.13456  1.0000
  H   H946      1.0  0.92631  0.27242  0.13679  1.0000
  H   H947      1.0  0.96191  0.36677  0.21774  1.0000
  H   H948      1.0  0.74180  0.03739  0.10707  1.0000
  H   H949      1.0  0.82087  0.08060  0.08471  1.0000
  H   H950      1.0  0.80365  0.34480  0.04756  1.0000
  S   S214      1.0  0.98353  0.24007  0.19533  1.0000
  C   C791      1.0  0.65986  0.01268  0.03587  1.0000
  H   H951      1.0  0.74641  0.35111  0.02701  1.0000
  H   H952      1.0  0.50947  0.24911  0.22650  1.0000
  C   C792      1.0  0.93201  0.33144  0.23598  1.0000
  Fe  Fe105     1.0  0.98728  0.22840  0.22431  1.0000
  Fe  Fe106     1.0  0.52370  0.01432  0.20728  1.0000
  H   H953      1.0  0.51694  0.01507  0.16852  1.0000
  H   H954      1.0  0.51745  0.12304  0.21033  1.0000
  H   H955      1.0  0.54161  0.03469  0.14718  1.0000
  C   C793      1.0  0.50516  0.36156  0.25418  1.0000
  C   C794      1.0  0.98882  0.12832  0.24956  1.0000
  Fe  Fe107     1.0  0.53212  0.50641  0.20872  1.0000
  C   C795      1.0  0.54041  0.22020  0.26095  1.0000
  H   H956      1.0  0.57837  0.03656  0.13018  1.0000
  C   C796      1.0  0.93727  0.37841  0.26007  1.0000
  H   H957      1.0  0.98815  0.11816  0.23674  1.0000
  H   H958      1.0  0.99011  0.08742  0.26356  1.0000
  C   C797      1.0  0.68719  0.49467  0.03185  1.0000
  C   C798      1.0  0.69992  0.49004  0.01614  1.0000
  H   H959      1.0  0.71813  0.48155  0.01664  1.0000
  S   S215      1.0  0.70133  0.48474  0.05186  1.0000
  C   C799      1.0  0.98992  0.11077  0.26479  1.0000
  H   H960      1.0  0.94031  0.35674  0.26499  1.0000
  C   C800      1.0  0.50683  0.10692  0.26474  1.0000
  H   H961      1.0  0.67273  0.32912  0.46455  1.0000
  C   C801      1.0  0.87591  0.01726  0.48887  1.0000
  H   H962      1.0  0.56821  0.34004  0.34437  1.0000
  H   H963      1.0  0.78633  0.10787  0.49367  1.0000
  H   H964      1.0  0.88851  0.07232  0.46091  1.0000
  H   H965      1.0  0.53264  0.32666  0.30478  1.0000
  Fe  Fe108     1.0  0.51568  0.26649  0.33544  1.0000
  H   H966      1.0  0.71223  0.12905  0.45933  1.0000
  S   S216      1.0  0.54038  0.28562  0.35673  1.0000
  C   C802      1.0  0.72812  0.12558  0.46729  1.0000
  C   C803      1.0  0.98954  0.17154  0.26744  1.0000
  H   H967      1.0  0.70889  0.08009  0.36711  1.0000
  H   H968      1.0  0.75193  0.08561  0.37489  1.0000
  S   S217      1.0  0.52644  0.25634  0.30765  1.0000
  C   C804      1.0  0.96025  0.50502  0.42557  1.0000
  C   C805      1.0  0.54777  0.38311  0.31093  1.0000
  H   H969      1.0  0.93120  0.15032  0.33073  1.0000
  C   C806      1.0  0.71176  0.33421  0.48545  1.0000
  H   H970      1.0  0.52314  0.37780  0.34207  1.0000
  H   H971      1.0  0.94491  0.13083  0.31314  1.0000
  Fe  Fe109     1.0  0.80116  0.47930  0.42846  1.0000
  S   S218      1.0  0.79366  0.43230  0.42029  1.0000
  Fe  Fe110     1.0  0.78211  0.04362  0.42473  1.0000
  S   S219      1.0  0.74955  0.07137  0.41720  1.0000
  C   C807      1.0  0.85494  0.48779  0.35633  1.0000
  S   S220      1.0  0.81654  0.06317  0.43435  1.0000
  Fe  Fe111     1.0  0.67177  0.25448  0.45255  1.0000
  S   S221      1.0  0.71010  0.26917  0.45128  1.0000
  S   S222      1.0  0.65384  0.24319  0.47844  1.0000
  Fe  Fe112     1.0  0.66478  0.25747  0.41229  1.0000
  S   S223      1.0  0.70326  0.27256  0.40846  1.0000
  S   S224      1.0  0.64250  0.24434  0.38799  1.0000
  Fe  Fe113     1.0  0.71307  0.23825  0.42847  1.0000
  S   S225      1.0  0.74604  0.20867  0.42722  1.0000
  Fe  Fe114     1.0  0.69684  0.30207  0.43168  1.0000
  S   S226      1.0  0.70340  0.35045  0.43634  1.0000
  S   S227      1.0  0.67545  0.22146  0.43095  1.0000
  S   S228      1.0  0.65769  0.28901  0.43429  1.0000
  C   C808      1.0  0.66914  0.24626  0.49879  1.0000
  H   H972      1.0  0.74845  0.19705  0.46545  1.0000
  C   C809      1.0  0.69329  0.25473  0.49957  1.0000
  H   H973      1.0  0.93376  0.05768  0.32904  1.0000
  H   H974      1.0  0.70295  0.25934  0.48764  1.0000
  C   C810      1.0  0.98742  0.50372  0.40006  1.0000
  H   H975      1.0  0.56531  0.32706  0.30624  1.0000
  H   H976      1.0  0.63812  0.23372  0.51402  1.0000
  H   H977      1.0  0.55066  0.35934  0.28588  1.0000
  C   C811      1.0  0.49659  0.06926  0.31023  1.0000
  C   C812      1.0  0.76861  0.40978  0.42536  1.0000
  C   C813      1.0  0.74827  0.42023  0.43424  1.0000
  C   C814      1.0  0.72857  0.40171  0.43751  1.0000
  C   C815      1.0  0.72898  0.37253  0.43206  1.0000
  C   C816      1.0  0.74943  0.36199  0.42337  1.0000
  C   C817      1.0  0.76907  0.38056  0.41999  1.0000
  H   H978      1.0  0.74758  0.44265  0.43837  1.0000
  H   H979      1.0  0.71281  0.41017  0.44415  1.0000
  H   H980      1.0  0.75003  0.33964  0.41908  1.0000
  H   H981      1.0  0.78470  0.37223  0.41313  1.0000
  C   C818      1.0  0.74868  0.10929  0.42127  1.0000
  C   C819      1.0  0.76979  0.12531  0.42376  1.0000
  C   C820      1.0  0.76862  0.15562  0.42583  1.0000
  C   C821      1.0  0.74634  0.17026  0.42576  1.0000
  C   C822      1.0  0.72515  0.15416  0.42397  1.0000
  C   C823      1.0  0.72634  0.12389  0.42144  1.0000
  H   H982      1.0  0.78711  0.11448  0.42360  1.0000
  H   H983      1.0  0.78513  0.16784  0.42729  1.0000
  H   H984      1.0  0.70793  0.16509  0.42430  1.0000
  H   H985      1.0  0.70990  0.11169  0.41956  1.0000
  C   C824      1.0  0.61379  0.25589  0.37985  1.0000
  C   C825      1.0  0.60367  0.24131  0.36531  1.0000
  C   C826      1.0  0.58114  0.24979  0.35820  1.0000
  C   C827      1.0  0.56848  0.27319  0.36547  1.0000
  C   C828      1.0  0.57865  0.28786  0.37994  1.0000
  C   C829      1.0  0.60108  0.27921  0.38715  1.0000
  H   H986      1.0  0.61329  0.22326  0.35952  1.0000
  H   H987      1.0  0.57364  0.23829  0.34708  1.0000
  H   H988      1.0  0.56906  0.30597  0.38571  1.0000
  H   H989      1.0  0.60857  0.29069  0.39830  1.0000
  C   C830      1.0  0.54945  0.40441  0.28135  1.0000
  H   H990      1.0  0.71034  0.20053  0.39891  1.0000
  H   H991      1.0  0.67262  0.30241  0.48127  1.0000
  C   C831      1.0  0.91000  0.10294  0.34596  1.0000
  C   C832      1.0  0.74008  0.10437  0.37482  1.0000
  C   C833      1.0  0.54829  0.32958  0.31382  1.0000
  H   H992      1.0  0.50840  0.35877  0.32448  1.0000
  C   C834      1.0  0.75780  0.13917  0.48920  1.0000
  H   H993      1.0  0.55034  0.40168  0.26719  1.0000
  H   H994      1.0  0.95483  0.49646  0.43822  1.0000
  C   C835      1.0  0.70853  0.15291  0.37673  1.0000
  H   H995      1.0  0.84488  0.50493  0.36274  1.0000
  H   H996      1.0  0.68930  0.22208  0.38684  1.0000
  H   H997      1.0  0.56727  0.37864  0.34398  1.0000
  C   C836      1.0  0.68102  0.18466  0.36101  1.0000
  H   H998      1.0  0.86260  0.04861  0.46105  1.0000
  C   C837      1.0  0.90978  0.03689  0.38377  1.0000
  H   H999      1.0  0.58531  0.35949  0.32815  1.0000
  H   H1000     1.0  0.54784  0.31117  0.32325  1.0000
  H   H1001     1.0  0.67839  0.16109  0.40319  1.0000
  H   H1002     1.0  0.68146  0.12169  0.36810  1.0000
  H   H1003     1.0  0.67080  0.16631  0.35522  1.0000
  H   H1004     1.0  0.65947  0.15238  0.38480  1.0000
  C   C838      1.0  0.99086  0.12348  0.28149  1.0000
  C   C839      1.0  0.54965  0.38015  0.29235  1.0000
  N   N54       1.0  0.89216  0.03461  0.47759  1.0000
  H   H1005     1.0  0.53889  0.20033  0.26917  1.0000
  H   H1006     1.0  0.71708  0.21247  0.37682  1.0000
  C   C840      1.0  0.98015  0.49323  0.41677  1.0000
  C   C841      1.0  0.56787  0.35919  0.33538  1.0000
  H   H1007     1.0  0.76518  0.15378  0.49891  1.0000
  C   C842      1.0  0.77001  0.11298  0.48636  1.0000
  H   H1008     1.0  0.73395  0.08399  0.45494  1.0000
  C   C843      1.0  0.81089  0.46357  0.37229  1.0000
  C   C844      1.0  0.71625  0.17628  0.50130  1.0000
  C   C845      1.0  0.54608  0.41177  0.31767  1.0000
  C   C846      1.0  0.68376  0.37432  0.48375  1.0000
  C   C847      1.0  0.84467  0.46110  0.39225  1.0000
  C   C848      1.0  0.67136  0.16931  0.39045  1.0000
  C   C849      1.0  0.89279  0.08013  0.34600  1.0000
  C   C850      1.0  0.74903  0.13144  0.37952  1.0000
  H   H1009     1.0  0.81114  0.48758  0.37329  1.0000
  C   C851      1.0  0.71576  0.10129  0.37060  1.0000
  N   N55       1.0  0.68684  0.34381  0.48956  1.0000
  N   N56       1.0  0.54714  0.35796  0.32302  1.0000
  H   H1010     1.0  0.71500  0.31168  0.49010  1.0000
  H   H1011     1.0  0.72557  0.34831  0.49167  1.0000
  H   H1012     1.0  0.66571  0.38288  0.48757  1.0000
  H   H1013     1.0  0.89379  0.06191  0.33710  1.0000
  S   S229      1.0  0.87084  0.04063  0.40612  1.0000
  H   H1014     1.0  0.86154  0.06151  0.35841  1.0000
  H   H1015     1.0  0.95561  0.12368  0.35221  1.0000
  H   H1016     1.0  0.79526  0.50088  0.49082  1.0000
  H   H1017     1.0  0.69770  0.38897  0.48924  1.0000
  H   H1018     1.0  0.85780  0.10006  0.38070  1.0000
  H   H1019     1.0  0.86617  0.03111  0.49857  1.0000
  Fe  Fe115     1.0  0.83537  0.02743  0.41936  1.0000
  H   H1020     1.0  0.68534  0.37638  0.46917  1.0000
  H   H1021     1.0  0.73217  0.22015  0.48032  1.0000
  Fe  Fe116     1.0  0.49985  0.21947  0.30901  1.0000
  C   C852      1.0  0.94122  0.40095  0.27203  1.0000
  Fe  Fe117     1.0  0.81348  0.03181  0.45673  1.0000
  C   C853      1.0  0.90682  0.12525  0.35864  1.0000
  H   H1022     1.0  0.83300  0.45487  0.40344  1.0000
  H   H1023     1.0  0.65079  0.33156  0.48169  1.0000
  H   H1024     1.0  0.91911  0.14333  0.35936  1.0000
  S   S230      1.0  0.99067  0.04194  0.33612  1.0000
  H   H1025     1.0  0.88636  0.14114  0.38080  1.0000
  H   H1026     1.0  0.53483  0.12758  0.28001  1.0000
  C   C854      1.0  0.91043  0.04896  0.48889  1.0000
  C   C855      1.0  0.70020  0.12520  0.37138  1.0000
  H   H1027     1.0  0.95469  0.08482  0.35300  1.0000
  H   H1028     1.0  0.66815  0.20331  0.36190  1.0000
  H   H1029     1.0  0.52292  0.33935  0.34210  1.0000
  H   H1030     1.0  0.96975  0.10323  0.33532  1.0000
  H   H1031     1.0  0.76786  0.13356  0.38321  1.0000
  C   C856      1.0  0.50508  0.02843  0.28027  1.0000
  C   C857      1.0  0.73656  0.14643  0.47962  1.0000
  N   N57       1.0  0.69137  0.17743  0.37846  1.0000
  C   C858      1.0  0.54556  0.43584  0.30650  1.0000
  H   H1032     1.0  0.69546  0.19070  0.35155  1.0000
  H   H1033     1.0  0.74171  0.17545  0.38491  1.0000
  C   C859      1.0  0.70264  0.20416  0.38558  1.0000
  C   C860      1.0  0.73361  0.15545  0.38050  1.0000
  H   H1034     1.0  0.94709  0.39614  0.28534  1.0000
  H   H1035     1.0  0.65933  0.18805  0.39342  1.0000
  C   C861      1.0  0.87186  0.10133  0.37083  1.0000
  C   C862      1.0  0.87401  0.07957  0.35824  1.0000
  H   H1036     1.0  0.91257  0.13126  0.31520  1.0000
  N   N58       1.0  0.72422  0.17453  0.48270  1.0000
  C   C863      1.0  0.92975  0.13018  0.32279  1.0000
  H   H1037     1.0  0.86726  0.41504  0.35616  1.0000
  N   N59       1.0  0.83500  0.45027  0.37534  1.0000
  C   C864      1.0  0.88810  0.12428  0.37094  1.0000
  S   S231      1.0  0.51368  0.17625  0.29778  1.0000
  H   H1038     1.0  0.54478  0.41576  0.33164  1.0000
  H   H1039     1.0  0.69379  0.20044  0.47403  1.0000
  H   H1040     1.0  0.82511  0.40880  0.36448  1.0000
  C   C865      1.0  0.93181  0.07839  0.32167  1.0000
  H   H1041     1.0  0.90191  0.06462  0.49819  1.0000
  C   C866      1.0  0.52444  0.35860  0.33332  1.0000
  C   C867      1.0  0.66996  0.32595  0.47892  1.0000
  H   H1042     1.0  0.70564  0.19635  0.50395  1.0000
  C   C868      1.0  0.70260  0.17911  0.47141  1.0000
  H   H1043     1.0  0.68856  0.16243  0.47384  1.0000
  S   S232      1.0  0.84004  0.49031  0.43482  1.0000
  C   C869      1.0  0.88642  0.02663  0.38746  1.0000
  C   C870      1.0  0.95362  0.10387  0.34405  1.0000
  H   H1044     1.0  0.98947  0.19489  0.26863  1.0000
  H   H1045     1.0  0.71532  0.33459  0.47105  1.0000
  C   C871      1.0  0.86764  0.43781  0.35301  1.0000
  H   H1046     1.0  0.94032  0.03571  0.36605  1.0000
  Fe  Fe118     1.0  0.49515  0.28432  0.29913  1.0000
  S   S233      1.0  0.78605  0.50559  0.45085  1.0000
  C   C872      1.0  0.49849  0.35018  0.27066  1.0000
  H   H1047     1.0  0.89015  0.49165  0.39934  1.0000
  S   S234      1.0  0.77790  0.01416  0.44810  1.0000
  S   S235      1.0  0.50175  0.31214  0.27450  1.0000
  H   H1048     1.0  0.91552  0.07722  0.31314  1.0000
  C   C873      1.0  0.87737  0.05781  0.46925  1.0000
  H   H1049     1.0  0.51375  0.05891  0.31277  1.0000
  H   H1050     1.0  0.91804  0.05244  0.39255  1.0000
  S   S236      1.0  0.81844  0.04940  0.48430  1.0000
  H   H1051     1.0  0.79752  0.45649  0.38236  1.0000
  C   C874      1.0  0.51602  0.12832  0.27621  1.0000
  H   H1052     1.0  0.89724  0.43075  0.33505  1.0000
  H   H1053     1.0  0.77107  0.07312  0.47172  1.0000
  C   C875      1.0  0.92244  0.02755  0.36869  1.0000
  C   C876      1.0  0.76140  0.09323  0.47404  1.0000
  H   H1054     1.0  0.54604  0.45073  0.27967  1.0000
  C   C877      1.0  0.68289  0.34140  0.50878  1.0000
  H   H1055     1.0  0.92416  0.47180  0.38177  1.0000
  S   S237      1.0  0.96560  0.02161  0.29874  1.0000
  C   C878      1.0  0.54708  0.43213  0.28837  1.0000
  N   N60       1.0  0.93082  0.10365  0.33378  1.0000
  H   H1056     1.0  0.54084  0.23912  0.27006  1.0000
  H   H1057     1.0  0.84601  0.48513  0.39244  1.0000
  H   H1058     1.0  0.70747  0.17909  0.45721  1.0000
  H   H1059     1.0  0.92371  0.06109  0.48079  1.0000
  H   H1060     1.0  0.50228  0.04467  0.26965  1.0000
  H   H1061     1.0  0.92067  0.03327  0.49713  1.0000
  C   C879      1.0  0.81462  0.02677  0.50278  1.0000
  H   H1062     1.0  0.94753  0.07965  0.31263  1.0000
  C   C880      1.0  0.91697  0.49303  0.37873  1.0000
  H   H1063     1.0  0.80370  0.45766  0.35910  1.0000
  H   H1064     1.0  0.75674  0.19888  0.48826  1.0000
  H   H1065     1.0  0.49411  0.21052  0.26808  1.0000
  H   H1066     1.0  0.73163  0.17649  0.51070  1.0000
  H   H1067     1.0  0.70455  0.15759  0.50475  1.0000
  C   C881      1.0  0.88498  0.44650  0.34076  1.0000
  H   H1068     1.0  0.86827  0.07177  0.47923  1.0000
  H   H1069     1.0  0.89062  0.03533  0.44044  1.0000
  H   H1070     1.0  0.98530  0.45801  0.37872  1.0000
  H   H1071     1.0  0.50706  0.10726  0.32496  1.0000
  C   C882      1.0  0.74114  0.19863  0.47907  1.0000
  H   H1072     1.0  0.52165  0.03464  0.28755  1.0000
  C   C883      1.0  0.74044  0.09941  0.46463  1.0000
  S   S238      1.0  0.95130  0.49346  0.35263  1.0000
  H   H1073     1.0  0.86298  0.45215  0.39491  1.0000
  C   C884      1.0  0.50113  0.15058  0.28282  1.0000
  H   H1074     1.0  0.98960  0.47549  0.42302  1.0000
  C   C885      1.0  0.80440  0.50629  0.50296  1.0000
  H   H1075     1.0  0.84806  0.40724  0.38156  1.0000
  H   H1076     1.0  0.54368  0.45750  0.31188  1.0000
  H   H1077     1.0  0.81749  0.41336  0.38722  1.0000
  C   C886      1.0  0.85204  0.45831  0.36120  1.0000
  C   C887      1.0  0.83137  0.41850  0.37708  1.0000
  H   H1078     1.0  0.99138  0.16417  0.29547  1.0000
  H   H1079     1.0  0.94329  0.44706  0.27586  1.0000
  C   C888      1.0  0.89747  0.50409  0.38862  1.0000
  C   C889      1.0  0.87204  0.49613  0.34387  1.0000
  C   C890      1.0  0.90435  0.01536  0.46475  1.0000
  C   C891      1.0  0.65685  0.24028  0.51450  1.0000
  C   C892      1.0  0.90175  0.01865  0.44625  1.0000
  C   C893      1.0  0.88721  0.47560  0.33624  1.0000
  H   H1080     1.0  0.49948  0.24853  0.26639  1.0000
  H   H1081     1.0  0.90126  0.48241  0.32726  1.0000
  S   S239      1.0  0.99204  0.10257  0.30131  1.0000
  H   H1082     1.0  0.50444  0.01038  0.31358  1.0000
  C   C894      1.0  0.99059  0.15398  0.28268  1.0000
  S   S240      1.0  0.80080  0.00941  0.40806  1.0000
  C   C895      1.0  0.93904  0.42970  0.26673  1.0000
  H   H1083     1.0  0.65622  0.30616  0.50845  1.0000
  Fe  Fe119     1.0  0.96397  0.00835  0.32722  1.0000
  C   C896      1.0  0.49289  0.09682  0.31742  1.0000
  C   C897      1.0  0.88324  0.42577  0.67033  1.0000
  Fe  Fe120     1.0  0.49948  0.28405  0.73452  1.0000
  C   C898      1.0  0.91084  0.02804  0.67478  1.0000
  S   S241      1.0  0.79779  0.01076  0.62839  1.0000
  H   H1084     1.0  0.73529  0.30937  0.55015  1.0000
  H   H1085     1.0  0.90838  0.38778  0.71488  1.0000
  Fe  Fe121     1.0  0.78268  0.03184  0.60384  1.0000
  S   S242      1.0  0.81802  0.03065  0.58928  1.0000
  S   S243      1.0  0.75883  0.07149  0.59860  1.0000
  Fe  Fe122     1.0  0.80068  0.46821  0.61603  1.0000
  S   S244      1.0  0.83031  0.47575  0.59646  1.0000
  S   S245      1.0  0.79742  0.42097  0.62414  1.0000
  H   H1086     1.0  0.93729  0.38394  0.70447  1.0000
  C   C899      1.0  0.95176  0.43889  0.71127  1.0000
  H   H1087     1.0  0.88213  0.41160  0.69689  1.0000
  H   H1088     1.0  0.91021  0.46774  0.71809  1.0000
  H   H1089     1.0  0.87525  0.03202  0.68594  1.0000
  C   C900      1.0  0.69619  0.35902  0.52065  1.0000
  Fe  Fe123     1.0  0.65902  0.25009  0.61100  1.0000
  S   S246      1.0  0.68773  0.26216  0.63044  1.0000
  S   S247      1.0  0.62140  0.23575  0.62003  1.0000
  Fe  Fe124     1.0  0.69486  0.25367  0.57969  1.0000
  S   S248      1.0  0.72569  0.26510  0.59775  1.0000
  S   S249      1.0  0.70889  0.25429  0.55155  1.0000
  Fe  Fe125     1.0  0.71111  0.23028  0.61549  1.0000
  S   S250      1.0  0.73289  0.19602  0.63052  1.0000
  Fe  Fe126     1.0  0.69938  0.29546  0.61058  1.0000
  S   S251      1.0  0.70304  0.34409  0.61486  1.0000
  S   S252      1.0  0.68205  0.21690  0.59671  1.0000
  S   S253      1.0  0.66898  0.28545  0.59184  1.0000
  S   S254      1.0  0.53085  0.25446  0.72903  1.0000
  C   C901      1.0  0.69330  0.35657  0.53886  1.0000
  C   C902      1.0  0.70506  0.25714  0.51587  1.0000
  H   H1090     1.0  0.72379  0.26363  0.51635  1.0000
  Fe  Fe127     1.0  0.52415  0.26228  0.70030  1.0000
  S   S255      1.0  0.55868  0.27759  0.68637  1.0000
  H   H1091     1.0  0.95269  0.46254  0.70865  1.0000
  C   C903      1.0  0.92992  0.44532  0.67742  1.0000
  S   S256      1.0  0.96119  0.01560  0.73543  1.0000
  H   H1092     1.0  0.55324  0.37731  0.68970  1.0000
  H   H1093     1.0  0.52487  0.36274  0.69766  1.0000
  C   C904      1.0  0.60435  0.24747  0.63866  1.0000
  C   C905      1.0  0.58181  0.23464  0.64207  1.0000
  C   C906      1.0  0.56769  0.24322  0.65666  1.0000
  C   C907      1.0  0.57592  0.26491  0.66805  1.0000
  C   C908      1.0  0.59854  0.27759  0.66471  1.0000
  C   C909      1.0  0.61271  0.26889  0.65018  1.0000
  H   H1094     1.0  0.57515  0.21801  0.63329  1.0000
  H   H1095     1.0  0.55034  0.23330  0.65895  1.0000
  H   H1096     1.0  0.60513  0.29443  0.67335  1.0000
  H   H1097     1.0  0.62995  0.27905  0.64778  1.0000
  C   C910      1.0  0.77089  0.39994  0.62210  1.0000
  C   C911      1.0  0.77263  0.36956  0.62311  1.0000
  C   C912      1.0  0.75207  0.35203  0.62088  1.0000
  C   C913      1.0  0.72952  0.36483  0.61789  1.0000
  C   C914      1.0  0.72777  0.39521  0.61710  1.0000
  C   C915      1.0  0.74835  0.41270  0.61911  1.0000
  H   H1098     1.0  0.79000  0.35951  0.62549  1.0000
  H   H1099     1.0  0.75363  0.32868  0.62158  1.0000
  H   H1100     1.0  0.71035  0.40526  0.61489  1.0000
  H   H1101     1.0  0.74672  0.43605  0.61846  1.0000
  C   C916      1.0  0.75133  0.10546  0.60829  1.0000
  C   C917      1.0  0.75838  0.11323  0.62535  1.0000
  C   C918      1.0  0.75233  0.14087  0.63209  1.0000
  C   C919      1.0  0.73927  0.16100  0.62187  1.0000
  C   C920      1.0  0.73192  0.15301  0.60496  1.0000
  C   C921      1.0  0.73788  0.12542  0.59826  1.0000
  H   H1102     1.0  0.76851  0.09805  0.63329  1.0000
  H   H1103     1.0  0.75812  0.14685  0.64519  1.0000
  H   H1104     1.0  0.72192  0.16820  0.59692  1.0000
  H   H1105     1.0  0.73226  0.11962  0.58509  1.0000
  C   C922      1.0  0.66861  0.24281  0.53089  1.0000
  C   C923      1.0  0.69280  0.25126  0.53159  1.0000
  C   C924      1.0  0.54479  0.35950  0.69734  1.0000
  H   H1106     1.0  0.65904  0.23811  0.54293  1.0000
  C   C925      1.0  0.55949  0.38476  0.74386  1.0000
  H   H1107     1.0  0.98099  0.12318  0.74270  1.0000
  H   H1108     1.0  0.53968  0.45155  0.75630  1.0000
  C   C926      1.0  0.77207  0.36739  0.54326  1.0000
  C   C927      1.0  0.88543  0.02837  0.67401  1.0000
  C   C928      1.0  0.74532  0.32905  0.55287  1.0000
  C   C929      1.0  0.50176  0.35033  0.76348  1.0000
  C   C930      1.0  0.98439  0.16057  0.75984  1.0000
  H   H1109     1.0  0.86502  0.41855  0.66753  1.0000
  C   C931      1.0  0.66432  0.31846  0.53455  1.0000
  C   C932      1.0  0.89646  0.43937  0.65718  1.0000
  S   S257      1.0  0.92537  0.03521  0.69524  1.0000
  H   H1110     1.0  0.67577  0.33379  0.55994  1.0000
  H   H1111     1.0  0.78244  0.37620  0.53254  1.0000
  Fe  Fe128     1.0  0.50453  0.21769  0.72749  1.0000
  H   H1112     1.0  0.57311  0.14472  0.67419  1.0000
  C   C933      1.0  0.91976  0.44897  0.66070  1.0000
  H   H1113     1.0  0.95873  0.43575  0.72491  1.0000
  N   N61       1.0  0.55507  0.35742  0.71538  1.0000
  C   C934      1.0  0.54355  0.33233  0.72406  1.0000
  C   C935      1.0  0.58127  0.35142  0.71362  1.0000
  C   C936      1.0  0.55122  0.38379  0.72617  1.0000
  C   C937      1.0  0.98675  0.13090  0.75547  1.0000
  H   H1114     1.0  0.94326  0.02333  0.65954  1.0000
  H   H1115     1.0  0.55146  0.32737  0.73715  1.0000
  H   H1116     1.0  0.52396  0.33639  0.72610  1.0000
  H   H1117     1.0  0.54549  0.31226  0.71609  1.0000
  H   H1118     1.0  0.54793  0.33922  0.68965  1.0000
  H   H1119     1.0  0.58999  0.34683  0.72649  1.0000
  H   H1120     1.0  0.58469  0.33203  0.70516  1.0000
  C   C938      1.0  0.66681  0.32094  0.51631  1.0000
  H   H1121     1.0  0.53925  0.22382  0.76298  1.0000
  H   H1122     1.0  0.96453  0.42737  0.70239  1.0000
  N   N62       1.0  0.92670  0.42811  0.70923  1.0000
  H   H1123     1.0  0.75956  0.33232  0.52676  1.0000
  C   C939      1.0  0.91138  0.44441  0.72183  1.0000
  C   C940      1.0  0.91687  0.43168  0.69120  1.0000
  C   C941      1.0  0.75897  0.34211  0.53972  1.0000
  H   H1124     1.0  0.81306  0.06264  0.52094  1.0000
  H   H1125     1.0  0.94770  0.45428  0.67933  1.0000
  H   H1126     1.0  0.79030  0.20240  0.61642  1.0000
  H   H1127     1.0  0.77527  0.49171  0.51942  1.0000
  H   H1128     1.0  0.53174  0.41009  0.70659  1.0000
  H   H1129     1.0  0.73376  0.33128  0.57983  1.0000
  C   C942      1.0  0.67756  0.33615  0.54580  1.0000
  H   H1130     1.0  0.89266  0.43599  0.72238  1.0000
  H   H1131     1.0  0.91877  0.44340  0.73546  1.0000
  C   C943      1.0  0.81289  0.03930  0.51956  1.0000
  C   C944      1.0  0.53894  0.40880  0.71976  1.0000
  H   H1132     1.0  0.53568  0.12123  0.75374  1.0000
  H   H1133     1.0  0.59076  0.37015  0.70759  1.0000
  C   C945      1.0  0.92683  0.39701  0.71417  1.0000
  Fe  Fe129     1.0  0.96321  0.02589  0.70644  1.0000
  N   N63       1.0  0.78633  0.40613  0.56488  1.0000
  C   C946      1.0  0.79908  0.41927  0.54969  1.0000
  C   C947      1.0  0.77059  0.42897  0.57253  1.0000
  C   C948      1.0  0.80480  0.39783  0.57811  1.0000
  C   C949      1.0  0.77181  0.38030  0.56026  1.0000
  S   S258      1.0  0.51722  0.17531  0.74067  1.0000
  H   H1134     1.0  0.70362  0.37020  0.54772  1.0000
  C   C950      1.0  0.75751  0.36652  0.57323  1.0000
  H   H1135     1.0  0.97678  0.17540  0.75030  1.0000
  C   C951      1.0  0.89323  0.42191  0.68708  1.0000
  H   H1136     1.0  0.78616  0.42645  0.53933  1.0000
  H   H1137     1.0  0.80933  0.43902  0.55366  1.0000
  H   H1138     1.0  0.81254  0.40412  0.54389  1.0000
  H   H1139     1.0  0.75583  0.43515  0.56331  1.0000
  H   H1140     1.0  0.78095  0.44895  0.57561  1.0000
  H   H1141     1.0  0.76230  0.42236  0.58514  1.0000
  H   H1142     1.0  0.81707  0.38069  0.57296  1.0000
  H   H1143     1.0  0.81601  0.41666  0.58220  1.0000
  H   H1144     1.0  0.79662  0.38929  0.59037  1.0000
  H   H1145     1.0  0.80937  0.03169  0.54750  1.0000
  H   H1146     1.0  0.52519  0.45161  0.72562  1.0000
  H   H1147     1.0  0.75660  0.37486  0.58646  1.0000
  C   C952      1.0  0.88596  0.02018  0.64237  1.0000
  C   C953      1.0  0.74446  0.34138  0.56957  1.0000
  H   H1148     1.0  0.58767  0.19506  0.67689  1.0000
  C   C954      1.0  0.79314  0.50106  0.51919  1.0000
  H   H1149     1.0  0.93524  0.39348  0.72734  1.0000
  N   N64       1.0  0.66184  0.17224  0.65013  1.0000
  C   C955      1.0  0.66232  0.16815  0.63079  1.0000
  C   C956      1.0  0.66918  0.20253  0.65387  1.0000
  C   C957      1.0  0.68030  0.15292  0.65817  1.0000
  C   C958      1.0  0.63752  0.16514  0.65689  1.0000
  C   C959      1.0  0.62205  0.18612  0.66480  1.0000
  C   C960      1.0  0.62842  0.13653  0.65535  1.0000
  C   C961      1.0  0.59920  0.17861  0.67103  1.0000
  C   C962      1.0  0.60549  0.12928  0.66160  1.0000
  C   C963      1.0  0.59094  0.15028  0.66946  1.0000
  H   H1150     1.0  0.64868  0.18230  0.62421  1.0000
  H   H1151     1.0  0.68036  0.17355  0.62524  1.0000
  H   H1152     1.0  0.65845  0.14548  0.62684  1.0000
  H   H1153     1.0  0.65708  0.21836  0.64713  1.0000
  H   H1154     1.0  0.68777  0.20699  0.64908  1.0000
  H   H1155     1.0  0.66918  0.20722  0.66822  1.0000
  H   H1156     1.0  0.67800  0.12991  0.65427  1.0000
  H   H1157     1.0  0.69892  0.15890  0.65393  1.0000
  H   H1158     1.0  0.67971  0.15421  0.67277  1.0000
  H   H1159     1.0  0.62692  0.20867  0.66609  1.0000
  H   H1160     1.0  0.63889  0.11963  0.64910  1.0000
  C   C964      1.0  0.50587  0.15092  0.75693  1.0000
  H   H1161     1.0  0.59887  0.10732  0.66020  1.0000
  S   S259      1.0  0.50587  0.31256  0.75900  1.0000
  N   N65       1.0  0.84125  0.10276  0.62254  1.0000
  C   C965      1.0  0.86045  0.10297  0.63624  1.0000
  C   C966      1.0  0.82369  0.08003  0.62736  1.0000
  C   C967      1.0  0.85288  0.09464  0.60565  1.0000
  C   C968      1.0  0.82831  0.13075  0.62067  1.0000
  C   C969      1.0  0.83168  0.15434  0.63249  1.0000
  C   C970      1.0  0.81083  0.13454  0.60717  1.0000
  C   C971      1.0  0.81823  0.17995  0.63080  1.0000
  C   C972      1.0  0.79776  0.16035  0.60549  1.0000
  C   C973      1.0  0.80125  0.18290  0.61738  1.0000
  H   H1162     1.0  0.85288  0.10636  0.64963  1.0000
  H   H1163     1.0  0.87029  0.08182  0.63681  1.0000
  H   H1164     1.0  0.87419  0.11990  0.63354  1.0000
  H   H1165     1.0  0.80947  0.07715  0.61716  1.0000
  H   H1166     1.0  0.81429  0.08547  0.63986  1.0000
  H   H1167     1.0  0.83274  0.05865  0.62916  1.0000
  H   H1168     1.0  0.83957  0.09045  0.59502  1.0000
  H   H1169     1.0  0.86524  0.11199  0.60107  1.0000
  H   H1170     1.0  0.86363  0.07425  0.60687  1.0000
  H   H1171     1.0  0.84428  0.15340  0.64331  1.0000
  H   H1172     1.0  0.80638  0.11717  0.59817  1.0000
  H   H1173     1.0  0.82063  0.19749  0.64013  1.0000
  H   H1174     1.0  0.78404  0.16242  0.59536  1.0000
  H   H1175     1.0  0.92972  0.46026  0.65054  1.0000
  H   H1176     1.0  0.65235  0.30228  0.54004  1.0000
  C   C974      1.0  0.81089  0.02182  0.53463  1.0000
  S   S260      1.0  0.81234  0.50449  0.63397  1.0000
  H   H1177     1.0  0.56864  0.36647  0.74975  1.0000
  H   H1178     1.0  0.88850  0.44299  0.64432  1.0000
  C   C975      1.0  0.53513  0.43300  0.73052  1.0000
  C   C976      1.0  0.87303  0.02416  0.65797  1.0000
  S   S261      1.0  0.77398  0.49606  0.60172  1.0000
  H   H1179     1.0  0.85352  0.02444  0.65766  1.0000
  C   C977      1.0  0.91136  0.01980  0.64314  1.0000
  C   C978      1.0  0.92374  0.02335  0.65924  1.0000
  Fe  Fe130     1.0  0.80416  0.50567  0.58291  1.0000
  S   S262      1.0  0.49976  0.22322  0.69809  1.0000
  S   S263      1.0  0.78970  0.50070  0.55502  1.0000
  C   C979      1.0  0.54337  0.43310  0.74783  1.0000
  C   C980      1.0  0.55549  0.40903  0.75449  1.0000
  C   C981      1.0  0.51927  0.12574  0.76093  1.0000
  S   S264      1.0  0.49372  0.29411  0.70579  1.0000
  H   H1180     1.0  0.92157  0.01683  0.63115  1.0000
  H   H1181     1.0  0.88046  0.50525  0.68496  1.0000
  S   S265      1.0  0.87151  0.01663  0.62153  1.0000
  H   H1182     1.0  0.86073  0.50791  0.65562  1.0000
  S   S266      1.0  0.96972  0.50678  0.73602  1.0000
  H   H1183     1.0  0.70917  0.37456  0.51596  1.0000
  C   C982      1.0  0.80488  0.50764  0.53509  1.0000
  H   H1184     1.0  0.53749  0.26139  0.76816  1.0000
  H   H1185     1.0  0.91751  0.15274  0.80165  1.0000
  H   H1186     1.0  0.63762  0.07767  0.86085  1.0000
  S   S267      1.0  0.96152  0.25351  0.86548  1.0000
  H   H1187     1.0  0.85399  0.17186  0.83803  1.0000
  H   H1188     1.0  0.75534  0.18678  0.96822  1.0000
  S   S268      1.0  0.96852  0.27067  0.81264  1.0000
  H   H1189     1.0  0.61330  0.48963  0.95260  1.0000
  Fe  Fe131     1.0  0.82945  0.24546  0.91015  1.0000
  S   S269      1.0  0.79219  0.26491  0.90706  1.0000
  S   S270      1.0  0.84970  0.24056  0.88401  1.0000
  Fe  Fe132     1.0  0.82263  0.23923  0.95018  1.0000
  S   S271      1.0  0.78572  0.25895  0.94970  1.0000
  S   S272      1.0  0.83645  0.21943  0.97554  1.0000
  Fe  Fe133     1.0  0.78005  0.23031  0.92601  1.0000
  S   S273      1.0  0.74531  0.20412  0.92586  1.0000
  Fe  Fe134     1.0  0.80127  0.29154  0.93093  1.0000
  S   S274      1.0  0.79959  0.34097  0.93274  1.0000
  S   S275      1.0  0.81633  0.20895  0.92736  1.0000
  S   S276      1.0  0.83918  0.27371  0.93322  1.0000
  Fe  Fe135     1.0  0.69969  0.46915  0.92892  1.0000
  S   S277      1.0  0.66043  0.48066  0.93263  1.0000
  S   S278      1.0  0.70521  0.42021  0.92709  1.0000
  Fe  Fe136     1.0  0.71224  0.03852  0.92263  1.0000
  S   S279      1.0  0.67910  0.05594  0.93561  1.0000
  S   S280      1.0  0.73886  0.06891  0.90948  1.0000
  C   C983      1.0  0.52181  0.20498  0.79558  1.0000
  C   C984      1.0  0.58585  0.47962  0.87939  1.0000
  C   C985      1.0  0.68943  0.49664  0.99978  1.0000
  C   C986      1.0  0.68281  0.03035  0.00469  1.0000
  C   C987      1.0  0.68945  0.41535  0.99696  1.0000
  C   C988      1.0  0.60858  0.01553  0.89218  1.0000
  C   C989      1.0  0.71698  0.43044  0.97465  1.0000
  H   H1190     1.0  0.66755  0.10361  0.91037  1.0000
  C   C990      1.0  0.50573  0.39093  0.78431  1.0000
  H   H1191     1.0  0.66074  0.04636  0.89002  1.0000
  S   S281      1.0  0.72372  0.01201  0.94586  1.0000
  C   C991      1.0  0.63439  0.08567  0.87446  1.0000
  H   H1192     1.0  0.84081  0.20042  0.01136  1.0000
  H   H1193     1.0  0.77829  0.18207  0.95191  1.0000
  H   H1194     1.0  0.55347  0.14079  0.79454  1.0000
  H   H1195     1.0  0.72551  0.15077  0.88169  1.0000
  C   C992      1.0  0.65125  0.10055  0.90204  1.0000
  H   H1196     1.0  0.70169  0.11170  0.89411  1.0000
  S   S282      1.0  0.53104  0.50353  0.80669  1.0000
  C   C993      1.0  0.66417  0.13043  0.86031  1.0000
  C   C994      1.0  0.70022  0.16005  0.86089  1.0000
  H   H1197     1.0  0.64005  0.08384  0.90873  1.0000
  H   H1198     1.0  0.67749  0.05777  0.87105  1.0000
  H   H1199     1.0  0.55174  0.18718  0.77989  1.0000
  H   H1200     1.0  0.69924  0.42786  0.00726  1.0000
  N   N66       1.0  0.65740  0.09183  0.88380  1.0000
  C   C995      1.0  0.83148  0.23773  0.99567  1.0000
  C   C996      1.0  0.82436  0.26683  0.99610  1.0000
  H   H1201     1.0  0.72858  0.44264  0.98403  1.0000
  H   H1202     1.0  0.82173  0.27855  0.98393  1.0000
  H   H1203     1.0  0.81166  0.12449  0.97624  1.0000
  C   C997      1.0  0.74490  0.16617  0.92231  1.0000
  C   C998      1.0  0.72551  0.14992  0.92885  1.0000
  C   C999      1.0  0.72415  0.11985  0.92584  1.0000
  C   C1000     1.0  0.74172  0.10586  0.91568  1.0000
  C   C1001     1.0  0.76122  0.12209  0.90926  1.0000
  C   C1002     1.0  0.76301  0.15202  0.91276  1.0000
  H   H1204     1.0  0.71142  0.16069  0.93623  1.0000
  H   H1205     1.0  0.70905  0.10774  0.93088  1.0000
  H   H1206     1.0  0.77486  0.11152  0.90133  1.0000
  H   H1207     1.0  0.77797  0.16431  0.90757  1.0000
  C   C1003     1.0  0.73196  0.39893  0.92788  1.0000
  C   C1004     1.0  0.73002  0.36865  0.92627  1.0000
  C   C1005     1.0  0.75052  0.35062  0.92769  1.0000
  C   C1006     1.0  0.77324  0.36272  0.93070  1.0000
  C   C1007     1.0  0.77520  0.39301  0.93230  1.0000
  C   C1008     1.0  0.75468  0.41107  0.93089  1.0000
  H   H1208     1.0  0.71253  0.35903  0.92395  1.0000
  H   H1209     1.0  0.74874  0.32736  0.92642  1.0000
  H   H1210     1.0  0.79270  0.40258  0.93469  1.0000
  H   H1211     1.0  0.75644  0.43431  0.93222  1.0000
  C   C1009     1.0  0.93014  0.25242  0.87035  1.0000
  C   C1010     1.0  0.91238  0.25410  0.85728  1.0000
  C   C1011     1.0  0.88780  0.25127  0.86175  1.0000
  C   C1012     1.0  0.88064  0.24720  0.87933  1.0000
  C   C1013     1.0  0.89834  0.24662  0.89246  1.0000
  C   C1014     1.0  0.92293  0.24894  0.88795  1.0000
  H   H1212     1.0  0.91761  0.25698  0.84372  1.0000
  H   H1213     1.0  0.87426  0.25166  0.85149  1.0000
  H   H1214     1.0  0.89316  0.24334  0.90602  1.0000
  H   H1215     1.0  0.93651  0.24770  0.89818  1.0000
  C   C1015     1.0  0.75915  0.13032  0.00022  1.0000
  H   H1216     1.0  0.83592  0.37288  0.90253  1.0000
  S   S283      1.0  0.69743  0.04361  0.98586  1.0000
  S   S284      1.0  0.98813  0.20893  0.78101  1.0000
  H   H1217     1.0  0.74982  0.11422  0.99246  1.0000
  H   H1218     1.0  0.64097  0.12131  0.90221  1.0000
  H   H1219     1.0  0.68793  0.06615  0.89280  1.0000
  C   C1016     1.0  0.49609  0.41023  0.77193  1.0000
  H   H1220     1.0  0.64733  0.12588  0.85373  1.0000
  H   H1221     1.0  0.62240  0.10504  0.87405  1.0000
  C   C1017     1.0  0.69455  0.12276  0.88275  1.0000
  C   C1018     1.0  0.67152  0.06444  0.88442  1.0000
  C   C1019     1.0  0.70839  0.14507  0.87564  1.0000
  C   C1020     1.0  0.67822  0.15267  0.85320  1.0000
  H   H1222     1.0  0.77641  0.33209  0.00589  1.0000
  H   H1223     1.0  0.56119  0.40896  0.76815  1.0000
  C   C1021     1.0  0.55070  0.50424  0.92666  1.0000
  C   C1022     1.0  0.53384  0.50420  0.91294  1.0000
  H   H1224     1.0  0.96478  0.17105  0.83473  1.0000
  C   C1023     1.0  0.72544  0.38521  0.98974  1.0000
  C   C1024     1.0  0.54053  0.15692  0.79894  1.0000
  C   C1025     1.0  0.98855  0.42046  0.76809  1.0000
  C   C1026     1.0  0.57229  0.01741  0.87356  1.0000
  H   H1225     1.0  0.52249  0.08736  0.77721  1.0000
  H   H1226     1.0  0.52471  0.12854  0.81807  1.0000
  H   H1227     1.0  0.97188  0.41006  0.79296  1.0000
  C   C1027     1.0  0.52431  0.14995  0.81220  1.0000
  H   H1228     1.0  0.54762  0.48959  0.93748  1.0000
  H   H1229     1.0  0.61596  0.47937  0.89760  1.0000
  H   H1230     1.0  0.67552  0.43039  0.99150  1.0000
  C   C1028     1.0  0.98324  0.40213  0.78245  1.0000
  H   H1231     1.0  0.74278  0.37909  0.96420  1.0000
  S   S285      1.0  0.52321  0.01411  0.80201  1.0000
  H   H1232     1.0  0.90726  0.18357  0.87820  1.0000
  S   S286      1.0  0.98489  0.35156  0.80184  1.0000
  H   H1233     1.0  0.49642  0.21776  0.76623  1.0000
  H   H1234     1.0  0.57368  0.03063  0.90080  1.0000
  H   H1235     1.0  0.49367  0.25586  0.77044  1.0000
  H   H1236     1.0  0.71006  0.46404  0.85694  1.0000
  N   N67       1.0  0.93365  0.18389  0.81944  1.0000
  C   C1029     1.0  0.92720  0.20868  0.80790  1.0000
  C   C1030     1.0  0.95828  0.18927  0.82638  1.0000
  C   C1031     1.0  0.93475  0.15716  0.80860  1.0000
  C   C1032     1.0  0.91524  0.18076  0.83340  1.0000
  C   C1033     1.0  0.89066  0.17619  0.82888  1.0000
  S   S287      1.0  0.62246  0.02385  0.91277  1.0000
  S   S288      1.0  0.50500  0.03988  0.83959  1.0000
  H   H1237     1.0  0.58450  0.47564  0.94681  1.0000
  C   C1034     1.0  0.87877  0.17710  0.85949  1.0000
  H   H1238     1.0  0.94131  0.21267  0.79777  1.0000
  H   H1239     1.0  0.91012  0.20515  0.80058  1.0000
  H   H1240     1.0  0.92515  0.22898  0.81570  1.0000
  H   H1241     1.0  0.95893  0.20972  0.83419  1.0000
  C   C1035     1.0  0.74548  0.35773  0.01335  1.0000
  H   H1242     1.0  0.70283  0.44550  0.96962  1.0000
  S   S289      1.0  0.70474  0.50287  0.90787  1.0000
  C   C1036     1.0  0.58392  0.02198  0.88987  1.0000
  C   C1037     1.0  0.83506  0.22284  0.01158  1.0000
  H   H1243     1.0  0.88506  0.17439  0.81531  1.0000
  C   C1038     1.0  0.60695  0.49102  0.88715  1.0000
  H   H1244     1.0  0.71100  0.17740  0.85545  1.0000
  C   C1039     1.0  0.67194  0.11488  0.87546  1.0000
  N   N68       1.0  0.86296  0.33993  0.89786  1.0000
  C   C1040     1.0  0.84523  0.31665  0.89448  1.0000
  C   C1041     1.0  0.86838  0.33987  0.91702  1.0000
  C   C1042     1.0  0.85151  0.36823  0.89366  1.0000
  C   C1043     1.0  0.88451  0.33515  0.88669  1.0000
  C   C1044     1.0  0.90771  0.32849  0.89373  1.0000
  C   C1045     1.0  0.88251  0.33622  0.86807  1.0000
  C   C1046     1.0  0.92754  0.32366  0.88273  1.0000
  C   C1047     1.0  0.90249  0.33142  0.85723  1.0000
  C   C1048     1.0  0.92497  0.32521  0.86455  1.0000
  H   H1245     1.0  0.83939  0.31560  0.88051  1.0000
  H   H1246     1.0  0.85314  0.29519  0.89774  1.0000
  H   H1247     1.0  0.82860  0.31943  0.90253  1.0000
  H   H1248     1.0  0.87559  0.31851  0.92141  1.0000
  H   H1249     1.0  0.85182  0.34376  0.92503  1.0000
  H   H1250     1.0  0.88150  0.35711  0.92057  1.0000
  H   H1251     1.0  0.84413  0.36893  0.88009  1.0000
  Fe  Fe137     1.0  0.52147  0.49598  0.83518  1.0000
  H   H1252     1.0  0.86467  0.38624  0.89510  1.0000
  H   H1253     1.0  0.91101  0.32637  0.90765  1.0000
  H   H1254     1.0  0.86536  0.34025  0.86174  1.0000
  H   H1255     1.0  0.94497  0.31786  0.88826  1.0000
  H   H1256     1.0  0.90053  0.33198  0.84304  1.0000
  H   H1257     1.0  0.94035  0.32080  0.85612  1.0000
  H   H1258     1.0  0.62386  0.06853  0.88125  1.0000
  H   H1259     1.0  0.81806  0.16245  0.97749  1.0000
  C   C1049     1.0  0.53935  0.23947  0.77417  1.0000
  H   H1260     1.0  0.55729  0.23860  0.78074  1.0000
  Fe  Fe138     1.0  0.49743  0.47761  0.80049  1.0000
  C   C1050     1.0  0.51944  0.25730  0.79991  1.0000
  H   H1261     1.0  0.57868  0.45928  0.88407  1.0000
  C   C1051     1.0  0.92081  0.18279  0.85164  1.0000
  H   H1262     1.0  0.53577  0.25626  0.80844  1.0000
  H   H1263     1.0  0.93884  0.18685  0.85647  1.0000
  H   H1264     1.0  0.86477  0.17685  0.86944  1.0000
  H   H1265     1.0  0.70230  0.38204  0.95826  1.0000
  H   H1266     1.0  0.51911  0.27903  0.79344  1.0000
  C   C1052     1.0  0.66593  0.50768  0.99891  1.0000
  C   C1053     1.0  0.99190  0.17124  0.77633  1.0000
  N   N69       1.0  0.70613  0.40466  0.98308  1.0000
  H   H1267     1.0  0.77101  0.10773  0.96706  1.0000
  H   H1268     1.0  0.81144  0.14665  0.95671  1.0000
  C   C1054     1.0  0.50548  0.19708  0.80910  1.0000
  H   H1269     1.0  0.67199  0.16437  0.84169  1.0000
  H   H1270     1.0  0.69956  0.49329  0.98785  1.0000
  C   C1055     1.0  0.50856  0.36125  0.78009  1.0000
  Fe  Fe139     1.0  0.68939  0.02732  0.95830  1.0000
  H   H1271     1.0  0.78579  0.19850  0.97222  1.0000
  C   C1056     1.0  0.76119  0.35497  0.98384  1.0000
  C   C1057     1.0  0.59865  0.49103  0.94254  1.0000
  C   C1058     1.0  0.76241  0.34693  0.00147  1.0000
  C   C1059     1.0  0.57380  0.49437  0.86572  1.0000
  H   H1272     1.0  0.77134  0.13167  0.94877  1.0000
  H   H1273     1.0  0.81676  0.30384  0.01258  1.0000
  C   C1060     1.0  0.51181  0.10640  0.77424  1.0000
  N   N70       1.0  0.78039  0.15195  0.97354  1.0000
  C   C1061     1.0  0.80647  0.14607  0.97090  1.0000
  C   C1062     1.0  0.76676  0.13034  0.96300  1.0000
  C   C1063     1.0  0.77468  0.18103  0.96628  1.0000
  C   C1064     1.0  0.77483  0.15116  0.99259  1.0000
  H   H1274     1.0  0.55331  0.02245  0.87208  1.0000
  Fe  Fe140     1.0  0.66056  0.01687  0.92388  1.0000
  H   H1275     1.0  0.68311  0.36927  0.97546  1.0000
  H   H1276     1.0  0.60603  0.48286  0.92984  1.0000
  C   C1065     1.0  0.53931  0.18388  0.79060  1.0000
  H   H1277     1.0  0.94885  0.15871  0.79819  1.0000
  C   C1066     1.0  0.90276  0.18087  0.86440  1.0000
  C   C1067     1.0  0.87274  0.17457  0.84177  1.0000
  C   C1068     1.0  0.82148  0.28109  0.01234  1.0000
  N   N71       1.0  0.51953  0.23348  0.78675  1.0000
  H   H1278     1.0  0.93914  0.13790  0.81683  1.0000
  C   C1069     1.0  0.72722  0.37661  0.00767  1.0000
  S   S290      1.0  0.54660  0.47955  0.85708  1.0000
  C   C1070     1.0  0.65876  0.02139  0.00423  1.0000
  H   H1279     1.0  0.51605  0.34667  0.78980  1.0000
  C   C1071     1.0  0.73355  0.49849  0.86528  1.0000
  H   H1280     1.0  0.67678  0.40302  0.96432  1.0000
  H   H1281     1.0  0.98129  0.44223  0.76768  1.0000
  C   C1072     1.0  0.69144  0.38905  0.96979  1.0000
  Fe  Fe141     1.0  0.98222  0.26256  0.84001  1.0000
  H   H1282     1.0  0.72819  0.42477  0.96305  1.0000
  C   C1073     1.0  0.71147  0.48688  0.86011  1.0000
  H   H1283     1.0  0.74929  0.48452  0.86611  1.0000
  S   S291      1.0  0.71265  0.49816  0.95075  1.0000
  C   C1074     1.0  0.50678  0.16997  0.81726  1.0000
  C   C1075     1.0  0.69107  0.50455  0.85938  1.0000
  H   H1284     1.0  0.74693  0.13399  0.96395  1.0000
  H   H1285     1.0  0.77428  0.34642  0.97453  1.0000
  H   H1286     1.0  0.64884  0.02183  0.99196  1.0000
  H   H1287     1.0  0.51858  0.48956  0.91323  1.0000
  H   H1288     1.0  0.67950  0.39727  0.00328  1.0000
  C   C1076     1.0  0.74303  0.37379  0.97804  1.0000
  H   H1289     1.0  0.50327  0.25691  0.80848  1.0000
  H   H1290     1.0  0.79803  0.18759  0.99939  1.0000
  H   H1291     1.0  0.51111  0.39892  0.79710  1.0000
  C   C1077     1.0  0.78587  0.17121  0.00424  1.0000
  H   H1292     1.0  0.97166  0.19158  0.81558  1.0000
  H   H1293     1.0  0.67374  0.49541  0.85575  1.0000
  S   S292      1.0  0.49291  0.44821  0.77613  1.0000
  C   C1078     1.0  0.49653  0.23443  0.77681  1.0000
  Fe  Fe142     1.0  0.49423  0.04488  0.81113  1.0000
  H   H1294     1.0  0.49374  0.16403  0.82719  1.0000
  C   C1079     1.0  0.99258  0.37370  0.78341  1.0000
  H   H1295     1.0  0.74571  0.93236  0.05528  1.0000
  Fe  Fe143     1.0  0.97445  0.77312  0.19640  1.0000
  Fe  Fe144     1.0  0.65594  0.98619  0.11989  1.0000
  S   S293      1.0  0.94791  0.78975  0.17539  1.0000
  C   C1080     1.0  0.60747  0.98507  0.15279  1.0000
  H   H1296     1.0  0.63291  0.55768  0.11898  1.0000
  S   S294      1.0  0.96481  0.76627  0.22488  1.0000
  S   S295      1.0  0.50416  0.53879  0.19975  1.0000
  N   N72       1.0  0.50510  0.99202  0.14536  1.0000
  C   C1081     1.0  0.59852  0.96460  0.20881  1.0000
  C   C1082     1.0  0.98838  0.65976  0.25172  1.0000
  H   H1297     1.0  0.66964  0.61067  0.14200  1.0000
  H   H1298     1.0  0.57902  0.89070  0.25390  1.0000
  C   C1083     1.0  0.52750  0.99492  0.13492  1.0000
  H   H1299     1.0  0.52166  0.96190  0.16326  1.0000
  H   H1300     1.0  0.61889  0.93320  0.19422  1.0000
  Fe  Fe145     1.0  0.82960  0.74681  0.11711  1.0000
  S   S296      1.0  0.78963  0.73860  0.11995  1.0000
  S   S297      1.0  0.85664  0.73085  0.13791  1.0000
  Fe  Fe146     1.0  0.82353  0.76407  0.07837  1.0000
  S   S298      1.0  0.78349  0.75726  0.07833  1.0000
  S   S299      1.0  0.84679  0.77263  0.05446  1.0000
  Fe  Fe147     1.0  0.78478  0.78024  0.10452  1.0000
  S   S300      1.0  0.75404  0.81031  0.11279  1.0000
  Fe  Fe148     1.0  0.79112  0.71654  0.09363  1.0000
  S   S301      1.0  0.77771  0.67275  0.08367  1.0000
  S   S302      1.0  0.82470  0.78990  0.10360  1.0000
  S   S303      1.0  0.83118  0.72189  0.09176  1.0000
  H   H1301     1.0  0.59740  0.89174  0.20579  1.0000
  H   H1302     1.0  0.67557  0.55770  0.14368  1.0000
  H   H1303     1.0  0.57460  0.99129  0.22400  1.0000
  H   H1304     1.0  0.55833  0.97082  0.17866  1.0000
  C   C1084     1.0  0.55999  0.89270  0.24934  1.0000
  C   C1085     1.0  0.71280  0.94487  0.01752  1.0000
  Fe  Fe149     1.0  0.70476  0.97177  0.10234  1.0000
  S   S304      1.0  0.73947  0.94576  0.09837  1.0000
  Fe  Fe150     1.0  0.70361  0.53404  0.11195  1.0000
  S   S305      1.0  0.71347  0.57855  0.12293  1.0000
  S   S306      1.0  0.66651  0.95926  0.09621  1.0000
  S   S307      1.0  0.67051  0.52763  0.09527  1.0000
  C   C1086     1.0  0.75910  0.64742  0.09468  1.0000
  C   C1087     1.0  0.74956  0.65285  0.11137  1.0000
  C   C1088     1.0  0.73536  0.63169  0.11976  1.0000
  C   C1089     1.0  0.73049  0.60500  0.11153  1.0000
  C   C1090     1.0  0.73987  0.59971  0.09477  1.0000
  C   C1091     1.0  0.75413  0.62080  0.08643  1.0000
  H   H1305     1.0  0.75305  0.67333  0.11779  1.0000
  H   H1306     1.0  0.72824  0.63595  0.13274  1.0000
  H   H1307     1.0  0.73629  0.57928  0.08830  1.0000
  H   H1308     1.0  0.76142  0.61640  0.07351  1.0000
  C   C1092     1.0  0.75016  0.84778  0.10801  1.0000
  C   C1093     1.0  0.76818  0.86424  0.09996  1.0000
  C   C1094     1.0  0.76455  0.89414  0.09700  1.0000
  C   C1095     1.0  0.74283  0.90786  0.10188  1.0000
  C   C1096     1.0  0.72469  0.89133  0.10968  1.0000
  C   C1097     1.0  0.72842  0.86151  0.11280  1.0000
  H   H1309     1.0  0.78499  0.85401  0.09624  1.0000
  H   H1310     1.0  0.77871  0.90671  0.09096  1.0000
  H   H1311     1.0  0.70791  0.90154  0.11354  1.0000
  H   H1312     1.0  0.71438  0.84900  0.11905  1.0000
  C   C1098     1.0  0.57958  0.96926  0.22048  1.0000
  H   H1313     1.0  0.58821  0.99846  0.10853  1.0000
  C   C1099     1.0  0.61712  0.57589  0.15204  1.0000
  C   C1100     1.0  0.73291  0.93941  0.02869  1.0000
  C   C1101     1.0  0.61513  0.57675  0.17066  1.0000
  Fe  Fe151     1.0  0.66451  0.00108  0.08124  1.0000
  C   C1102     1.0  0.83138  0.77524  0.03417  1.0000
  C   C1103     1.0  0.80696  0.78275  0.03366  1.0000
  C   C1104     1.0  0.56676  0.94581  0.22728  1.0000
  H   H1314     1.0  0.79755  0.78795  0.04570  1.0000
  H   H1315     1.0  0.62839  0.59664  0.11881  1.0000
  H   H1316     1.0  0.58606  0.85943  0.22772  1.0000
  C   C1105     1.0  0.58831  0.96966  0.16046  1.0000
  C   C1106     1.0  0.93566  0.91617  0.25951  1.0000
  H   H1317     1.0  0.65010  0.53407  0.14416  1.0000
  H   H1318     1.0  0.60817  0.98291  0.20335  1.0000
  H   H1319     1.0  0.55261  0.91297  0.25512  1.0000
  H   H1320     1.0  0.58565  0.94716  0.15699  1.0000
  H   H1321     1.0  0.76636  0.73598  0.03237  1.0000
  N   N73       1.0  0.77612  0.69590  0.01949  1.0000
  S   S308      1.0  0.50658  0.97029  0.20741  1.0000
  C   C1107     1.0  0.55502  0.97534  0.11249  1.0000
  H   H1322     1.0  0.64001  0.62562  0.14575  1.0000
  C   C1108     1.0  0.68992  0.94794  0.02579  1.0000
  H   H1323     1.0  0.52159  0.95591  0.11920  1.0000
  C   C1109     1.0  0.92174  0.77336  0.16604  1.0000
  C   C1110     1.0  0.91624  0.74410  0.16859  1.0000
  C   C1111     1.0  0.89620  0.73161  0.15996  1.0000
  C   C1112     1.0  0.88130  0.74814  0.14875  1.0000
  C   C1113     1.0  0.88659  0.77750  0.14638  1.0000
  C   C1114     1.0  0.90672  0.78995  0.15491  1.0000
  H   H1324     1.0  0.92759  0.73101  0.17705  1.0000
  H   H1325     1.0  0.89229  0.70892  0.16199  1.0000
  H   H1326     1.0  0.87511  0.79066  0.13810  1.0000
  H   H1327     1.0  0.91081  0.81258  0.15281  1.0000
  C   C1115     1.0  0.65707  0.55514  0.14904  1.0000
  H   H1328     1.0  0.63083  0.57946  0.17893  1.0000
  H   H1329     1.0  0.70549  0.93724  0.06864  1.0000
  C   C1116     1.0  0.65213  0.60703  0.14888  1.0000
  S   S309      1.0  0.62672  0.96701  0.13762  1.0000
  N   N74       1.0  0.81616  0.65371  0.14124  1.0000
  C   C1117     1.0  0.83883  0.65057  0.15150  1.0000
  C   C1118     1.0  0.82288  0.66178  0.12300  1.0000
  C   C1119     1.0  0.80194  0.67811  0.14867  1.0000
  C   C1120     1.0  0.80203  0.62658  0.14226  1.0000
  C   C1121     1.0  0.79372  0.61629  0.15877  1.0000
  C   C1122     1.0  0.79600  0.60973  0.12720  1.0000
  C   C1123     1.0  0.77981  0.59116  0.16005  1.0000
  C   C1124     1.0  0.78234  0.58445  0.12869  1.0000
  C   C1125     1.0  0.77401  0.57538  0.14502  1.0000
  H   H1330     1.0  0.83543  0.64713  0.16573  1.0000
  H   H1331     1.0  0.84977  0.63196  0.14663  1.0000
  H   H1332     1.0  0.95219  0.74393  0.13816  1.0000
  H   H1333     1.0  0.83430  0.64489  0.11667  1.0000
  H   H1334     1.0  0.83350  0.68216  0.12269  1.0000
  H   H1335     1.0  0.80661  0.66566  0.11471  1.0000
  H   H1336     1.0  0.79795  0.67528  0.16286  1.0000
  H   H1337     1.0  0.81181  0.69905  0.14761  1.0000
  H   H1338     1.0  0.78441  0.68066  0.14163  1.0000
  H   H1339     1.0  0.79769  0.62785  0.17079  1.0000
  H   H1340     1.0  0.80100  0.61594  0.11402  1.0000
  H   H1341     1.0  0.77322  0.58403  0.17273  1.0000
  H   H1342     1.0  0.77738  0.57233  0.11700  1.0000
  C   C1126     1.0  0.53343  0.97391  0.12194  1.0000
  S   S310      1.0  0.52568  0.51544  0.23768  1.0000
  H   H1343     1.0  0.86250  0.76375  0.01863  1.0000
  H   H1344     1.0  0.93624  0.93792  0.25434  1.0000
  H   H1345     1.0  0.55956  0.95864  0.10299  1.0000
  H   H1346     1.0  0.52437  0.91536  0.22992  1.0000
  N   N75       1.0  0.55847  0.89238  0.22985  1.0000
  C   C1127     1.0  0.53282  0.89540  0.22452  1.0000
  H   H1347     1.0  0.87180  0.80076  0.08442  1.0000
  C   C1128     1.0  0.73020  0.93671  0.04691  1.0000
  H   H1348     1.0  0.52170  0.87700  0.22935  1.0000
  S   S311      1.0  0.69467  0.99565  0.12719  1.0000
  H   H1349     1.0  0.55712  0.56354  0.14338  1.0000
  C   C1129     1.0  0.76151  0.72283  0.02057  1.0000
  H   H1350     1.0  0.65895  0.55342  0.16353  1.0000
  H   H1351     1.0  0.66985  0.94774  0.05007  1.0000
  C   C1130     1.0  0.60451  0.93651  0.20369  1.0000
  H   H1352     1.0  0.55613  0.84563  0.22981  1.0000
  C   C1131     1.0  0.77304  0.68016  0.03638  1.0000
  C   C1132     1.0  0.57262  0.98309  0.17260  1.0000
  C   C1133     1.0  0.59181  0.91284  0.21042  1.0000
  H   H1353     1.0  0.94366  0.89880  0.23380  1.0000
  H   H1354     1.0  0.62844  0.00668  0.01952  1.0000
  C   C1134     1.0  0.56694  0.86343  0.22385  1.0000
  C   C1135     1.0  0.49583  0.61484  0.25678  1.0000
  N   N76       1.0  0.90479  0.77819  0.09107  1.0000
  C   C1136     1.0  0.88732  0.80224  0.09374  1.0000
  C   C1137     1.0  0.91471  0.78026  0.07302  1.0000
  C   C1138     1.0  0.89114  0.75063  0.09220  1.0000
  C   C1139     1.0  0.92461  0.78033  0.10412  1.0000
  C   C1140     1.0  0.93900  0.80570  0.10500  1.0000
  C   C1141     1.0  0.93015  0.75783  0.11628  1.0000
  C   C1142     1.0  0.95736  0.80863  0.11753  1.0000
  C   C1143     1.0  0.94880  0.76086  0.12856  1.0000
  C   C1144     1.0  0.96216  0.78629  0.12933  1.0000
  H   H1355     1.0  0.89543  0.82388  0.09159  1.0000
  C   C1145     1.0  0.57112  0.99789  0.11547  1.0000
  H   H1356     1.0  0.87991  0.80192  0.10733  1.0000
  H   H1357     1.0  0.90026  0.77788  0.06286  1.0000
  S   S312      1.0  0.50981  0.94816  0.26037  1.0000
  H   H1358     1.0  0.92337  0.80151  0.07050  1.0000
  H   H1359     1.0  0.88224  0.74825  0.10524  1.0000
  H   H1360     1.0  0.87657  0.74964  0.08212  1.0000
  H   H1361     1.0  0.90293  0.73149  0.08980  1.0000
  H   H1362     1.0  0.93587  0.82369  0.09621  1.0000
  H   H1363     1.0  0.91991  0.73803  0.11704  1.0000
  Fe  Fe152     1.0  0.50051  0.97695  0.23654  1.0000
  H   H1364     1.0  0.94494  0.84790  0.24375  1.0000
  C   C1146     1.0  0.80199  0.70372  0.01807  1.0000
  C   C1147     1.0  0.63990  0.57879  0.12400  1.0000
  H   H1365     1.0  0.79986  0.00071  0.11589  1.0000
  H   H1366     1.0  0.97580  0.78893  0.13947  1.0000
  C   C1148     1.0  0.59545  0.57120  0.14238  1.0000
  C   C1149     1.0  0.59294  0.57311  0.17905  1.0000
  C   C1150     1.0  0.57330  0.56791  0.15093  1.0000
  C   C1151     1.0  0.57206  0.56879  0.16921  1.0000
  H   H1367     1.0  0.54944  0.87471  0.25533  1.0000
  H   H1368     1.0  0.59193  0.57254  0.19330  1.0000
  C   C1152     1.0  0.94065  0.86508  0.25302  1.0000
  H   H1369     1.0  0.55506  0.56497  0.17585  1.0000
  H   H1370     1.0  0.65815  0.58147  0.11807  1.0000
  H   H1371     1.0  0.59518  0.56920  0.12825  1.0000
  H   H1372     1.0  0.85021  0.67042  0.15058  1.0000
  C   C1153     1.0  0.97855  0.63174  0.25318  1.0000
  H   H1373     1.0  0.77885  0.69359  0.04783  1.0000
  C   C1154     1.0  0.57253  0.91681  0.22254  1.0000
  H   H1374     1.0  0.56517  0.86100  0.20933  1.0000
  H   H1375     1.0  0.74191  0.71784  0.02136  1.0000
  H   H1376     1.0  0.92841  0.76301  0.07062  1.0000
  C   C1155     1.0  0.70751  0.93948  0.05453  1.0000
  H   H1377     1.0  0.78416  0.66004  0.03688  1.0000
  C   C1156     1.0  0.68745  0.94518  0.04401  1.0000
  H   H1378     1.0  0.65627  0.60778  0.16317  1.0000
  N   N77       1.0  0.64098  0.57918  0.14353  1.0000
  H   H1379     1.0  0.76268  0.55632  0.14592  1.0000
  H   H1380     1.0  0.67361  0.95277  0.01855  1.0000
  H   H1381     1.0  0.80827  0.71641  0.02969  1.0000
  H   H1382     1.0  0.75383  0.67452  0.03884  1.0000
  H   H1383     1.0  0.81356  0.68404  0.01700  1.0000
  C   C1157     1.0  0.50535  0.96389  0.15480  1.0000
  H   H1384     1.0  0.75089  0.93708  0.02341  1.0000
  S   S313      1.0  0.98076  0.68138  0.23297  1.0000
  C   C1158     1.0  0.79468  0.78401  0.01752  1.0000
  H   H1385     1.0  0.53097  0.89640  0.20995  1.0000
  C   C1159     1.0  0.93998  0.89381  0.24746  1.0000
  Fe  Fe153     1.0  0.49619  0.54578  0.22876  1.0000
  C   C1160     1.0  0.84355  0.76943  0.01834  1.0000
  H   H1386     1.0  0.55211  0.95064  0.23620  1.0000
  H   H1387     1.0  0.96764  0.82852  0.11836  1.0000
  H   H1388     1.0  0.77576  0.78988  0.01731  1.0000
  H   H1389     1.0  0.78116  0.98737  0.13293  1.0000
  H   H1390     1.0  0.96619  0.62413  0.24319  1.0000
  H   H1391     1.0  0.75708  0.63930  0.01718  1.0000
  H   H1392     1.0  0.74517  0.00076  0.11467  1.0000
  H   H1393     1.0  0.50513  0.94505  0.14572  1.0000
  H   H1394     1.0  0.65371  0.50944  0.04308  1.0000
  S   S314      1.0  0.64439  0.00407  0.05538  1.0000
  Fe  Fe154     1.0  0.99003  0.72763  0.22389  1.0000
  C   C1161     1.0  0.78992  0.00744  0.12790  1.0000
  C   C1162     1.0  0.59975  0.64946  0.31117  1.0000
  H   H1395     1.0  0.52463  0.91425  0.29025  1.0000
  C   C1163     1.0  0.50286  0.91181  0.26674  1.0000
  C   C1164     1.0  0.98470  0.61332  0.26737  1.0000
  H   H1396     1.0  0.92591  0.54968  0.35103  1.0000
  H   H1397     1.0  0.90294  0.90764  0.30700  1.0000
  Fe  Fe155     1.0  0.53566  0.76712  0.33453  1.0000
  S   S315      1.0  0.99240  0.97380  0.32392  1.0000
  S   S316      1.0  0.57244  0.77924  0.34639  1.0000
  H   H1398     1.0  0.88565  0.00050  0.49661  1.0000
  H   H1399     1.0  0.69706  0.88950  0.45191  1.0000
  H   H1400     1.0  0.52918  0.73933  0.39314  1.0000
  H   H1401     1.0  0.92979  0.87437  0.29633  1.0000
  S   S317      1.0  0.53152  0.75723  0.30555  1.0000
  C   C1165     1.0  0.91812  0.53688  0.36146  1.0000
  S   S318      1.0  0.84193  0.52641  0.48240  1.0000
  C   C1166     1.0  0.89827  0.54769  0.37113  1.0000
  H   H1402     1.0  0.87434  0.51888  0.34075  1.0000
  H   H1403     1.0  0.63350  0.69830  0.37576  1.0000
  Fe  Fe156     1.0  0.49879  0.78664  0.30638  1.0000
  Fe  Fe157     1.0  0.79956  0.98171  0.43261  1.0000
  S   S319      1.0  0.79563  0.93294  0.43683  1.0000
  Fe  Fe158     1.0  0.78524  0.54309  0.43176  1.0000
  S   S320      1.0  0.75175  0.57212  0.43226  1.0000
  C   C1167     1.0  0.88850  0.99754  0.36074  1.0000
  S   S321      1.0  0.82270  0.55813  0.43791  1.0000
  Fe  Fe159     1.0  0.68777  0.77416  0.46323  1.0000
  S   S322      1.0  0.72330  0.78150  0.44985  1.0000
  S   S323      1.0  0.68670  0.79012  0.49159  1.0000
  Fe  Fe160     1.0  0.66319  0.75610  0.42841  1.0000
  S   S324      1.0  0.69727  0.76226  0.41288  1.0000
  S   S325      1.0  0.62773  0.73960  0.41641  1.0000
  Fe  Fe161     1.0  0.71588  0.73967  0.43551  1.0000
  S   S326      1.0  0.74904  0.71064  0.43208  1.0000
  Fe  Fe162     1.0  0.70194  0.80332  0.42868  1.0000
  S   S327      1.0  0.71076  0.84668  0.41598  1.0000
  S   S328      1.0  0.68162  0.73074  0.45035  1.0000
  S   S329      1.0  0.66655  0.79866  0.44270  1.0000
  H   H1404     1.0  0.91114  0.00302  0.42044  1.0000
  C   C1168     1.0  0.76902  0.61974  0.48422  1.0000
  C   C1169     1.0  0.57750  0.66352  0.31012  1.0000
  H   H1405     1.0  0.85800  0.99860  0.37854  1.0000
  H   H1406     1.0  0.67891  0.72770  0.49653  1.0000
  H   H1407     1.0  0.56497  0.76775  0.45000  1.0000
  H   H1408     1.0  0.69843  0.84316  0.46805  1.0000
  C   C1170     1.0  0.51320  0.90056  0.28227  1.0000
  H   H1409     1.0  0.52783  0.76287  0.43287  1.0000
  H   H1410     1.0  0.79759  0.93681  0.48702  1.0000
  C   C1171     1.0  0.77072  0.91028  0.43195  1.0000
  C   C1172     1.0  0.77023  0.88214  0.43905  1.0000
  C   C1173     1.0  0.75137  0.86291  0.43493  1.0000
  C   C1174     1.0  0.73323  0.87127  0.42318  1.0000
  C   C1175     1.0  0.73354  0.89951  0.41624  1.0000
  C   C1176     1.0  0.75203  0.91908  0.42077  1.0000
  H   H1411     1.0  0.78470  0.87497  0.44757  1.0000
  H   H1412     1.0  0.75113  0.84144  0.44053  1.0000
  H   H1413     1.0  0.71955  0.90618  0.40714  1.0000
  H   H1414     1.0  0.75222  0.94061  0.41516  1.0000
  C   C1177     1.0  0.75145  0.61065  0.43231  1.0000
  C   C1178     1.0  0.77268  0.62686  0.43124  1.0000
  C   C1179     1.0  0.77158  0.65741  0.43109  1.0000
  C   C1180     1.0  0.74932  0.67210  0.43210  1.0000
  C   C1181     1.0  0.72811  0.65590  0.43329  1.0000
  C   C1182     1.0  0.72921  0.62535  0.43339  1.0000
  H   H1415     1.0  0.78990  0.61588  0.43032  1.0000
  H   H1416     1.0  0.78810  0.66970  0.43016  1.0000
  H   H1417     1.0  0.71086  0.66686  0.43411  1.0000
  H   H1418     1.0  0.71270  0.61301  0.43424  1.0000
  C   C1183     1.0  0.61227  0.75180  0.39723  1.0000
  C   C1184     1.0  0.62160  0.77337  0.38630  1.0000
  C   C1185     1.0  0.60886  0.78198  0.37106  1.0000
  C   C1186     1.0  0.58682  0.76894  0.36641  1.0000
  C   C1187     1.0  0.57754  0.74732  0.37728  1.0000
  C   C1188     1.0  0.59006  0.73903  0.39269  1.0000
  H   H1419     1.0  0.63860  0.78347  0.38962  1.0000
  H   H1420     1.0  0.61630  0.79868  0.36272  1.0000
  H   H1421     1.0  0.56105  0.73651  0.37357  1.0000
  H   H1422     1.0  0.58270  0.72229  0.40103  1.0000
  H   H1423     1.0  0.79616  0.65254  0.47749  1.0000
  H   H1424     1.0  0.78356  0.57974  0.46137  1.0000
  H   H1425     1.0  0.79381  0.55321  0.47698  1.0000
  C   C1189     1.0  0.56351  0.77803  0.43722  1.0000
  H   H1426     1.0  0.94311  0.55563  0.39572  1.0000
  C   C1190     1.0  0.90321  0.92819  0.29941  1.0000
  N   N78       1.0  0.63087  0.69336  0.34749  1.0000
  H   H1427     1.0  0.76308  0.57389  0.50724  1.0000
  Fe  Fe163     1.0  0.50633  0.72146  0.31370  1.0000
  C   C1191     1.0  0.54244  0.77515  0.42722  1.0000
  H   H1428     1.0  0.66294  0.68025  0.33352  1.0000
  C   C1192     1.0  0.50568  0.65195  0.28605  1.0000
  C   C1193     1.0  0.57267  0.68704  0.32103  1.0000
  H   H1429     1.0  0.50772  0.74158  0.41068  1.0000
  N   N79       1.0  0.78557  0.59520  0.48793  1.0000
  C   C1194     1.0  0.74250  0.87926  0.49026  1.0000
  S   S330      1.0  0.51274  0.72969  0.34271  1.0000
  H   H1430     1.0  0.94274  0.95664  0.46359  1.0000
  H   H1431     1.0  0.96385  0.93718  0.29848  1.0000
  C   C1195     1.0  0.78115  0.57171  0.47504  1.0000
  S   S331      1.0  0.83535  0.99787  0.44292  1.0000
  C   C1196     1.0  0.72758  0.63851  0.48148  1.0000
  H   H1432     1.0  0.65249  0.65449  0.34978  1.0000
  H   H1433     1.0  0.86195  0.00605  0.48081  1.0000
  H   H1434     1.0  0.49400  0.78823  0.42150  1.0000
  C   C1197     1.0  0.97358  0.52684  0.39278  1.0000
  C   C1198     1.0  0.93691  0.85851  0.27065  1.0000
  H   H1435     1.0  0.51961  0.61314  0.29826  1.0000
  H   H1436     1.0  0.61932  0.73826  0.34616  1.0000
  Fe  Fe164     1.0  0.82433  0.51932  0.45574  1.0000
  H   H1437     1.0  0.93741  0.96361  0.43153  1.0000
  S   S332      1.0  0.97340  0.52133  0.30342  1.0000
  C   C1199     1.0  0.51147  0.62217  0.28653  1.0000
  H   H1438     1.0  0.51713  0.86339  0.29953  1.0000
  H   H1439     1.0  0.81630  0.98680  0.48826  1.0000
  C   C1200     1.0  0.51315  0.75142  0.39798  1.0000
  S   S333      1.0  0.50476  0.79910  0.33470  1.0000
  C   C1201     1.0  0.78118  0.58390  0.50591  1.0000
  C   C1202     1.0  0.94704  0.52756  0.41803  1.0000
  C   C1203     1.0  0.92733  0.50923  0.36501  1.0000
  H   H1440     1.0  0.51125  0.58098  0.27267  1.0000
  H   H1441     1.0  0.60360  0.70057  0.36722  1.0000
  H   H1442     1.0  0.94395  0.96865  0.27722  1.0000
  S   S334      1.0  0.51076  0.67354  0.30533  1.0000
  C   C1204     1.0  0.91356  0.00010  0.43451  1.0000
  C   C1205     1.0  0.92830  0.97786  0.44074  1.0000
  H   H1443     1.0  0.72754  0.83604  0.49213  1.0000
  H   H1444     1.0  0.61807  0.66611  0.36844  1.0000
  C   C1206     1.0  0.49509  0.66309  0.27075  1.0000
  N   N80       1.0  0.78353  0.78849  0.41128  1.0000
  C   C1207     1.0  0.75806  0.78343  0.40603  1.0000
  C   C1208     1.0  0.79870  0.76707  0.40180  1.0000
  C   C1209     1.0  0.78538  0.78276  0.43045  1.0000
  C   C1210     1.0  0.79202  0.81822  0.40741  1.0000
  C   C1211     1.0  0.81545  0.82709  0.41271  1.0000
  C   C1212     1.0  0.77752  0.83916  0.39855  1.0000
  C   C1213     1.0  0.82344  0.85546  0.41001  1.0000
  C   C1214     1.0  0.78581  0.86737  0.39578  1.0000
  C   C1215     1.0  0.80856  0.87562  0.40169  1.0000
  H   H1445     1.0  0.75539  0.78585  0.39160  1.0000
  H   H1446     1.0  0.75209  0.76108  0.40936  1.0000
  H   H1447     1.0  0.74559  0.79861  0.41293  1.0000
  H   H1448     1.0  0.79810  0.77092  0.38735  1.0000
  H   H1449     1.0  0.79245  0.74445  0.40422  1.0000
  H   H1450     1.0  0.81791  0.76793  0.40597  1.0000
  H   H1451     1.0  0.77536  0.79941  0.43812  1.0000
  H   H1452     1.0  0.77773  0.76126  0.43398  1.0000
  H   H1453     1.0  0.80430  0.78248  0.43524  1.0000
  H   H1454     1.0  0.82765  0.81227  0.41923  1.0000
  H   H1455     1.0  0.75934  0.83475  0.39416  1.0000
  H   H1456     1.0  0.84111  0.86207  0.41462  1.0000
  H   H1457     1.0  0.77409  0.88330  0.38962  1.0000
  H   H1458     1.0  0.81445  0.89786  0.40014  1.0000
  H   H1459     1.0  0.59672  0.81847  0.40915  1.0000
  C   C1216     1.0  0.82748  0.51840  0.50250  1.0000
  C   C1217     1.0  0.93154  0.91020  0.27761  1.0000
  H   H1460     1.0  0.73814  0.96607  0.47716  1.0000
  S   S335      1.0  0.79733  0.51563  0.40881  1.0000
  H   H1461     1.0  0.60334  0.63110  0.30264  1.0000
  H   H1462     1.0  0.88841  0.92724  0.28951  1.0000
  H   H1463     1.0  0.73580  0.94428  0.50738  1.0000
  N   N81       1.0  0.92682  0.93322  0.29080  1.0000
  N   N82       1.0  0.51832  0.78289  0.39952  1.0000
  H   H1464     1.0  0.76260  0.56278  0.47580  1.0000
  C   C1218     1.0  0.72688  0.85680  0.48546  1.0000
  H   H1465     1.0  0.81635  0.62034  0.49624  1.0000
  H   H1466     1.0  0.94276  0.94950  0.31474  1.0000
  C   C1219     1.0  0.58298  0.79361  0.43069  1.0000
  C   C1220     1.0  0.87594  0.00664  0.37593  1.0000
  H   H1467     1.0  0.64911  0.73330  0.35416  1.0000
  C   C1221     1.0  0.70951  0.88695  0.46286  1.0000
  C   C1222     1.0  0.74215  0.90633  0.48137  1.0000
  C   C1223     1.0  0.74364  0.61586  0.48521  1.0000
  C   C1224     1.0  0.95378  0.53853  0.40174  1.0000
  H   H1468     1.0  0.49804  0.74705  0.38869  1.0000
  C   C1225     1.0  0.72516  0.90948  0.46742  1.0000
  H   H1469     1.0  0.59959  0.79506  0.43823  1.0000
  H   H1470     1.0  0.52257  0.81865  0.38142  1.0000
  C   C1226     1.0  0.93230  0.88063  0.28279  1.0000
  C   C1227     1.0  0.93125  0.97399  0.45878  1.0000
  H   H1471     1.0  0.53508  0.78452  0.37395  1.0000
  C   C1228     1.0  0.61293  0.68290  0.33448  1.0000
  C   C1229     1.0  0.61730  0.65887  0.32315  1.0000
  C   C1230     1.0  0.58998  0.69659  0.33307  1.0000
  H   H1472     1.0  0.92265  0.97961  0.29351  1.0000
  H   H1473     1.0  0.81651  0.60973  0.47320  1.0000
  C   C1231     1.0  0.81454  0.99659  0.50112  1.0000
  H   H1474     1.0  0.72390  0.92885  0.45951  1.0000
  C   C1232     1.0  0.62115  0.68942  0.36548  1.0000
  H   H1475     1.0  0.76948  0.97350  0.48016  1.0000
  H   H1476     1.0  0.64258  0.72856  0.33106  1.0000
  H   H1477     1.0  0.97706  0.59185  0.26821  1.0000
  C   C1233     1.0  0.68163  0.76828  0.51035  1.0000
  S   S336      1.0  0.86144  0.54520  0.39541  1.0000
  C   C1234     1.0  0.63569  0.72462  0.34458  1.0000
  H   H1478     1.0  0.93827  0.83614  0.27492  1.0000
  H   H1479     1.0  0.63407  0.64691  0.32328  1.0000
  H   H1480     1.0  0.58512  0.71484  0.34129  1.0000
  H   H1481     1.0  0.75915  0.91970  0.51446  1.0000
  C   C1235     1.0  0.49755  0.79726  0.40822  1.0000
  C   C1236     1.0  0.76104  0.67017  0.47552  1.0000
  C   C1237     1.0  0.52005  0.79475  0.38141  1.0000
  H   H1482     1.0  0.76027  0.95221  0.46179  1.0000
  C   C1238     1.0  0.65443  0.67795  0.34669  1.0000
  H   H1483     1.0  0.50078  0.82092  0.40978  1.0000
  H   H1484     1.0  0.76759  0.69104  0.47108  1.0000
  C   C1239     1.0  0.75650  0.95644  0.47595  1.0000
  C   C1240     1.0  0.50671  0.60378  0.27201  1.0000
  C   C1241     1.0  0.56048  0.80372  0.40404  1.0000
  H   H1485     1.0  0.66748  0.68673  0.35652  1.0000
  H   H1486     1.0  0.55531  0.69789  0.32017  1.0000
  C   C1242     1.0  0.58133  0.80675  0.41427  1.0000
  Fe  Fe165     1.0  0.83536  0.52796  0.41639  1.0000
  H   H1487     1.0  0.78757  0.91097  0.47116  1.0000
  H   H1488     1.0  0.89093  0.56882  0.36798  1.0000
  C   C1243     1.0  0.77728  0.64767  0.47916  1.0000
  C   C1244     1.0  0.50903  0.87164  0.28757  1.0000
  C   C1245     1.0  0.94596  0.93275  0.30443  1.0000
  C   C1246     1.0  0.81154  0.60292  0.48677  1.0000
  H   H1489     1.0  0.88004  0.98241  0.35180  1.0000
  C   C1247     1.0  0.71039  0.86070  0.47183  1.0000
  H   H1490     1.0  0.56387  0.65620  0.30086  1.0000
  H   H1491     1.0  0.72381  0.68292  0.47325  1.0000
  C   C1248     1.0  0.49440  0.85345  0.27740  1.0000
  H   H1492     1.0  0.81351  0.95579  0.51501  1.0000
  H   H1493     1.0  0.82345  0.58404  0.48985  1.0000
  H   H1494     1.0  0.89879  0.94576  0.30900  1.0000
  C   C1249     1.0  0.92626  0.96290  0.28323  1.0000
  H   H1495     1.0  0.94724  0.91164  0.31136  1.0000
  H   H1496     1.0  0.78887  0.90152  0.49400  1.0000
  C   C1250     1.0  0.54044  0.78739  0.41014  1.0000
  N   N83       1.0  0.75907  0.92963  0.48661  1.0000
  H   H1497     1.0  0.97715  0.53578  0.37992  1.0000
  C   C1251     1.0  0.75491  0.93770  0.50525  1.0000
  Fe  Fe166     1.0  0.97845  0.51016  0.33218  1.0000
  C   C1252     1.0  0.88756  0.53122  0.38459  1.0000
  H   H1498     1.0  0.56089  0.81367  0.39120  1.0000
  H   H1499     1.0  0.75508  0.87521  0.50085  1.0000
  C   C1253     1.0  0.67856  0.73825  0.50923  1.0000
  C   C1254     1.0  0.78430  0.91922  0.48468  1.0000
  H   H1500     1.0  0.50332  0.79074  0.37371  1.0000
  C   C1255     1.0  0.73627  0.66562  0.47667  1.0000
  H   H1501     1.0  0.91187  0.96517  0.27310  1.0000
  H   H1502     1.0  0.73603  0.59502  0.48842  1.0000
  H   H1503     1.0  0.79440  0.56663  0.50952  1.0000
  H   H1504     1.0  0.70828  0.63483  0.48182  1.0000
  H   H1505     1.0  0.50906  0.00717  0.27395  1.0000
  H   H1506     1.0  0.92225  0.98844  0.48451  1.0000
  H   H1507     1.0  0.93131  0.53632  0.42467  1.0000
  C   C1256     1.0  0.91945  0.99238  0.47065  1.0000
  H   H1508     1.0  0.76647  0.95621  0.50942  1.0000
  S   S337      1.0  0.92622  0.99680  0.33717  1.0000
  C   C1257     1.0  0.91176  0.00799  0.35698  1.0000
  H   H1509     1.0  0.71651  0.64808  0.53955  1.0000
  S   S338      1.0  0.50150  0.81243  0.76199  1.0000
  H   H1510     1.0  0.68858  0.85369  0.54671  1.0000
  C   C1258     1.0  0.70069  0.84549  0.55726  1.0000
  H   H1511     1.0  0.82761  0.68640  0.64094  1.0000
  C   C1259     1.0  0.86096  0.92261  0.67602  1.0000
  Fe  Fe167     1.0  0.78841  0.53344  0.61746  1.0000
  S   S339      1.0  0.81695  0.54496  0.59785  1.0000
  S   S340      1.0  0.76260  0.56594  0.62984  1.0000
  Fe  Fe168     1.0  0.78790  0.96820  0.61532  1.0000
  S   S341      1.0  0.82355  0.96345  0.60164  1.0000
  S   S342      1.0  0.77539  0.92826  0.63036  1.0000
  S   S343      1.0  0.80865  0.96880  0.55154  1.0000
  H   H1512     1.0  0.71912  0.91926  0.64789  1.0000
  H   H1513     1.0  0.78519  0.69246  0.65017  1.0000
  H   H1514     1.0  0.55843  0.63546  0.70453  1.0000
  H   H1515     1.0  0.75969  0.82625  0.56095  1.0000
  H   H1516     1.0  0.73861  0.67535  0.58301  1.0000
  Fe  Fe169     1.0  0.66967  0.74010  0.62664  1.0000
  S   S344      1.0  0.70626  0.76034  0.63121  1.0000
  S   S345      1.0  0.64783  0.73260  0.65181  1.0000
  Fe  Fe170     1.0  0.67928  0.73372  0.58683  1.0000
  S   S346      1.0  0.71564  0.75421  0.58887  1.0000
  S   S347      1.0  0.66910  0.71450  0.56036  1.0000
  Fe  Fe171     1.0  0.72045  0.72598  0.61275  1.0000
  S   S348      1.0  0.75599  0.70121  0.61420  1.0000
  Fe  Fe172     1.0  0.69800  0.78636  0.60697  1.0000
  S   S349      1.0  0.69963  0.83513  0.60279  1.0000
  S   S350      1.0  0.68484  0.70380  0.60991  1.0000
  S   S351      1.0  0.66070  0.76782  0.60316  1.0000
  S   S352      1.0  0.52657  0.75025  0.72958  1.0000
  H   H1517     1.0  0.94781  0.53119  0.66222  1.0000
  N   N84       1.0  0.54290  0.66849  0.68772  1.0000
  N   N85       1.0  0.72670  0.84755  0.55266  1.0000
  Fe  Fe173     1.0  0.51787  0.76284  0.70156  1.0000
  S   S353      1.0  0.54240  0.77068  0.67771  1.0000
  C   C1260     1.0  0.79433  0.67187  0.65214  1.0000
  Fe  Fe174     1.0  0.80603  0.98736  0.57923  1.0000
  H   H1518     1.0  0.68243  0.80498  0.52780  1.0000
  H   H1519     1.0  0.73896  0.83504  0.57849  1.0000
  C   C1261     1.0  0.82796  0.51971  0.53467  1.0000
  C   C1262     1.0  0.61842  0.74345  0.65866  1.0000
  C   C1263     1.0  0.61128  0.73781  0.67608  1.0000
  C   C1264     1.0  0.58825  0.74616  0.68224  1.0000
  C   C1265     1.0  0.57193  0.76006  0.67096  1.0000
  C   C1266     1.0  0.57915  0.76586  0.65358  1.0000
  C   C1267     1.0  0.60222  0.75764  0.64744  1.0000
  H   H1520     1.0  0.62373  0.72705  0.68493  1.0000
  H   H1521     1.0  0.58330  0.74213  0.69575  1.0000
  H   H1522     1.0  0.56670  0.77662  0.64472  1.0000
  H   H1523     1.0  0.60729  0.76197  0.63398  1.0000
  C   C1268     1.0  0.75598  0.90168  0.62126  1.0000
  C   C1269     1.0  0.73917  0.90865  0.60817  1.0000
  C   C1270     1.0  0.72217  0.88792  0.60263  1.0000
  C   C1271     1.0  0.72211  0.85985  0.60981  1.0000
  C   C1272     1.0  0.73943  0.85253  0.62246  1.0000
  C   C1273     1.0  0.75610  0.87349  0.62829  1.0000
  H   H1524     1.0  0.73871  0.93032  0.60278  1.0000
  H   H1525     1.0  0.70881  0.89390  0.59290  1.0000
  H   H1526     1.0  0.73956  0.83104  0.62812  1.0000
  H   H1527     1.0  0.76895  0.86798  0.63850  1.0000
  C   C1274     1.0  0.76013  0.60291  0.62380  1.0000
  C   C1275     1.0  0.77825  0.61705  0.61437  1.0000
  C   C1276     1.0  0.77665  0.64713  0.61136  1.0000
  C   C1277     1.0  0.75664  0.66318  0.61730  1.0000
  C   C1278     1.0  0.73815  0.64887  0.62619  1.0000
  C   C1279     1.0  0.74003  0.61894  0.62957  1.0000
  H   H1528     1.0  0.79380  0.60504  0.60983  1.0000
  H   H1529     1.0  0.79112  0.65807  0.60458  1.0000
  H   H1530     1.0  0.72276  0.66101  0.63098  1.0000
  H   H1531     1.0  0.72599  0.60822  0.63695  1.0000
  C   C1280     1.0  0.67751  0.76533  0.54231  1.0000
  C   C1281     1.0  0.67427  0.73537  0.54123  1.0000
  H   H1532     1.0  0.92858  0.91698  0.72675  1.0000
  H   H1533     1.0  0.67666  0.77588  0.55500  1.0000
  C   C1282     1.0  0.91369  0.91718  0.71682  1.0000
  C   C1283     1.0  0.67469  0.72189  0.52463  1.0000
  N   N86       1.0  0.72027  0.64297  0.56754  1.0000
  C   C1284     1.0  0.72835  0.92933  0.54615  1.0000
  H   H1534     1.0  0.73313  0.80528  0.56415  1.0000
  H   H1535     1.0  0.71281  0.68850  0.57173  1.0000
  H   H1536     1.0  0.80225  0.61580  0.56820  1.0000
  C   C1285     1.0  0.78362  0.60939  0.56630  1.0000
  C   C1286     1.0  0.73009  0.83692  0.53443  1.0000
  H   H1537     1.0  0.49686  0.86499  0.74011  1.0000
  H   H1538     1.0  0.53762  0.62222  0.68826  1.0000
  H   H1539     1.0  0.69647  0.62173  0.54893  1.0000
  H   H1540     1.0  0.71768  0.94602  0.53976  1.0000
  C   C1287     1.0  0.86589  0.93637  0.66015  1.0000
  H   H1541     1.0  0.49664  0.64331  0.68901  1.0000
  C   C1288     1.0  0.49717  0.87144  0.75377  1.0000
  H   H1542     1.0  0.93895  0.89681  0.68877  1.0000
  H   H1543     1.0  0.71742  0.58439  0.56117  1.0000
  H   H1544     1.0  0.90946  0.89413  0.71392  1.0000
  C   C1289     1.0  0.72833  0.67326  0.57052  1.0000
  Fe  Fe175     1.0  0.84035  0.51384  0.61357  1.0000
  C   C1290     1.0  0.72157  0.90022  0.54492  1.0000
  H   H1545     1.0  0.56984  0.68878  0.67110  1.0000
  C   C1291     1.0  0.73467  0.87811  0.55380  1.0000
  H   H1546     1.0  0.63518  0.85080  0.67439  1.0000
  C   C1292     1.0  0.92883  0.52623  0.66089  1.0000
  C   C1293     1.0  0.88842  0.94875  0.65742  1.0000
  H   H1547     1.0  0.94275  0.62773  0.75540  1.0000
  C   C1294     1.0  0.74044  0.62195  0.56585  1.0000
  H   H1548     1.0  0.68340  0.79641  0.66360  1.0000
  H   H1549     1.0  0.69057  0.65928  0.55194  1.0000
  H   H1550     1.0  0.67194  0.69876  0.52366  1.0000
  H   H1551     1.0  0.95722  0.91730  0.70388  1.0000
  C   C1295     1.0  0.70539  0.64288  0.55128  1.0000
  H   H1552     1.0  0.69629  0.61318  0.58080  1.0000
  C   C1296     1.0  0.54600  0.69186  0.70086  1.0000
  H   H1553     1.0  0.77054  0.65180  0.57092  1.0000
  C   C1297     1.0  0.81819  0.66834  0.64685  1.0000
  S   S354      1.0  0.97843  0.93194  0.73738  1.0000
  C   C1298     1.0  0.49891  0.66009  0.67928  1.0000
  C   C1299     1.0  0.49522  0.90107  0.75837  1.0000
  C   C1300     1.0  0.91749  0.52804  0.64427  1.0000
  H   H1554     1.0  0.72517  0.81361  0.53316  1.0000
  H   H1555     1.0  0.76651  0.87181  0.57081  1.0000
  C   C1301     1.0  0.50077  0.70504  0.65475  1.0000
  C   C1302     1.0  0.74029  0.82780  0.56457  1.0000
  C   C1303     1.0  0.75544  0.88685  0.56347  1.0000
  C   C1304     1.0  0.54138  0.64055  0.69737  1.0000
  H   H1556     1.0  0.71555  0.63372  0.59499  1.0000
  H   H1557     1.0  0.58099  0.65981  0.68392  1.0000
  C   C1305     1.0  0.77828  0.58050  0.56278  1.0000
  H   H1558     1.0  0.75040  0.54921  0.55853  1.0000
  H   H1559     1.0  0.73960  0.68130  0.55949  1.0000
  S   S355      1.0  0.87935  0.52464  0.62096  1.0000
  H   H1560     1.0  0.85705  0.53446  0.51814  1.0000
  H   H1561     1.0  0.83718  0.52483  0.54683  1.0000
  C   C1306     1.0  0.89283  0.52158  0.64218  1.0000
  C   C1307     1.0  0.87854  0.92119  0.68927  1.0000
  N   N87       1.0  0.82980  0.58868  0.65696  1.0000
  C   C1308     1.0  0.81525  0.56608  0.66589  1.0000
  C   C1309     1.0  0.83496  0.57825  0.63895  1.0000
  C   C1310     1.0  0.85293  0.59132  0.66673  1.0000
  C   C1311     1.0  0.81751  0.61719  0.65587  1.0000
  C   C1312     1.0  0.79308  0.62150  0.66101  1.0000
  C   C1313     1.0  0.82968  0.64146  0.64866  1.0000
  H   H1562     1.0  0.71865  0.84897  0.52485  1.0000
  H   H1563     1.0  0.77808  0.92230  0.57189  1.0000
  S   S356      1.0  0.76979  0.98946  0.59226  1.0000
  H   H1564     1.0  0.81034  0.57273  0.67949  1.0000
  H   H1565     1.0  0.79841  0.56112  0.65842  1.0000
  H   H1566     1.0  0.82524  0.54513  0.66690  1.0000
  H   H1567     1.0  0.81800  0.57650  0.63117  1.0000
  H   H1568     1.0  0.84374  0.55656  0.63909  1.0000
  H   H1569     1.0  0.84736  0.59277  0.63166  1.0000
  H   H1570     1.0  0.84999  0.60086  0.68001  1.0000
  H   H1571     1.0  0.86194  0.56986  0.66851  1.0000
  H   H1572     1.0  0.86631  0.60492  0.65973  1.0000
  H   H1573     1.0  0.78194  0.60414  0.66587  1.0000
  H   H1574     1.0  0.84799  0.63961  0.64395  1.0000
  C   C1314     1.0  0.78185  0.64854  0.65924  1.0000
  H   H1575     1.0  0.87345  0.91035  0.70125  1.0000
  C   C1315     1.0  0.76228  0.91596  0.56432  1.0000
  N   N88       1.0  0.92072  0.93311  0.70066  1.0000
  C   C1316     1.0  0.90172  0.93378  0.68692  1.0000
  C   C1317     1.0  0.90603  0.94775  0.67060  1.0000
  H   H1576     1.0  0.56214  0.65219  0.66517  1.0000
  H   H1577     1.0  0.85217  0.93767  0.64996  1.0000
  H   H1578     1.0  0.79267  0.56456  0.56179  1.0000
  H   H1579     1.0  0.76300  0.65115  0.66274  1.0000
  C   C1318     1.0  0.52131  0.69786  0.66454  1.0000
  H   H1580     1.0  0.93990  0.96365  0.71699  1.0000
  H   H1581     1.0  0.92792  0.53446  0.63292  1.0000
  C   C1319     1.0  0.68086  0.78171  0.52693  1.0000
  H   H1582     1.0  0.54671  0.71358  0.69459  1.0000
  H   H1583     1.0  0.89211  0.95961  0.64506  1.0000
  H   H1584     1.0  0.84331  0.91315  0.67808  1.0000
  N   N89       1.0  0.65783  0.82926  0.65549  1.0000
  C   C1320     1.0  0.66615  0.80655  0.66798  1.0000
  C   C1321     1.0  0.63379  0.83944  0.66150  1.0000
  C   C1322     1.0  0.65507  0.81539  0.63802  1.0000
  C   C1323     1.0  0.67460  0.85408  0.65401  1.0000
  C   C1324     1.0  0.66918  0.87744  0.64250  1.0000
  C   C1325     1.0  0.69687  0.85552  0.66334  1.0000
  C   C1326     1.0  0.68500  0.90073  0.64046  1.0000
  C   C1327     1.0  0.71250  0.87900  0.66124  1.0000
  C   C1328     1.0  0.70659  0.90153  0.64984  1.0000
  H   H1585     1.0  0.65296  0.78847  0.66899  1.0000
  H   H1586     1.0  0.62095  0.82104  0.66310  1.0000
  H   H1587     1.0  0.62518  0.85461  0.65203  1.0000
  H   H1588     1.0  0.67300  0.80964  0.63248  1.0000
  H   H1589     1.0  0.64418  0.79519  0.63872  1.0000
  H   H1590     1.0  0.64608  0.82973  0.62826  1.0000
  H   H1591     1.0  0.65293  0.87752  0.63463  1.0000
  H   H1592     1.0  0.68084  0.91792  0.63122  1.0000
  H   H1593     1.0  0.72966  0.87947  0.66811  1.0000
  C   C1329     1.0  0.74875  0.93714  0.55575  1.0000
  C   C1330     1.0  0.56479  0.66723  0.67646  1.0000
  C   C1331     1.0  0.98592  0.91018  0.75612  1.0000
  Fe  Fe176     1.0  0.49833  0.78390  0.73717  1.0000
  H   H1594     1.0  0.53064  0.69235  0.71024  1.0000
  H   H1595     1.0  0.91032  0.97536  0.71021  1.0000
  C   C1332     1.0  0.70483  0.63471  0.58261  1.0000
  H   H1596     1.0  0.68988  0.65060  0.58467  1.0000
  H   H1597     1.0  0.89799  0.92764  0.72341  1.0000
  Fe  Fe177     1.0  0.96759  0.51869  0.70722  1.0000
  H   H1598     1.0  0.95098  0.93150  0.68268  1.0000
  H   H1599     1.0  0.93487  0.97559  0.69503  1.0000
  C   C1333     1.0  0.94284  0.91905  0.69364  1.0000
  C   C1334     1.0  0.92667  0.96314  0.70595  1.0000
  H   H1600     1.0  0.70288  0.83858  0.67210  1.0000
  H   H1601     1.0  0.69498  0.82280  0.55984  1.0000
  H   H1602     1.0  0.92298  0.95845  0.66799  1.0000
  H   H1603     1.0  0.66839  0.81533  0.68151  1.0000
  C   C1335     1.0  0.75437  0.57192  0.56088  1.0000
  H   H1604     1.0  0.78272  0.60142  0.51591  1.0000
  H   H1605     1.0  0.69660  0.85811  0.56936  1.0000
  C   C1336     1.0  0.76509  0.62994  0.56782  1.0000
  C   C1337     1.0  0.73568  0.59224  0.56241  1.0000
  C   C1338     1.0  0.81099  0.99165  0.53302  1.0000
  H   H1606     1.0  0.56281  0.68901  0.70872  1.0000
  C   C1339     1.0  0.52116  0.67489  0.67697  1.0000
  H   H1607     1.0  0.52718  0.64111  0.70774  1.0000
  H   H1608     1.0  0.70574  0.89515  0.53720  1.0000
  S   S357      1.0  0.98770  0.98792  0.70046  1.0000
  H   H1609     1.0  0.53703  0.71130  0.66272  1.0000
  H   H1610     1.0  0.50131  0.72312  0.64565  1.0000
  H   H1611     1.0  0.74922  0.83911  0.53025  1.0000
  H   H1612     1.0  0.75415  0.95969  0.55666  1.0000
  C   C1340     1.0  0.49975  0.64804  0.75187  1.0000
  S   S358      1.0  0.99091  0.55837  0.71061  1.0000
  S   S359      1.0  0.92869  0.51543  0.69705  1.0000
  Fe  Fe178     1.0  0.83254  0.00705  0.61312  1.0000
  C   C1341     1.0  0.87960  0.51331  0.65699  1.0000
  C   C1342     1.0  0.97797  0.88120  0.75669  1.0000
  C   C1343     1.0  0.81296  0.97912  0.51623  1.0000
  C   C1344     1.0  0.83917  0.52512  0.51840  1.0000
  H   H1613     1.0  0.96764  0.87264  0.74580  1.0000
  C   C1345     1.0  0.91555  0.51815  0.67570  1.0000
  C   C1346     1.0  0.89087  0.51181  0.67363  1.0000
  Fe  Fe179     1.0  0.49542  0.71887  0.72728  1.0000
  Fe  Fe180     1.0  0.98707  0.97911  0.72974  1.0000
  H   H1614     1.0  0.49312  0.91710  0.74811  1.0000
  C   C1347     1.0  0.49362  0.61842  0.75152  1.0000
  S   S360      1.0  0.49349  0.66986  0.73296  1.0000
  H   H1615     1.0  0.74992  0.63592  0.96141  1.0000
  Fe  Fe181     1.0  0.96045  0.76267  0.83046  1.0000
  C   C1348     1.0  0.76874  0.67905  0.00378  1.0000
  S   S361      1.0  0.92079  0.75586  0.83785  1.0000
  C   C1349     1.0  0.84084  0.81793  0.88800  1.0000
  C   C1350     1.0  0.69322  0.95188  0.98841  1.0000
  S   S362      1.0  0.96801  0.77280  0.80194  1.0000
  H   H1616     1.0  0.80571  0.71734  0.00637  1.0000
  Fe  Fe182     1.0  0.83339  0.75329  0.92234  1.0000
  S   S363      1.0  0.80223  0.75571  0.90338  1.0000
  S   S364      1.0  0.87299  0.74909  0.91426  1.0000
  Fe  Fe183     1.0  0.80183  0.76671  0.95449  1.0000
  S   S365      1.0  0.76922  0.77083  0.93724  1.0000
  S   S366      1.0  0.78902  0.77507  0.98239  1.0000
  Fe  Fe184     1.0  0.78183  0.73023  0.92389  1.0000
  S   S367      1.0  0.74984  0.69987  0.91954  1.0000
  Fe  Fe185     1.0  0.79197  0.79573  0.91867  1.0000
  S   S368      1.0  0.78090  0.83691  0.90437  1.0000
  S   S369      1.0  0.81369  0.72471  0.94201  1.0000
  S   S370      1.0  0.82398  0.79478  0.93665  1.0000
  Fe  Fe186     1.0  0.70189  0.97582  0.93437  1.0000
  S   S371      1.0  0.66775  0.98986  0.94814  1.0000
  S   S372      1.0  0.71247  0.92943  0.94159  1.0000
  Fe  Fe187     1.0  0.71460  0.53316  0.93005  1.0000
  S   S373      1.0  0.67669  0.54867  0.93423  1.0000
  S   S374      1.0  0.74760  0.56234  0.92806  1.0000
  C   C1351     1.0  0.51519  0.64096  0.78164  1.0000
  H   H1617     1.0  0.64881  0.88467  0.82648  1.0000
  H   H1618     1.0  0.83264  0.85890  0.91189  1.0000
  H   H1619     1.0  0.71540  0.90068  0.99475  1.0000
  C   C1352     1.0  0.87117  0.87718  0.86930  1.0000
  H   H1620     1.0  0.68013  0.93402  0.99052  1.0000
  H   H1621     1.0  0.88798  0.84719  0.91037  1.0000
  H   H1622     1.0  0.82937  0.87343  0.89046  1.0000
  C   C1353     1.0  0.87230  0.84935  0.87730  1.0000
  C   C1354     1.0  0.77079  0.69131  0.98670  1.0000
  N   N90       1.0  0.92591  0.67952  0.80731  1.0000
  H   H1623     1.0  0.88325  0.81032  0.90372  1.0000
  C   C1355     1.0  0.61618  0.51753  0.88140  1.0000
  H   H1624     1.0  0.88798  0.68403  0.80195  1.0000
  H   H1625     1.0  0.75087  0.96810  0.99956  1.0000
  H   H1626     1.0  0.91366  0.81903  0.84902  1.0000
  C   C1356     1.0  0.72689  0.91963  0.99145  1.0000
  H   H1627     1.0  0.61124  0.55267  0.86304  1.0000
  C   C1357     1.0  0.90064  0.68313  0.81332  1.0000
  C   C1358     1.0  0.93487  0.65296  0.77860  1.0000
  C   C1359     1.0  0.90049  0.86286  0.84727  1.0000
  H   H1628     1.0  0.86376  0.82612  0.91941  1.0000
  H   H1629     1.0  0.74565  0.61336  0.99066  1.0000
  C   C1360     1.0  0.88801  0.82868  0.86949  1.0000
  C   C1361     1.0  0.84313  0.86571  0.90010  1.0000
  H   H1630     1.0  0.54547  0.90763  0.81454  1.0000
  C   C1362     1.0  0.80652  0.77719  0.00176  1.0000
  H   H1631     1.0  0.59479  0.95070  0.82501  1.0000
  C   C1363     1.0  0.49573  0.91013  0.77608  1.0000
  H   H1632     1.0  0.84039  0.76490  0.99006  1.0000
  H   H1633     1.0  0.85960  0.89424  0.87417  1.0000
  C   C1364     1.0  0.74970  0.66183  0.92294  1.0000
  C   C1365     1.0  0.72745  0.64739  0.92411  1.0000
  C   C1366     1.0  0.72648  0.61707  0.92627  1.0000
  C   C1367     1.0  0.74780  0.60076  0.92683  1.0000
  C   C1368     1.0  0.77004  0.61523  0.92580  1.0000
  C   C1369     1.0  0.77102  0.64562  0.92402  1.0000
  H   H1634     1.0  0.71085  0.65975  0.92343  1.0000
  H   H1635     1.0  0.70925  0.60633  0.92739  1.0000
  H   H1636     1.0  0.78665  0.60283  0.92630  1.0000
  H   H1637     1.0  0.78828  0.65641  0.92314  1.0000
  C   C1370     1.0  0.73283  0.90523  0.93122  1.0000
  C   C1371     1.0  0.73997  0.88011  0.94033  1.0000
  C   C1372     1.0  0.75521  0.85944  0.93242  1.0000
  C   C1373     1.0  0.76317  0.86347  0.91517  1.0000
  C   C1374     1.0  0.75623  0.88869  0.90609  1.0000
  C   C1375     1.0  0.74122  0.90960  0.91410  1.0000
  H   H1638     1.0  0.73364  0.87658  0.95359  1.0000
  H   H1639     1.0  0.76054  0.84020  0.93960  1.0000
  H   H1640     1.0  0.76231  0.89199  0.89273  1.0000
  H   H1641     1.0  0.73578  0.92880  0.90694  1.0000
  C   C1376     1.0  0.90811  0.75281  0.85924  1.0000
  C   C1377     1.0  0.88310  0.74829  0.86089  1.0000
  C   C1378     1.0  0.87211  0.74657  0.87758  1.0000
  C   C1379     1.0  0.88600  0.74954  0.89287  1.0000
  C   C1380     1.0  0.91105  0.75365  0.89120  1.0000
  C   C1381     1.0  0.92206  0.75535  0.87451  1.0000
  H   H1642     1.0  0.87212  0.74628  0.84918  1.0000
  H   H1643     1.0  0.85288  0.74305  0.87861  1.0000
  H   H1644     1.0  0.92202  0.75578  0.90292  1.0000
  H   H1645     1.0  0.94131  0.75878  0.87350  1.0000
  S   S375      1.0  0.51600  0.58937  0.80002  1.0000
  C   C1382     1.0  0.88517  0.88370  0.85452  1.0000
  H   H1646     1.0  0.85468  0.88417  0.90424  1.0000
  H   H1647     1.0  0.57426  0.53223  0.84927  1.0000
  N   N91       1.0  0.85776  0.84140  0.89287  1.0000
  H   H1648     1.0  0.56320  0.51553  0.96132  1.0000
  C   C1383     1.0  0.90186  0.83537  0.85473  1.0000
  C   C1384     1.0  0.93266  0.70620  0.79760  1.0000
  C   C1385     1.0  0.75937  0.65045  0.00482  1.0000
  N   N92       1.0  0.56868  0.93065  0.79678  1.0000
  C   C1386     1.0  0.57317  0.96121  0.79167  1.0000
  C   C1387     1.0  0.55988  0.91519  0.78085  1.0000
  C   C1388     1.0  0.54913  0.93011  0.81002  1.0000
  C   C1389     1.0  0.59079  0.91779  0.80453  1.0000
  H   H1649     1.0  0.92319  0.57883  0.80090  1.0000
  H   H1650     1.0  0.89482  0.66518  0.82204  1.0000
  H   H1651     1.0  0.57050  0.55247  0.95633  1.0000
  C   C1390     1.0  0.73531  0.52778  0.86992  1.0000
  S   S376      1.0  0.98576  0.79716  0.83986  1.0000
  H   H1652     1.0  0.58890  0.96285  0.78268  1.0000
  H   H1653     1.0  0.55724  0.97094  0.78487  1.0000
  H   H1654     1.0  0.57669  0.97545  0.80319  1.0000
  H   H1655     1.0  0.71743  0.59171  0.84804  1.0000
  H   H1656     1.0  0.54382  0.92618  0.77501  1.0000
  H   H1657     1.0  0.55397  0.89271  0.78394  1.0000
  H   H1658     1.0  0.55352  0.94336  0.82184  1.0000
  H   H1659     1.0  0.53200  0.93898  0.80457  1.0000
  N   N93       1.0  0.71609  0.94692  0.99822  1.0000
  H   H1660     1.0  0.97710  0.84090  0.77134  1.0000
  H   H1661     1.0  0.68464  0.97281  0.99213  1.0000
  C   C1391     1.0  0.87389  0.83091  0.90715  1.0000
  H   H1662     1.0  0.91802  0.62341  0.81788  1.0000
  H   H1663     1.0  0.62401  0.53845  0.94857  1.0000
  H   H1664     1.0  0.52374  0.64984  0.79325  1.0000
  S   S377      1.0  0.49920  0.53673  0.83745  1.0000
  H   H1665     1.0  0.59379  0.87958  0.78736  1.0000
  H   H1666     1.0  0.75283  0.53509  0.87424  1.0000
  H   H1667     1.0  0.82853  0.82478  0.87718  1.0000
  C   C1392     1.0  0.83111  0.77019  0.00215  1.0000
  H   H1668     1.0  0.82937  0.81155  0.89929  1.0000
  H   H1669     1.0  0.88412  0.90504  0.84861  1.0000
  H   H1670     1.0  0.72892  0.92014  0.97687  1.0000
  H   H1671     1.0  0.91129  0.86794  0.83581  1.0000
  C   C1393     1.0  0.69267  0.53386  0.86384  1.0000
  H   H1672     1.0  0.55877  0.55505  0.88663  1.0000
  C   C1394     1.0  0.73249  0.97127  0.99404  1.0000
  C   C1395     1.0  0.94185  0.67756  0.82297  1.0000
  C   C1396     1.0  0.92813  0.65276  0.79664  1.0000
  H   H1673     1.0  0.69631  0.95312  0.97398  1.0000
  C   C1397     1.0  0.98333  0.86308  0.77119  1.0000
  H   H1674     1.0  0.73464  0.97407  0.97956  1.0000
  Fe  Fe188     1.0  0.66636  0.51643  0.91323  1.0000
  H   H1675     1.0  0.62020  0.99169  0.85052  1.0000
  H   H1676     1.0  0.57383  0.91451  0.77038  1.0000
  H   H1677     1.0  0.85035  0.79800  0.88369  1.0000
  H   H1678     1.0  0.88964  0.80704  0.87473  1.0000
  H   H1679     1.0  0.93926  0.67262  0.77164  1.0000
  N   N94       1.0  0.70153  0.78759  0.91998  1.0000
  C   C1398     1.0  0.70314  0.76035  0.90959  1.0000
  C   C1399     1.0  0.67631  0.79827  0.91911  1.0000
  C   C1400     1.0  0.71747  0.80909  0.91131  1.0000
  C   C1401     1.0  0.70854  0.78386  0.93867  1.0000
  C   C1402     1.0  0.71119  0.80839  0.94979  1.0000
  C   C1403     1.0  0.71279  0.75619  0.94641  1.0000
  C   C1404     1.0  0.71928  0.80559  0.96713  1.0000
  C   C1405     1.0  0.72071  0.75365  0.96383  1.0000
  C   C1406     1.0  0.72430  0.77831  0.97407  1.0000
  H   H1680     1.0  0.69029  0.74367  0.91437  1.0000
  H   H1681     1.0  0.69877  0.76390  0.89546  1.0000
  H   H1682     1.0  0.72176  0.75110  0.91008  1.0000
  H   H1683     1.0  0.66380  0.78295  0.92572  1.0000
  H   H1684     1.0  0.67013  0.80105  0.90527  1.0000
  H   H1685     1.0  0.67420  0.81970  0.92569  1.0000
  H   H1686     1.0  0.73684  0.80326  0.91310  1.0000
  H   H1687     1.0  0.71413  0.81060  0.89691  1.0000
  H   H1688     1.0  0.71495  0.83145  0.91644  1.0000
  H   H1689     1.0  0.70753  0.83003  0.94504  1.0000
  H   H1690     1.0  0.71126  0.73619  0.93911  1.0000
  H   H1691     1.0  0.72220  0.82472  0.97513  1.0000
  H   H1692     1.0  0.72496  0.73247  0.96919  1.0000
  H   H1693     1.0  0.73141  0.77632  0.98731  1.0000
  N   N95       1.0  0.71559  0.57722  0.87485  1.0000
  C   C1407     1.0  0.69969  0.58170  0.89028  1.0000
  C   C1408     1.0  0.74013  0.58728  0.87985  1.0000
  C   C1409     1.0  0.70692  0.59588  0.86025  1.0000
  C   C1410     1.0  0.71476  0.54638  0.86944  1.0000
  H   H1694     1.0  0.60534  0.56333  0.93681  1.0000
  Fe  Fe189     1.0  0.49576  0.97838  0.80498  1.0000
  C   C1411     1.0  0.62276  0.91930  0.82698  1.0000
  S   S378      1.0  0.64184  0.53389  0.89139  1.0000
  H   H1695     1.0  0.63089  0.92995  0.83825  1.0000
  H   H1696     1.0  0.70578  0.56816  0.90157  1.0000
  H   H1697     1.0  0.69965  0.60468  0.89471  1.0000
  H   H1698     1.0  0.68060  0.57591  0.88753  1.0000
  H   H1699     1.0  0.74741  0.57482  0.89123  1.0000
  H   H1700     1.0  0.74009  0.61039  0.88414  1.0000
  H   H1701     1.0  0.75299  0.58534  0.86870  1.0000
  C   C1412     1.0  0.60133  0.89161  0.79824  1.0000
  H   H1702     1.0  0.68755  0.59219  0.85714  1.0000
  H   H1703     1.0  0.70858  0.61932  0.86353  1.0000
  C   C1413     1.0  0.63280  0.89381  0.82039  1.0000
  C   C1414     1.0  0.50901  0.61136  0.78132  1.0000
  S   S379      1.0  0.57168  0.00126  0.83818  1.0000
  H   H1704     1.0  0.94101  0.69772  0.83104  1.0000
  S   S380      1.0  0.69342  0.00069  0.90943  1.0000
  C   C1415     1.0  0.92612  0.59963  0.79467  1.0000
  S   S381      1.0  0.50568  0.96920  0.83326  1.0000
  C   C1416     1.0  0.75501  0.64789  0.97312  1.0000
  H   H1705     1.0  0.74521  0.91548  0.99683  1.0000
  C   C1417     1.0  0.61063  0.54010  0.93764  1.0000
  H   H1706     1.0  0.92075  0.71000  0.78604  1.0000
  C   C1418     1.0  0.58330  0.52063  0.85976  1.0000
  C   C1419     1.0  0.49852  0.88906  0.78916  1.0000
  C   C1420     1.0  0.62209  0.87997  0.80608  1.0000
  H   H1707     1.0  0.93101  0.72587  0.80600  1.0000
  C   C1421     1.0  0.60207  0.93112  0.81923  1.0000
  Fe  Fe190     1.0  0.50643  0.54272  0.80838  1.0000
  C   C1422     1.0  0.60430  0.53216  0.86761  1.0000
  H   H1708     1.0  0.93678  0.65972  0.83199  1.0000
  C   C1423     1.0  0.75266  0.63522  0.98965  1.0000
  H   H1709     1.0  0.76590  0.68567  0.95874  1.0000
  H   H1710     1.0  0.72531  0.99209  0.99930  1.0000
  H   H1711     1.0  0.89827  0.70354  0.82105  1.0000
  H   H1712     1.0  0.96097  0.67405  0.81901  1.0000
  C   C1424     1.0  0.92344  0.62529  0.80429  1.0000
  H   H1713     1.0  0.58884  0.55534  0.90971  1.0000
  H   H1714     1.0  0.95177  0.70531  0.79311  1.0000
  C   C1425     1.0  0.93302  0.60058  0.77709  1.0000
  C   C1426     1.0  0.55639  0.54122  0.89801  1.0000
  H   H1715     1.0  0.67616  0.54641  0.86339  1.0000
  C   C1427     1.0  0.76401  0.67590  0.97165  1.0000
  S   S382      1.0  0.98821  0.72701  0.83211  1.0000
  H   H1716     1.0  0.77779  0.71293  0.98481  1.0000
  C   C1428     1.0  0.51054  0.65921  0.76708  1.0000
  H   H1717     1.0  0.62982  0.85997  0.80110  1.0000
  C   C1429     1.0  0.57811  0.53016  0.95738  1.0000
  H   H1718     1.0  0.50225  0.84335  0.79483  1.0000
  C   C1430     1.0  0.57360  0.54113  0.91149  1.0000
  C   C1431     1.0  0.49957  0.85032  0.76686  1.0000
  H   H1719     1.0  0.63492  0.52078  0.01409  1.0000
  H   H1720     1.0  0.49880  0.89550  0.80284  1.0000
  C   C1432     1.0  0.62155  0.00442  0.87788  1.0000
  C   C1433     1.0  0.60996  0.00010  0.86150  1.0000
  S   S383      1.0  0.65202  0.51535  0.97841  1.0000
  H   H1721     1.0  0.76419  0.73710  0.00899  1.0000
  H   H1722     1.0  0.64050  0.99931  0.87939  1.0000
  Fe  Fe191     1.0  0.67381  0.51152  0.95325  1.0000
  H   H1723     1.0  0.62034  0.53395  0.92540  1.0000
  C   C1434     1.0  0.50039  0.85943  0.78456  1.0000
  H   H1724     1.0  0.51541  0.68186  0.76763  1.0000
  C   C1435     1.0  0.93701  0.62718  0.76902  1.0000
  N   N96       1.0  0.58945  0.52111  0.94060  1.0000
  H   H1725     1.0  0.93580  0.58066  0.76976  1.0000
  H   H1726     1.0  0.59145  0.53008  0.96842  1.0000
  H   H1727     1.0  0.52413  0.52178  0.88767  1.0000
  C   C1436     1.0  0.57137  0.52235  0.92622  1.0000
  C   C1437     1.0  0.53677  0.52252  0.89859  1.0000
  C   C1438     1.0  0.65311  0.51224  0.01462  1.0000
  H   H1728     1.0  0.49327  0.57755  0.76562  1.0000
  C   C1439     1.0  0.58526  0.00654  0.85923  1.0000
  Fe  Fe192     1.0  0.53173  0.00634  0.83072  1.0000
  C   C1440     1.0  0.49803  0.60024  0.76616  1.0000
  S   S384      1.0  0.49281  0.94793  0.78094  1.0000
