data_image0
_chemical_formula_structural       FeSHFeS2FeSFeS3HCHFeHSCHFeSHSHSHCHC3HCH2CSCHSCHC2HCHCH3CHC3HC2NH6C7H4C6H4C6H5C2HC2HSFeC2H2SC3SHCH3CH5CHC2H2CNCHC2H2SH4CH2CSHCNCHSHCSC4Fe2H2CHSHCH3NC6HCH5SH4CFeCH4CH2SH2CH5C4NHSH2CH7SHCH2CFe2CHCH4CFeHCFeS2FeS2FeSFeS3FeS2FeS2FeSFeS3FeSFeSHFeS2HCFeS2FeSFeS2HFeS2FeSFeSFeS2H2SH2FeS2FeSHSHSCHCFeS2H2NC6H5C6H4C6H4C4HCH4C3HCH3C4HCH4C6H4C6H4C6H4C6H4C6H3SH3C2HCHNCHCH3CNH2NCHC3H2CSH2FeHCSH2CHC4H5NC2H2CH3CHNCHCH2CH3C5SHCH6CH3CH3C6H6CNC9H14SC2H2CH2C4HCHCH2CHCHFeHC2SFeCH4CH2C2H2CH3C7H2NC9H14CHCHC4H3SNH5NHC2H4NSHC2NH2CHC2H11CSNH2SH5C2SH2FeH2C2SCFeS2FeS2FeSFeS3FeS2FeS2FeSFeS3FeS2FeS2FeSFeS3FeS2HSHFeHFeS2CHCSHCHSHCH3SCH2C6H3C6H4C2H2CH2SH5C3NHC3H4C3SHC6H4C6H4C6H4C8H2C6H5SCHC2HCHC2HC2HNC9H5CHFeH11FeC3HCH2C3HSH2C5HCHCH3CH4SH3FeHSFeH4CNC2NC9H5CH8NC4H2C3FeHCH3CH2CH2CH2CH2NHCH5NC9H12NC9H14C2SCH4CH2NHCHFeCHCHC2H3C2H3CHC2HC2H7C2HCHCH2SHCNH2CHNHCHCH3FeCHC4SCSHC2HC2H4CH2C2HCFeHCSCH2CHSCH3CH3SFeS2FeSFeSHS4FeS2FeS2FeCFeS3CFeHSCH2CFeSHFeS2Fe2S3H2C7H5CH5SHSC3H2CH4C6H4C6H2SHC6H4C6H4CHCH2C4FeH2C6H5FeHC2H2CHFeSHFeSH3NC8HNH3CH4CNHC2HCH2FeHFeHSH2CH4C3H2CH5C2H2CH7C3H7C2HC3HCHCFeH3CSC2HC2HCH5SH3C2SHNHCH2C4HC2H3CSCH5CHSCHCNC2H5C2N2C3HC3HCHNHCH2SCNH2CH2CHS2HC2H2CSHSH2CH2C2H2NHCH2FeHFeH4SC2H2C2FeCFeS2Fe2S3FeCSCSFeS2NHCFeS2HFeSFeSFeS2FeS2FeSFeHSNSCNH7SCSC8H3C6H4C2H3FeH2C6H4C6H4C6H3C2SCH2CSC3FeCH3SH2CH2CHC3HSHC2H4CHCH2CSCH2SC2H2CHCHN2H3CHSC3H2CH3CH2C3SCH2SHFeSH2CHC3HCHCH3C3HCFeH3CH3CHC2H4NC3HCHC4NC9H14S2H2C3SC3NCH6FeHC3H5CH3CNH3C2HSH8CH4CHCH3CH3CH6C4HCHCH2CNCH3C5SHCSH3CHC2HFeS2HCFeCFeSH2FeS2HFeHSFeS2FeS2FeSFeS3FeS2FeS2FeSFeS3HFeS2FeSFeSFeS3CH3C3H3C4H2C6H4C6H4C6H4C2HC7H4C6NH3C6HCH2CH2CHC2HCH3C4HCH4C2NC9H15S2CH2CHCH3FeCSNC9H16FeH3SC3HCHSHCSC4H5NC9H14CFeSCH6C3NH6CHCHC2NHNHCSCH2CH2CHCHNH4SH3CHSCHCH3CHCH3C2SH2NC9H15CHC2H3SH3C2H2CSNC2SC2H4SC3FeHNC9H2CH2SCHFe2HSCHSHCH6CH2CHC4H3NH5C2H4CHFeC2H3CFeSCFeS2FeCFeS3FeS2FeS2FeSFeHS2FeS2FeS2H2FeS3FeS2Fe2S2FeS2FeS2FeSFeS3CFeS2H2NHCSC6HSH2C6H4C6H5C3HCHCH3FeC7H4CH3C2H3C6H5C6H6C7H5FeC4H2C3NC9H14CH4CHCH3C2SHC4NCHC2H5CHSHCH2CHSH3CH2CH5CH2C3H5CHCFeHC5NH5C2HCH2CH3C2H3SH3NSC6H2CHC2H4NC8H14SHCH3CH4NCH3SCHCNCHCH2CH5CSC3H2CH4CH4SHCHCH3C4HCH2NHC2NCHNH2C2H4C3H2CH2FeH2C2HC3HCH2CHCH2C2H5S2FeSHFeSFeSFe2S2C2FeHS2H2SCH4CHCH8CSHFeCFeHFeHSHCSCS2C5HFeCHCHCH3SCH2CHCHC4HCH2CH2CHSCH3C6H6SHCNHC3SH2NCSC8H3SC4H2CSHC2H2C6H4CSH3S3H2FeC3HCHSNHC9H2CH2CH6C3SNCSHSC2HC2HCHC2HNCHNH2FeSHC3HC2H2NHCHSCHCHC2Fe2C3H3CSCHNH3C2HNCHC3FeH2CH2CHC2HSNC9H15CH3NC2H3CH4CH2CHCHC2SC7H2CHCH3CHSFeH3CSH2C2HFeSC3HCH2CH3CSHCHCH2SH2C2H2SCH3FeH6CHCSC5H3FeH2CHC3H3C3HCFeHCFeCHFeS2FeS2FeSFeS3FeS2FeSHFeSFeSCSFeS2FeS2FeS2FeSFeS4C3FeSC2FeS2CHFeSFeSHC9H4C6H4C3H2CH3C6H4C6H4C6H4C6H2CH2C4FeCH3CNCHNC2HC7H3CH2NC9H12CHCH2C2HCH4FeC2HCHCFe2HCH2CHCNCHFeS3H2C2H4CHNH3CH4NH2SHC3SCH2CH3CH3CNSH3SH2C5H2CH2CHCNH2CSCHSHCHC3HCHC4SC3HC2SH5FeH3CHS2H6C2HCH2CHCNCHCH2C6HCH2NC6HC2H13CHCHCHCSHNC9H18SH10C3H2CSH3CHC5H3CH4SH4CHCNCHCHCH2CHCFeS2CSHFeSFeS3FeS2FeS2FeSFeHS2CH4C2HCH2CH2CH4C6H4C3H2CHCH2C6H4C6H4C2H4CSHCHCHNH2C3HCH3C3NHC2H3CH2C2NHSCSCH2CHSCHNHC2HFeH2NH2CH3C2H7CHC2HCH3CH2CHCHCHCHCH2CH2C3HC3HCH2CH2FeCH3CHC2HC3H2C3HCH2CHFeSFeS2FeSFeS3FeS2FeS2FeSFeS3H2FeS2FeSFe2S3FeSFeS2FeSFeCSHCHC4SH2C3HNC6H4C2H2C6H4C6H4C6H2C4H2CH3CH2C4H2CHCHC2HCSH5CH3CHSH3CHNCH4CH2NH5C2HNC10H10CH2C2H2FeH6CH2CH2C3H2C3HCH2CH2NCH3CFeCHCHC2H3CH3C3H4C2NC9H14NC8H5CH3CH6CHCSC2H3C2HC2H2CH2SC2HC2SHSH5NC7S2H3C2SC2H3SH3C6HCH3CHNCHC4HSCHCHCH2CH3C2HC2H6C2FeS2FeSFeSFeHS2FeCHFeS2FeSHCS2FeS2FeS2FeSFeS3HSH2SHCFeS2C2H2C2H3C2S2C3H2CH4CH3SFeS2FeS2FeSHS2C2HC4H2CH3CSHNCHC2H3C2SH2C6H4C6H4C6H6NC8H4C2FeHCH2CH4CHCHCHC6H4C6H8SH2C2HC6H7CH2CH2CH3CHNSCFeCSH2SH2FeCNC3HCHCH2C2HCFeCH4C2NC9H14NH2SH4CHFeHCH2C2SCH2NCHC4HCH4C2H2CH6NC9H16CH2CH3FeCNC3H9NC9H11NHCNC9H4CHCH2CHCFeS2FeS2FeSFeS3FeSCFeS2FeSFeS3FeS2FeS2FeHFeS3HCHC2HC3FeS2FeS2FeSFeS3FeS2HSFeSHS2FeS2FeS2FeSFeS2HSCHCH2C6H4C4H5C4SH4C3H3NCH2C3H3CH2NH2FeC6H4C4HCHC6H4C6H4C6H4C6H4C6H4CHCH3CHNC9H14NC6H8CH3CH2CHCHCH5NC9H6CH7NC3SCH2CHC2H2CH2C2NC7H5CH3NCSC4NHCH2CH6C2HCHC4HCHCHCH3NC9H13SC2HNH3CH2NCHC2H6CHC3HCH2CHNHCHFeH6CH3CSC2SH2CH3C2H4CHCHCH2CHCHC2H5CH3NH2C3SCH3C2HSHCH2CH2CHCHCH2C2H3CHCHCH4CH2CHC2FeC2FeS2FeS2HFeCS2FeSFe3S2CHC2HCH2CS5C2HFeHFeHSH4CSC2HC6H2SHSHC2H2CH2CHC2H5C5H3SHC6H3C3H2CH4CH4CSH2CHCSCFeHCH2FeH3CH2FeSNH2NC2HCFeH2CHC2HCHCHC5H4NHC3HCHCHCHCHCHCH3CH3NHC3HC2HC3FeCHCHCNCH7CSH3SHCH2C3FeHSHCFeH2CSHCH5SHSC2SC3H6FeSCFe3SHSFeS2FeS2FeSFeS3H2CHFeSCH2SFeSFeS2FeS2FeSFeS3CHSCH3C2FeS2FeSFeS3C3HNCHSH4C6H2C6H4C2H3C4HCHC4SH4CHCH2C6H4C6H2CHC6H4C6H4CHNH2C3H4CNC7H8CHC2H3CHCHSC2H2CH2CNCHC7NH6CH7CSHC4N2C8H12FeHC3H2FeH4SHCH2C2H2CFeHC2SNC9H14CHCH3CHCH4CSHSCHSHCH3SCH2C3H3CSH2CHCNHNC2SH4CH3CSH2CH2CH5CSHCH2CHCHNC2HFeC3H3CH2FeH4SHNHCNH2C2HCHCHCH5CHSCH2C2SCHCFeSFeS3FeS2H2SHFeS2FeS3FeS2FeS2FeSFeS3FeSHFeS2FeSFeCS2FeS2C4FeS2HC2SH2C2HNHCH2CHC6H4C6H4C6H4C8HCH6C7H3C6HC6H4C4H6NCHCNC3HCHCH2CHC2NHCH4CH2FeHCFeNC9H14NC5HC3H12CSHFeH3CHC2HC2H2C4H3C3HSH2FeCH4S2CHC2HC3HC2SHNHCH2FeCNCHC2H3NC8H12CSH7CHCH3CH2FeH2CH2CFeH3SHSHC2H2SHCHCHCHCH2SH2C2HCHCHC2H2SHCH3C3NCH3S2HFeCH3CH6C2HC2HCHCHC3H3C2SFeH3C2H4C3SC3H3CHC4HFeSHFeS2FeCFeSHSFeS2FeS2FeSFeS3FeS2FeS2FeSFeS3HSC4FeSFeSHS2FeS2FeS2FeSFeCS2C3H2C4H4CHCSC7H3C6H4C3HC3SNH4C6H4C6H4C2HC6H4C6H4C6H6C2H4C4HCSFeSNC9H15SHCHCHS2HFeH3SCFeH6SH3C2NC2H3C2HNHCH2C2H2C2H2NCHCHC2SH3CH2CSC6H4CHC2NH2FeNC9H14NC9H17NC9H11CH2NC9H14CHCFeCH8CHC2HC2H4C2HC2FeC2H2CH2C4HCHFeC2SFeHCHCSC4H2CH3C2HFeH4SCHCHC2HCHCH9CNCHSH4CH7C3H2CSH3SCNH2FeHCSHCHCSHSFeS2FeS2FeS2FeSFeS3HSC2SFeSH5CHC6H4C3H4CH2C6H8C3HNC3H2CH2CHSHC6H5C3HSCH3C2HC7H3CH2SHCHC4SCH4NC9H13FeH2CHCHC2H2C2H3FeSCHNC9HSCH11SHSHC2HSCHCH2NC3HC2FeHCHSH2FeHSCFeC3HC3H2SHCHCSHFeH2C4FeHCH3NFeCNH4C2HSNH5CH2CHCSH3CHFeC3HC2SHSH2SCH2C2HCHC4NH4C3HSC2H2C2HCNCHCHCH2NCSHCSH3FeS2FeSFeS2H3CHCHC2S3FeS2FeCSFeHFeHS2H2SHC2FeS2FeS2FeSFeS2C5NFeCH2C2HC4H3C4H2C6H8SHCH5SCNC3H2CFeC2H2C4HCH3C6H8CHC3HCNH2CSHC2HC3HCH2SHCHC2H4CHC2HSC2H2C3H4C2H2CHCH2SH3C2HC5H2FeH4FeHCHC2HCNC9H14NC6SH12CSHCH2CH4C2HC3HFeHCSC2H3CH2C2HCH2CHCH4CH3C2H2CSH5FeS2FeS2FeSFeS3FeSFeCSFeHS2H2FeS2FeS2FeS2FeS2FeSFeS4CHFeS2FeSHFeHFeS3CH3SCH2FeSCSHCHSCNHC3HFeH3CH2CHC4H2C6H4C6H4C6H5CHFeHC6H2C6H4C6H4CHC2H3SHC6H5C2H3CH4SH2FeHSCH2C2HCH2C2H2C2HCH4CNCH5C4HCHC2HCH2NC9H14NC9H14NC9H13C2HC2HNHC2H2NCH3SCSCHCFeHCNHCNCH2C3H2CSHC2H3CSCHCHCH2SCH3SH2C3HC2HNH3C2SC2HC4H7SCH4NCHC2HSHCNHCHCHCHCHC2H3C2H2CH2CSH5FeHFeSHSHSHNHFeS2FeS2FeCFeS3FeS2FeS2FeCFeS3FeS2FeCHSH4CH2C6H4C6H2C8H3C2H5C3HCH4CH2CH3CSH2CHCHNHSHC2H3C3NCSCHNHCH9CHCHC2HCHCHCNC3HCH4SCH2CH3CHC3H2CHCHCHNH6C2H6SHCH3C4HCHCH2C2HC5HC2HFeCHFeCHNH2CHC3HC2H3SH3C4H2C2H4FeS2FeS2FeSFeS3FeS2FeS2FeSFeS3H2C3H4SHFeS2FeSFeCSCFeS2FeS2FeSFeS3HCFeS2FeSHFeSFeS3FeS2FeSFeSFeHS2HCH4SH3CSH2C4H2C3H6C3HFeC6H5CH3NC6H4CH5C2H2C8HC7H2C7HSH2C6H4C6H4CHC6H4C6H5NSC3H2CH2NHSH2CH3C5H4NC11HSH7CH2NC9H12CH5CHCH3C4H3CHC3H4FeH2NH3C2H3CH4CHCHCNC9H14CH4CHNC9H14FeHNHFeCHC2SH2CHCH4CH2C2H2CHCHC3FeSH6CH4C2H3C2H2NHC2H2C3HNC4H2CSH2NCNC2HCSCH2CH5CHSHCH2CH5CSHCH2S2CHC4HNCHCH2CH2C2SCHCNCH3C2FeHCHSCH3CH2CHC4H2CHC2H2SHCH3CH2C4HC3H4CSFeHS2FeS2FeS2FeSFeS3HCH2CH2CFe2S2FeS2FeSFeS3HSH3SHFeS2CHCSC2FeSNSCHC2H3CHC3HC6H5NHSCSH3SC6H4SHCHCH3CH2CHNH3C3HFeC2FeH2C6H4C6H4C6H4CH3NC9H11CHC2H7CH2NCFeC2SH4CSHNC9H15SHCHC2HCFeCH6NC9H13C5SH4SCH2C2H2CHC7FeH5CHFeCHCH5NC2H3C3H2C2HC5FeSHFeS2FeSFeS3FeS2FeS2FeSFeS3HCH3SHSC2H2SH2C6H2SC2HC2HNC2HFeC6H4C6H7C6H4CHNC6H2CH5CHSC4H4NHCHCHCH2CHCH5CHCH2CHC2H2C2HCH2C3HCH2C2H3CHCHCHCH4C3H3NCHCHCFeHSC3H2SC2H2C5HCHCH2CH4SHFeH2CH3CHCNC2H3CH4C2H2CH4CNCH3C2SHC3H2CNH5NCH2SCH5C2H3FeC
_chemical_formula_sum              "Fe480 S960 H4320 C3600 N240"
_cell_length_a       79.0642
_cell_length_b       79.2077
_cell_length_c       79.2586
_cell_angle_alpha    74.9848
_cell_angle_beta     74.9376
_cell_angle_gamma    74.9174

_space_group_name_H-M_alt    "P 1"
_space_group_IT_number       1

loop_
  _space_group_symop_operation_xyz
  'x, y, z'

loop_
  _atom_site_type_symbol
  _atom_site_label
  _atom_site_symmetry_multiplicity
  _atom_site_fract_x
  _atom_site_fract_y
  _atom_site_fract_z
  _atom_site_occupancy
  Fe  Fe1       1.0  0.45254  0.13911  0.10774  1.0000
  S   S1        1.0  0.44545  0.15674  0.08247  1.0000
  H   H1        1.0  0.19694  0.30234  0.20130  1.0000
  Fe  Fe2       1.0  0.41559  0.13023  0.12180  1.0000
  S   S2        1.0  0.40563  0.14715  0.09735  1.0000
  S   S3        1.0  0.39487  0.11615  0.14192  1.0000
  Fe  Fe3       1.0  0.43223  0.13509  0.08220  1.0000
  S   S4        1.0  0.43542  0.12736  0.05608  1.0000
  Fe  Fe4       1.0  0.41962  0.16734  0.09981  1.0000
  S   S5        1.0  0.40809  0.19705  0.09638  1.0000
  S   S6        1.0  0.44113  0.11642  0.10621  1.0000
  S   S7        1.0  0.42774  0.15143  0.12553  1.0000
  H   H2        1.0  0.24579  0.26548  0.17413  1.0000
  C   C1        1.0  0.40828  0.06800  0.11360  1.0000
  H   H3        1.0  0.11375  0.31442  0.22160  1.0000
  Fe  Fe5       1.0  0.44702  0.02839  0.06274  1.0000
  H   H4        1.0  0.26711  0.28240  0.16068  1.0000
  S   S8        1.0  0.42282  0.05060  0.06079  1.0000
  C   C2        1.0  0.40871  0.10884  0.21723  1.0000
  H   H5        1.0  0.46467  0.09875  0.03698  1.0000
  Fe  Fe6       1.0  0.46967  0.00458  0.08817  1.0000
  S   S9        1.0  0.47205  0.99867  0.11682  1.0000
  H   H6        1.0  0.45846  0.21152  0.10513  1.0000
  S   S10       1.0  0.44521  0.00169  0.08090  1.0000
  H   H7        1.0  0.36567  0.09178  0.12361  1.0000
  S   S11       1.0  0.36502  0.23384  0.03430  1.0000
  H   H8        1.0  0.44149  0.19850  0.07328  1.0000
  C   C3        1.0  0.40649  0.02842  0.17337  1.0000
  H   H9        1.0  0.40572  0.09831  0.08794  1.0000
  C   C4        1.0  0.16637  0.30956  0.17548  1.0000
  C   C5        1.0  0.20522  0.28266  0.15102  1.0000
  C   C6        1.0  0.15667  0.29651  0.18565  1.0000
  H   H10       1.0  0.27269  0.28135  0.11360  1.0000
  C   C7        1.0  0.41445  0.05137  0.10800  1.0000
  H   H11       1.0  0.15364  0.27581  0.20940  1.0000
  H   H12       1.0  0.43025  0.04241  0.18537  1.0000
  C   C8        1.0  0.17575  0.28790  0.20728  1.0000
  S   S12       1.0  0.30157  0.29929  0.99338  1.0000
  C   C9        1.0  0.37142  0.98923  0.19552  1.0000
  H   H13       1.0  0.40355  0.22976  0.02132  1.0000
  S   S13       1.0  0.47008  0.03217  0.07175  1.0000
  C   C10       1.0  0.16122  0.28582  0.20161  1.0000
  H   H14       1.0  0.41343  0.30403  0.03712  1.0000
  C   C11       1.0  0.38358  0.07558  0.09719  1.0000
  C   C12       1.0  0.46855  0.23220  0.07335  1.0000
  H   H15       1.0  0.21668  0.25930  0.19016  1.0000
  C   C13       1.0  0.18089  0.31166  0.18117  1.0000
  H   H16       1.0  0.40581  0.00329  0.20420  1.0000
  C   C14       1.0  0.37171  0.99474  0.21090  1.0000
  H   H17       1.0  0.24980  0.28389  0.11331  1.0000
  H   H18       1.0  0.14545  0.29481  0.18127  1.0000
  H   H19       1.0  0.29067  0.29117  0.06123  1.0000
  C   C15       1.0  0.39796  0.30895  0.01695  1.0000
  H   H20       1.0  0.25798  0.29375  0.07194  1.0000
  C   C16       1.0  0.41818  0.00877  0.19846  1.0000
  C   C17       1.0  0.43403  0.05986  0.12820  1.0000
  C   C18       1.0  0.43007  0.03961  0.11219  1.0000
  H   H21       1.0  0.45815  0.05306  0.17413  1.0000
  C   C19       1.0  0.21831  0.26664  0.17641  1.0000
  C   C20       1.0  0.47889  0.21064  0.04449  1.0000
  N   N1        1.0  0.46932  0.21272  0.07690  1.0000
  H   H22       1.0  0.40290  0.27188  0.03624  1.0000
  H   H23       1.0  0.44171  0.06320  0.13594  1.0000
  H   H24       1.0  0.47029  0.23631  0.08512  1.0000
  H   H25       1.0  0.41644  0.02037  0.20468  1.0000
  H   H26       1.0  0.44257  0.23903  0.03432  1.0000
  H   H27       1.0  0.40119  0.10444  0.10910  1.0000
  C   C21       1.0  0.45574  0.20822  0.09337  1.0000
  C   C22       1.0  0.39531  0.20680  0.07972  1.0000
  C   C23       1.0  0.39588  0.19775  0.06653  1.0000
  C   C24       1.0  0.38616  0.20607  0.05296  1.0000
  C   C25       1.0  0.37570  0.22342  0.05253  1.0000
  C   C26       1.0  0.37480  0.23231  0.06597  1.0000
  C   C27       1.0  0.38478  0.22412  0.07936  1.0000
  H   H28       1.0  0.40388  0.18438  0.06671  1.0000
  H   H29       1.0  0.38681  0.19904  0.04271  1.0000
  H   H30       1.0  0.36659  0.24558  0.06592  1.0000
  H   H31       1.0  0.38419  0.23115  0.08959  1.0000
  C   C28       1.0  0.40518  0.07573  0.19298  1.0000
  C   C29       1.0  0.38838  0.08016  0.18851  1.0000
  C   C30       1.0  0.38550  0.09252  0.17274  1.0000
  C   C31       1.0  0.39939  0.10045  0.16130  1.0000
  C   C32       1.0  0.41633  0.09573  0.16555  1.0000
  C   C33       1.0  0.41920  0.08339  0.18138  1.0000
  H   H32       1.0  0.38311  0.08757  0.13545  1.0000
  H   H33       1.0  0.37237  0.09616  0.16951  1.0000
  H   H34       1.0  0.42711  0.10176  0.15675  1.0000
  H   H35       1.0  0.43223  0.08001  0.18479  1.0000
  C   C34       1.0  0.43188  0.10596  0.05796  1.0000
  C   C35       1.0  0.42189  0.10352  0.04693  1.0000
  C   C36       1.0  0.41915  0.08648  0.04794  1.0000
  C   C37       1.0  0.42704  0.07167  0.05941  1.0000
  C   C38       1.0  0.43738  0.07405  0.07023  1.0000
  C   C39       1.0  0.43958  0.09123  0.06972  1.0000
  H   H36       1.0  0.41602  0.11487  0.03775  1.0000
  H   H37       1.0  0.41110  0.08474  0.03960  1.0000
  H   H38       1.0  0.44321  0.06277  0.07939  1.0000
  H   H39       1.0  0.44729  0.09303  0.07832  1.0000
  H   H40       1.0  0.45550  0.24001  0.07006  1.0000
  C   C40       1.0  0.47541  0.16497  0.12176  1.0000
  C   C41       1.0  0.48102  0.17873  0.12567  1.0000
  H   H41       1.0  0.40900  0.03331  0.15861  1.0000
  C   C42       1.0  0.39580  0.09878  0.10067  1.0000
  C   C43       1.0  0.26463  0.30238  0.07534  1.0000
  H   H42       1.0  0.46135  0.16458  0.12492  1.0000
  S   S14       1.0  0.48158  0.13401  0.10924  1.0000
  Fe  Fe7       1.0  0.35857  0.29921  0.00982  1.0000
  C   C44       1.0  0.23724  0.28041  0.14914  1.0000
  C   C45       1.0  0.44956  0.19638  0.04624  1.0000
  H   H43       1.0  0.43488  0.02726  0.10728  1.0000
  H   H44       1.0  0.39350  0.02395  0.17760  1.0000
  S   S15       1.0  0.35246  0.27729  0.00077  1.0000
  C   C46       1.0  0.40409  0.25760  0.03610  1.0000
  C   C47       1.0  0.29197  0.31175  0.07373  1.0000
  C   C48       1.0  0.42103  0.99807  0.17192  1.0000
  S   S16       1.0  0.46392  0.01685  0.03921  1.0000
  H   H45       1.0  0.43150  0.98629  0.17599  1.0000
  C   C49       1.0  0.28316  0.30091  0.06921  1.0000
  H   H46       1.0  0.32140  0.00025  0.21586  1.0000
  H   H47       1.0  0.42466  0.28242  0.99222  1.0000
  H   H48       1.0  0.43823  0.19063  0.04704  1.0000
  C   C50       1.0  0.25286  0.30449  0.13426  1.0000
  H   H49       1.0  0.48922  0.06106  0.04633  1.0000
  H   H50       1.0  0.45309  0.99958  0.15585  1.0000
  H   H51       1.0  0.36872  0.00877  0.21107  1.0000
  H   H52       1.0  0.42305  0.00108  0.15707  1.0000
  H   H53       1.0  0.26122  0.26327  0.12470  1.0000
  C   C51       1.0  0.43856  0.01998  0.17177  1.0000
  H   H54       1.0  0.26576  0.30842  0.12682  1.0000
  C   C52       1.0  0.40168  0.26270  0.00556  1.0000
  C   C53       1.0  0.23498  0.27042  0.16702  1.0000
  H   H55       1.0  0.47583  0.27568  0.00378  1.0000
  H   H56       1.0  0.39317  0.07413  0.08430  1.0000
  C   C54       1.0  0.41640  0.23400  0.01950  1.0000
  N   N2        1.0  0.41358  0.25352  0.01842  1.0000
  C   C55       1.0  0.46206  0.19892  0.03028  1.0000
  H   H57       1.0  0.42220  0.22584  0.03111  1.0000
  C   C56       1.0  0.45165  0.20091  0.06139  1.0000
  C   C57       1.0  0.46655  0.20798  0.06105  1.0000
  H   H58       1.0  0.41673  0.98366  0.01781  1.0000
  H   H59       1.0  0.40833  0.26084  0.99178  1.0000
  S   S17       1.0  0.32090  0.27354  0.03722  1.0000
  H   H60       1.0  0.40451  0.04009  0.17956  1.0000
  H   H61       1.0  0.33679  0.02089  0.22379  1.0000
  H   H62       1.0  0.42956  0.99845  0.20299  1.0000
  H   H63       1.0  0.30092  0.01667  0.21707  1.0000
  C   C58       1.0  0.45059  0.27992  0.99637  1.0000
  H   H64       1.0  0.40993  0.11639  0.20313  1.0000
  H   H65       1.0  0.37513  0.06915  0.13333  1.0000
  C   C59       1.0  0.37820  0.10804  0.21882  1.0000
  S   S18       1.0  0.32983  0.31296  0.01602  1.0000
  H   H66       1.0  0.37748  0.07439  0.19736  1.0000
  C   C60       1.0  0.41285  0.30941  0.02321  1.0000
  N   N3        1.0  0.42143  0.01380  0.17867  1.0000
  C   C61       1.0  0.45682  0.04137  0.17026  1.0000
  H   H67       1.0  0.19064  0.26972  0.17574  1.0000
  S   S19       1.0  0.35862  0.28417  0.03803  1.0000
  H   H68       1.0  0.36816  0.99906  0.18388  1.0000
  C   C62       1.0  0.45342  0.01120  0.16040  1.0000
  S   S20       1.0  0.31536  0.30949  0.06691  1.0000
  C   C63       1.0  0.46940  0.01743  0.15424  1.0000
  C   C64       1.0  0.44083  0.03520  0.17658  1.0000
  C   C65       1.0  0.47108  0.03251  0.15908  1.0000
  C   C66       1.0  0.18566  0.30072  0.19696  1.0000
  Fe  Fe8       1.0  0.35063  0.26293  0.02958  1.0000
  Fe  Fe9       1.0  0.32359  0.28983  0.00915  1.0000
  H   H69       1.0  0.38365  0.10877  0.09749  1.0000
  H   H70       1.0  0.24829  0.31023  0.14650  1.0000
  C   C67       1.0  0.39723  0.31560  0.99897  1.0000
  H   H71       1.0  0.47925  0.13173  0.06742  1.0000
  S   S21       1.0  0.37943  0.31364  0.99055  1.0000
  H   H72       1.0  0.45233  0.03497  0.12472  1.0000
  C   C68       1.0  0.43995  0.04393  0.12206  1.0000
  H   H73       1.0  0.40782  0.04732  0.09984  1.0000
  H   H74       1.0  0.47924  0.07695  0.06008  1.0000
  H   H75       1.0  0.28244  0.28042  0.13998  1.0000
  N   N4        1.0  0.39182  0.08085  0.10939  1.0000
  C   C69       1.0  0.43445  0.27428  0.99989  1.0000
  C   C70       1.0  0.25979  0.27802  0.12193  1.0000
  C   C71       1.0  0.43096  0.25916  0.01351  1.0000
  C   C72       1.0  0.22178  0.28652  0.14151  1.0000
  C   C73       1.0  0.26957  0.27707  0.14836  1.0000
  C   C74       1.0  0.20354  0.27258  0.16836  1.0000
  H   H76       1.0  0.39722  0.27724  0.00552  1.0000
  C   C75       1.0  0.41841  0.07169  0.12414  1.0000
  H   H77       1.0  0.39030  0.25510  0.03962  1.0000
  H   H78       1.0  0.27180  0.26223  0.15198  1.0000
  H   H79       1.0  0.41441  0.08387  0.12919  1.0000
  H   H80       1.0  0.38029  0.11410  0.20427  1.0000
  H   H81       1.0  0.41094  0.24934  0.04702  1.0000
  S   S22       1.0  0.48907  0.99108  0.06709  1.0000
  H   H82       1.0  0.44197  0.21574  0.09200  1.0000
  H   H83       1.0  0.38706  0.30346  0.02607  1.0000
  H   H84       1.0  0.41838  0.11241  0.22304  1.0000
  H   H85       1.0  0.37165  0.08579  0.09376  1.0000
  C   C76       1.0  0.37835  0.08236  0.12617  1.0000
  Fe  Fe10      1.0  0.32901  0.29601  0.04352  1.0000
  C   C77       1.0  0.48715  0.20306  0.08070  1.0000
  H   H86       1.0  0.45570  0.19366  0.09690  1.0000
  H   H87       1.0  0.24303  0.31123  0.12561  1.0000
  H   H88       1.0  0.22230  0.29453  0.12815  1.0000
  H   H89       1.0  0.43593  0.98849  0.03583  1.0000
  C   C78       1.0  0.48846  0.12589  0.05664  1.0000
  H   H90       1.0  0.38749  0.14011  0.21306  1.0000
  H   H91       1.0  0.37900  0.06279  0.10326  1.0000
  S   S23       1.0  0.18166  0.27470  0.22721  1.0000
  H   H92       1.0  0.19351  0.28778  0.14502  1.0000
  H   H93       1.0  0.47124  0.18894  0.13179  1.0000
  C   C79       1.0  0.47616  0.09348  0.02696  1.0000
  H   H94       1.0  0.48841  0.18832  0.08334  1.0000
  H   H95       1.0  0.42524  0.23009  0.00712  1.0000
  H   H96       1.0  0.48641  0.20813  0.01696  1.0000
  H   H97       1.0  0.46047  0.19519  0.01864  1.0000
  H   H98       1.0  0.38912  0.25749  0.00915  1.0000
  C   C80       1.0  0.48525  0.11123  0.05215  1.0000
  C   C81       1.0  0.44456  0.25019  0.02333  1.0000
  C   C82       1.0  0.46070  0.25590  0.01961  1.0000
  C   C83       1.0  0.46365  0.27081  0.00623  1.0000
  N   N5        1.0  0.25461  0.28482  0.13874  1.0000
  H   H99       1.0  0.40796  0.99377  0.17720  1.0000
  S   S24       1.0  0.40883  0.06126  0.21330  1.0000
  H   H100      1.0  0.47079  0.24907  0.02744  1.0000
  H   H101      1.0  0.38070  0.09331  0.22021  1.0000
  C   C84       1.0  0.48806  0.15156  0.11415  1.0000
  H   H102      1.0  0.47706  0.10432  0.01480  1.0000
  H   H103      1.0  0.47327  0.10644  0.05955  1.0000
  H   H104      1.0  0.31644  0.03690  0.22274  1.0000
  H   H105      1.0  0.41310  0.09449  0.21646  1.0000
  H   H106      1.0  0.14588  0.31099  0.22369  1.0000
  H   H107      1.0  0.47936  0.23642  0.06208  1.0000
  H   H108      1.0  0.47255  0.08216  0.02369  1.0000
  S   S25       1.0  0.36643  0.04051  0.22352  1.0000
  H   H109      1.0  0.48049  0.01059  0.14542  1.0000
  C   C85       1.0  0.30903  0.00543  0.22519  1.0000
  H   H110      1.0  0.48347  0.03732  0.15416  1.0000
  H   H111      1.0  0.45267  0.29196  0.98649  1.0000
  C   C86       1.0  0.47666  0.20613  0.02938  1.0000
  Fe  Fe11      1.0  0.48711  0.01858  0.04974  1.0000
  Fe  Fe12      1.0  0.46444  0.99030  0.05826  1.0000
  C   C87       1.0  0.25470  0.31496  0.08569  1.0000
  H   H112      1.0  0.36379  0.11247  0.22459  1.0000
  C   C88       1.0  0.38520  0.13233  0.22706  1.0000
  H   H113      1.0  0.48959  0.20635  0.09259  1.0000
  H   H114      1.0  0.44142  0.98278  0.12273  1.0000
  H   H115      1.0  0.17234  0.03244  0.42234  1.0000
  H   H116      1.0  0.35548  0.09845  0.28496  1.0000
  C   C89       1.0  0.40201  0.08986  0.25345  1.0000
  Fe  Fe13      1.0  0.38526  0.05128  0.23273  1.0000
  H   H117      1.0  0.39545  0.02912  0.44235  1.0000
  C   C90       1.0  0.01906  0.26624  0.34415  1.0000
  Fe  Fe14      1.0  0.23255  0.11024  0.34053  1.0000
  S   S26       1.0  0.22713  0.08299  0.34523  1.0000
  S   S27       1.0  0.25110  0.11568  0.35473  1.0000
  Fe  Fe15      1.0  0.21225  0.12482  0.31048  1.0000
  S   S28       1.0  0.20548  0.09836  0.31225  1.0000
  S   S29       1.0  0.20514  0.14936  0.28943  1.0000
  Fe  Fe16      1.0  0.19931  0.09701  0.34181  1.0000
  S   S30       1.0  0.17638  0.08733  0.36246  1.0000
  Fe  Fe17      1.0  0.23397  0.08661  0.31541  1.0000
  S   S31       1.0  0.25307  0.06263  0.30611  1.0000
  S   S32       1.0  0.20409  0.12425  0.33988  1.0000
  S   S33       1.0  0.24133  0.11306  0.31089  1.0000
  Fe  Fe18      1.0  0.08683  0.06921  0.36395  1.0000
  S   S34       1.0  0.08684  0.07251  0.39120  1.0000
  S   S35       1.0  0.10803  0.07856  0.34057  1.0000
  Fe  Fe19      1.0  0.05128  0.05665  0.37605  1.0000
  S   S36       1.0  0.04927  0.05862  0.40434  1.0000
  S   S37       1.0  0.02533  0.05156  0.37287  1.0000
  Fe  Fe20      1.0  0.05791  0.08453  0.39250  1.0000
  S   S38       1.0  0.04565  0.10752  0.40626  1.0000
  Fe  Fe21      1.0  0.07850  0.04617  0.40057  1.0000
  S   S39       1.0  0.08783  0.02582  0.42393  1.0000
  S   S40       1.0  0.05821  0.08366  0.36443  1.0000
  S   S41       1.0  0.08013  0.04177  0.37313  1.0000
  Fe  Fe22      1.0  0.37129  0.01738  0.24621  1.0000
  S   S42       1.0  0.39140  0.02727  0.25445  1.0000
  Fe  Fe23      1.0  0.34514  0.05320  0.24425  1.0000
  S   S43       1.0  0.36355  0.06631  0.25130  1.0000
  H   H118      1.0  0.99451  0.15748  0.40141  1.0000
  Fe  Fe24      1.0  0.36787  0.04128  0.27221  1.0000
  S   S44       1.0  0.36210  0.04194  0.30146  1.0000
  S   S45       1.0  0.34838  0.02893  0.26604  1.0000
  H   H119      1.0  0.05375  0.07470  0.43809  1.0000
  C   C91       1.0  0.34395  0.01657  0.47638  1.0000
  Fe  Fe25      1.0  0.43354  0.00225  0.40395  1.0000
  S   S46       1.0  0.41078  0.02180  0.39305  1.0000
  S   S47       1.0  0.44845  0.00458  0.42388  1.0000
  Fe  Fe26      1.0  0.39773  0.99808  0.40060  1.0000
  S   S48       1.0  0.36955  0.99840  0.41640  1.0000
  Fe  Fe27      1.0  0.42305  0.01186  0.36743  1.0000
  S   S49       1.0  0.42747  0.02705  0.33891  1.0000
  S   S50       1.0  0.29660  0.05912  0.47453  1.0000
  H   H120      1.0  0.00939  0.27749  0.34872  1.0000
  Fe  Fe28      1.0  0.12521  0.25027  0.25995  1.0000
  S   S51       1.0  0.11979  0.25445  0.28784  1.0000
  S   S52       1.0  0.10656  0.23874  0.25114  1.0000
  Fe  Fe29      1.0  0.15872  0.26601  0.24857  1.0000
  S   S53       1.0  0.15611  0.27110  0.27585  1.0000
  Fe  Fe30      1.0  0.14942  0.24378  0.28570  1.0000
  S   S54       1.0  0.15881  0.22276  0.30866  1.0000
  Fe  Fe31      1.0  0.12697  0.28117  0.27515  1.0000
  S   S55       1.0  0.15434  0.23789  0.25842  1.0000
  S   S56       1.0  0.13004  0.27785  0.24721  1.0000
  H   H121      1.0  0.39327  0.13627  0.23447  1.0000
  H   H122      1.0  0.09767  0.10587  0.36279  1.0000
  S   S57       1.0  0.01103  0.02001  0.31304  1.0000
  H   H123      1.0  0.07555  0.11514  0.37285  1.0000
  H   H124      1.0  0.07227  0.16070  0.34843  1.0000
  Fe  Fe32      1.0  0.25654  0.08156  0.45115  1.0000
  S   S58       1.0  0.27693  0.05802  0.44288  1.0000
  S   S59       1.0  0.23216  0.09209  0.43889  1.0000
  Fe  Fe33      1.0  0.29671  0.07231  0.44586  1.0000
  S   S60       1.0  0.32260  0.07432  0.42611  1.0000
  H   H125      1.0  0.09988  0.01144  0.45690  1.0000
  S   S61       1.0  0.27646  0.09701  0.45173  1.0000
  H   H126      1.0  0.08247  0.14189  0.32646  1.0000
  S   S62       1.0  0.02516  0.16270  0.31758  1.0000
  C   C92       1.0  0.08355  0.13016  0.33776  1.0000
  H   H127      1.0  0.00849  0.31393  0.34374  1.0000
  C   C93       1.0  0.00800  0.08007  0.27667  1.0000
  Fe  Fe34      1.0  0.03904  0.18575  0.30875  1.0000
  S   S63       1.0  0.06844  0.18122  0.30879  1.0000
  S   S64       1.0  0.02032  0.20089  0.32885  1.0000
  H   H128      1.0  0.00050  0.05870  0.30760  1.0000
  H   H129      1.0  0.04664  0.23574  0.28146  1.0000
  N   N6        1.0  0.19183  0.04841  0.40710  1.0000
  C   C94       1.0  0.09602  0.22287  0.26736  1.0000
  C   C95       1.0  0.10089  0.21614  0.28396  1.0000
  C   C96       1.0  0.09265  0.20304  0.29652  1.0000
  C   C97       1.0  0.07923  0.19695  0.29266  1.0000
  C   C98       1.0  0.07432  0.20372  0.27610  1.0000
  C   C99       1.0  0.08280  0.21656  0.26344  1.0000
  H   H130      1.0  0.11112  0.22091  0.28705  1.0000
  H   H131      1.0  0.09643  0.19789  0.30936  1.0000
  H   H132      1.0  0.06411  0.19894  0.27297  1.0000
  H   H133      1.0  0.07907  0.22165  0.25055  1.0000
  H   H134      1.0  0.15518  0.18011  0.29081  1.0000
  C   C100      1.0  0.35581  0.01960  0.41766  1.0000
  C   C101      1.0  0.33939  0.02094  0.42987  1.0000
  C   C102      1.0  0.32896  0.03774  0.43231  1.0000
  C   C103      1.0  0.33483  0.05326  0.42233  1.0000
  C   C104      1.0  0.35093  0.05196  0.40968  1.0000
  C   C105      1.0  0.36140  0.03515  0.40734  1.0000
  H   H135      1.0  0.33488  0.00895  0.43774  1.0000
  H   H136      1.0  0.31650  0.03863  0.44205  1.0000
  H   H137      1.0  0.35539  0.06396  0.40177  1.0000
  H   H138      1.0  0.37372  0.03427  0.39749  1.0000
  C   C106      1.0  0.38050  0.03717  0.31164  1.0000
  C   C107      1.0  0.37765  0.03379  0.33031  1.0000
  C   C108      1.0  0.39204  0.03056  0.33878  1.0000
  C   C109      1.0  0.40929  0.03101  0.32857  1.0000
  C   C110      1.0  0.41215  0.03441  0.30989  1.0000
  C   C111      1.0  0.39782  0.03719  0.30143  1.0000
  H   H139      1.0  0.36430  0.03364  0.33827  1.0000
  H   H140      1.0  0.38976  0.02798  0.35320  1.0000
  H   H141      1.0  0.42551  0.03475  0.30199  1.0000
  H   H142      1.0  0.40007  0.03975  0.28702  1.0000
  C   C112      1.0  0.02189  0.04239  0.35625  1.0000
  C   C113      1.0  0.03561  0.03799  0.34194  1.0000
  C   C114      1.0  0.03215  0.03086  0.32895  1.0000
  C   C115      1.0  0.01495  0.02822  0.33009  1.0000
  H   H143      1.0  0.36502  0.04804  0.45904  1.0000
  C   C116      1.0  0.00472  0.03963  0.35743  1.0000
  H   H144      1.0  0.04889  0.04000  0.34094  1.0000
  H   H145      1.0  0.04282  0.02748  0.31789  1.0000
  H   H146      1.0  0.09330  0.11882  0.33249  1.0000
  H   H147      1.0  0.01387  0.09132  0.35125  1.0000
  C   C117      1.0  0.10586  0.02888  0.43127  1.0000
  C   C118      1.0  0.11715  0.04023  0.42050  1.0000
  C   C119      1.0  0.13048  0.04357  0.42723  1.0000
  H   H148      1.0  0.21281  0.01674  0.45924  1.0000
  C   C120      1.0  0.10842  0.02040  0.44857  1.0000
  H   H149      1.0  0.11558  0.04650  0.40701  1.0000
  H   H150      1.0  0.13897  0.05259  0.41892  1.0000
  H   H151      1.0  0.42285  0.99757  0.45902  1.0000
  C   C121      1.0  0.03153  0.12461  0.39438  1.0000
  C   C122      1.0  0.03432  0.12729  0.37581  1.0000
  C   C123      1.0  0.02310  0.14116  0.36641  1.0000
  C   C124      1.0  0.00869  0.15202  0.37563  1.0000
  H   H152      1.0  0.17606  0.16567  0.26782  1.0000
  C   C125      1.0  0.01734  0.13569  0.40357  1.0000
  H   H153      1.0  0.04530  0.11893  0.36862  1.0000
  H   H154      1.0  0.02530  0.14306  0.35213  1.0000
  H   H155      1.0  0.39451  0.99575  0.31806  1.0000
  H   H156      1.0  0.01511  0.13367  0.41795  1.0000
  C   C126      1.0  0.30041  0.06828  0.25887  1.0000
  C   C127      1.0  0.28532  0.08231  0.26000  1.0000
  C   C128      1.0  0.27091  0.08112  0.27479  1.0000
  C   C129      1.0  0.27137  0.06566  0.28824  1.0000
  C   C130      1.0  0.28646  0.05174  0.28713  1.0000
  C   C131      1.0  0.30095  0.05308  0.27260  1.0000
  H   H157      1.0  0.28474  0.09409  0.24939  1.0000
  H   H158      1.0  0.25923  0.09188  0.27549  1.0000
  H   H159      1.0  0.28678  0.03966  0.29737  1.0000
  H   H160      1.0  0.31212  0.04199  0.27175  1.0000
  C   C132      1.0  0.19329  0.16979  0.29544  1.0000
  C   C133      1.0  0.18415  0.17070  0.31294  1.0000
  C   C134      1.0  0.17386  0.18708  0.31698  1.0000
  C   C135      1.0  0.17256  0.20259  0.30352  1.0000
  C   C136      1.0  0.18212  0.20174  0.28613  1.0000
  C   C137      1.0  0.19244  0.18540  0.28212  1.0000
  H   H161      1.0  0.18467  0.15874  0.32328  1.0000
  H   H162      1.0  0.16663  0.18771  0.33049  1.0000
  H   H163      1.0  0.18171  0.21370  0.27579  1.0000
  H   H164      1.0  0.19969  0.18485  0.26859  1.0000
  C   C138      1.0  0.15838  0.08373  0.35556  1.0000
  C   C139      1.0  0.15611  0.08973  0.33789  1.0000
  C   C140      1.0  0.14085  0.08766  0.33323  1.0000
  C   C141      1.0  0.12794  0.07948  0.34615  1.0000
  C   C142      1.0  0.13072  0.07279  0.36356  1.0000
  C   C143      1.0  0.14572  0.07512  0.36831  1.0000
  H   H165      1.0  0.16592  0.09621  0.32793  1.0000
  H   H166      1.0  0.13902  0.09240  0.31963  1.0000
  H   H167      1.0  0.12149  0.06557  0.37337  1.0000
  H   H168      1.0  0.14752  0.07015  0.38192  1.0000
  C   C144      1.0  0.24572  0.10889  0.37808  1.0000
  C   C145      1.0  0.25850  0.10721  0.38810  1.0000
  C   C146      1.0  0.25450  0.10176  0.40676  1.0000
  C   C147      1.0  0.23750  0.09853  0.41550  1.0000
  C   C148      1.0  0.22463  0.10044  0.40549  1.0000
  C   C149      1.0  0.22881  0.10536  0.38676  1.0000
  H   H169      1.0  0.27160  0.10993  0.38143  1.0000
  H   H170      1.0  0.26449  0.10034  0.41441  1.0000
  H   H171      1.0  0.21145  0.09798  0.41223  1.0000
  H   H172      1.0  0.21886  0.10667  0.37910  1.0000
  C   C150      1.0  0.43540  0.05056  0.45352  1.0000
  C   C151      1.0  0.42674  0.05208  0.43963  1.0000
  C   C152      1.0  0.43074  0.03821  0.43022  1.0000
  C   C153      1.0  0.44341  0.02271  0.43471  1.0000
  C   C154      1.0  0.45205  0.02122  0.44858  1.0000
  C   C155      1.0  0.44808  0.03508  0.45796  1.0000
  H   H173      1.0  0.41721  0.06417  0.43587  1.0000
  H   H174      1.0  0.42424  0.03961  0.41934  1.0000
  H   H175      1.0  0.46191  0.00929  0.45207  1.0000
  S   S65       1.0  0.99335  0.16805  0.36430  1.0000
  H   H176      1.0  0.13891  0.30326  0.29703  1.0000
  H   H177      1.0  0.04926  0.31132  0.37094  1.0000
  H   H178      1.0  0.31942  0.98361  0.25395  1.0000
  C   C156      1.0  0.37539  0.07975  0.44956  1.0000
  C   C157      1.0  0.04244  0.23567  0.29601  1.0000
  H   H179      1.0  0.34184  0.05736  0.45846  1.0000
  C   C158      1.0  0.03610  0.08380  0.31539  1.0000
  H   H180      1.0  0.06255  0.14510  0.36616  1.0000
  N   N7        1.0  0.31331  0.01105  0.23978  1.0000
  C   C159      1.0  0.29135  0.00818  0.26983  1.0000
  H   H181      1.0  0.14476  0.19930  0.24527  1.0000
  C   C160      1.0  0.02422  0.25100  0.35661  1.0000
  H   H182      1.0  0.99519  0.13521  0.34505  1.0000
  H   H183      1.0  0.10191  0.31317  0.32991  1.0000
  H   H184      1.0  0.41519  0.08641  0.24539  1.0000
  C   C161      1.0  0.08816  0.31113  0.33119  1.0000
  N   N8        1.0  0.39013  0.11279  0.22774  1.0000
  H   H185      1.0  0.19347  0.05225  0.37865  1.0000
  H   H186      1.0  0.05034  0.22320  0.30271  1.0000
  N   N9        1.0  0.14788  0.17697  0.26766  1.0000
  C   C162      1.0  0.14737  0.18785  0.28044  1.0000
  H   H187      1.0  0.25959  0.05201  0.25242  1.0000
  C   C163      1.0  0.13793  0.18838  0.25375  1.0000
  C   C164      1.0  0.39541  0.98497  0.45843  1.0000
  C   C165      1.0  0.40130  0.98596  0.32833  1.0000
  H   H188      1.0  0.09976  0.06060  0.47328  1.0000
  H   H189      1.0  0.38623  0.98428  0.45019  1.0000
  C   C166      1.0  0.01013  0.09179  0.30113  1.0000
  S   S66       1.0  0.00180  0.15948  0.28365  1.0000
  H   H190      1.0  0.13346  0.19242  0.28753  1.0000
  H   H191      1.0  0.16434  0.14479  0.28666  1.0000
  Fe  Fe35      1.0  0.00407  0.21300  0.30770  1.0000
  H   H192      1.0  0.99153  0.19298  0.25890  1.0000
  C   C167      1.0  0.06237  0.09417  0.47584  1.0000
  S   S67       1.0  0.31804  0.06955  0.23988  1.0000
  H   H193      1.0  0.02800  0.99075  0.34705  1.0000
  H   H194      1.0  0.11229  0.17318  0.27474  1.0000
  C   C168      1.0  0.03777  0.25193  0.31956  1.0000
  H   H195      1.0  0.01898  0.06826  0.27925  1.0000
  C   C169      1.0  0.12283  0.12796  0.35070  1.0000
  C   C170      1.0  0.12506  0.16082  0.32738  1.0000
  C   C171      1.0  0.13928  0.13329  0.34429  1.0000
  C   C172      1.0  0.14037  0.14972  0.33275  1.0000
  H   H196      1.0  0.12307  0.11495  0.35943  1.0000
  H   H197      1.0  0.12595  0.17353  0.31828  1.0000
  H   H198      1.0  0.15127  0.12455  0.34830  1.0000
  H   H199      1.0  0.15314  0.15376  0.32782  1.0000
  H   H200      1.0  0.08018  0.15377  0.36906  1.0000
  N   N10       1.0  0.07180  0.07161  0.45556  1.0000
  C   C173      1.0  0.13257  0.03562  0.44479  1.0000
  C   C174      1.0  0.10686  0.13915  0.34579  1.0000
  H   H201      1.0  0.02119  0.26818  0.29126  1.0000
  H   H202      1.0  0.40371  0.98739  0.29094  1.0000
  C   C175      1.0  0.03644  0.23639  0.35091  1.0000
  H   H203      1.0  0.07014  0.25225  0.28152  1.0000
  H   H204      1.0  0.15117  0.11945  0.30338  1.0000
  H   H205      1.0  0.09988  0.14758  0.29191  1.0000
  C   C176      1.0  0.27525  0.01457  0.28088  1.0000
  H   H206      1.0  0.08834  0.08681  0.43425  1.0000
  N   N11       1.0  0.99786  0.08626  0.29328  1.0000
  C   C177      1.0  0.03404  0.99198  0.38725  1.0000
  H   H207      1.0  0.02024  0.12864  0.30834  1.0000
  C   C178      1.0  0.16679  0.17157  0.25842  1.0000
  H   H208      1.0  0.19701  0.08961  0.47101  1.0000
  H   H209      1.0  0.04103  0.26678  0.27407  1.0000
  C   C179      1.0  0.29644  0.01744  0.25195  1.0000
  H   H210      1.0  0.09388  0.12001  0.37865  1.0000
  H   H211      1.0  0.23703  0.03350  0.45224  1.0000
  H   H212      1.0  0.37085  0.13689  0.23291  1.0000
  C   C180      1.0  0.38794  0.10290  0.24656  1.0000
  C   C181      1.0  0.02121  0.11467  0.30854  1.0000
  C   C182      1.0  0.03592  0.26754  0.28840  1.0000
  C   C183      1.0  0.36852  0.09629  0.27618  1.0000
  C   C184      1.0  0.06426  0.25203  0.29597  1.0000
  S   S68       1.0  0.42977  0.06803  0.46532  1.0000
  H   H213      1.0  0.07202  0.23997  0.30352  1.0000
  C   C185      1.0  0.39624  0.01503  0.44188  1.0000
  H   H214      1.0  0.06854  0.04632  0.45263  1.0000
  H   H215      1.0  0.03835  0.28032  0.28971  1.0000
  H   H216      1.0  0.05535  0.09509  0.44242  1.0000
  H   H217      1.0  0.16897  0.06874  0.40086  1.0000
  H   H218      1.0  0.35853  0.06148  0.43887  1.0000
  H   H219      1.0  0.16808  0.16170  0.25016  1.0000
  C   C186      1.0  0.05523  0.08079  0.44870  1.0000
  H   H220      1.0  0.10003  0.06528  0.44384  1.0000
  H   H221      1.0  0.04664  0.07367  0.32075  1.0000
  H   H222      1.0  0.11911  0.12028  0.30605  1.0000
  C   C187      1.0  0.14002  0.16130  0.27775  1.0000
  H   H223      1.0  0.15296  0.19996  0.27363  1.0000
  H   H224      1.0  0.06676  0.26392  0.29920  1.0000
  H   H225      1.0  0.25164  0.03548  0.28338  1.0000
  C   C188      1.0  0.20191  0.05136  0.38827  1.0000
  C   C189      1.0  0.20404  0.04418  0.41968  1.0000
  C   C190      1.0  0.20233  0.03089  0.43568  1.0000
  C   C191      1.0  0.22926  0.05022  0.42830  1.0000
  C   C192      1.0  0.21419  0.02708  0.44721  1.0000
  C   C193      1.0  0.38258  0.08368  0.28251  1.0000
  H   H226      1.0  0.21374  0.04031  0.38613  1.0000
  H   H227      1.0  0.33004  0.08913  0.45625  1.0000
  H   H228      1.0  0.20653  0.06421  0.38401  1.0000
  H   H229      1.0  0.19186  0.02334  0.43967  1.0000
  H   H230      1.0  0.01549  0.11203  0.35555  1.0000
  H   H231      1.0  0.99919  0.12076  0.29605  1.0000
  C   C194      1.0  0.07454  0.07931  0.46956  1.0000
  N   N12       1.0  0.30345  0.06545  0.33170  1.0000
  C   C195      1.0  0.30788  0.04763  0.32700  1.0000
  C   C196      1.0  0.28534  0.07449  0.32812  1.0000
  C   C197      1.0  0.31637  0.07616  0.31962  1.0000
  C   C198      1.0  0.30477  0.06337  0.35049  1.0000
  C   C199      1.0  0.29008  0.06956  0.36375  1.0000
  C   C200      1.0  0.32122  0.05494  0.35600  1.0000
  C   C201      1.0  0.29189  0.06726  0.38136  1.0000
  C   C202      1.0  0.32286  0.05281  0.37363  1.0000
  C   C203      1.0  0.30822  0.05897  0.38628  1.0000
  H   H232      1.0  0.29884  0.03890  0.33610  1.0000
  H   H233      1.0  0.30660  0.04869  0.31308  1.0000
  H   H234      1.0  0.32192  0.04057  0.32763  1.0000
  H   H235      1.0  0.28127  0.08823  0.33090  1.0000
  H   H236      1.0  0.27499  0.06673  0.33618  1.0000
  H   H237      1.0  0.28478  0.07591  0.31390  1.0000
  H   H238      1.0  0.33052  0.06932  0.32002  1.0000
  H   H239      1.0  0.31526  0.07856  0.30542  1.0000
  H   H240      1.0  0.31408  0.08936  0.32326  1.0000
  H   H241      1.0  0.27705  0.07629  0.36092  1.0000
  H   H242      1.0  0.33297  0.04995  0.34668  1.0000
  H   H243      1.0  0.28055  0.07201  0.39130  1.0000
  H   H244      1.0  0.33555  0.04634  0.37758  1.0000
  H   H245      1.0  0.30954  0.05737  0.39993  1.0000
  S   S69       1.0  0.40812  0.98971  0.37416  1.0000
  C   C204      1.0  0.12146  0.16164  0.28026  1.0000
  C   C205      1.0  0.35561  0.06004  0.45363  1.0000
  H   H246      1.0  0.38571  0.01499  0.43494  1.0000
  H   H247      1.0  0.19148  0.02095  0.40848  1.0000
  C   C206      1.0  0.14290  0.13117  0.29674  1.0000
  H   H248      1.0  0.02615  0.06497  0.30786  1.0000
  H   H249      1.0  0.42377  0.99854  0.29913  1.0000
  C   C207      1.0  0.02557  0.26677  0.32587  1.0000
  C   C208      1.0  0.07555  0.14906  0.35930  1.0000
  C   C209      1.0  0.10859  0.15556  0.33358  1.0000
  C   C210      1.0  0.43025  0.98870  0.30957  1.0000
  H   H250      1.0  0.18496  0.07646  0.40774  1.0000
  C   C211      1.0  0.17848  0.06492  0.41005  1.0000
  H   H251      1.0  0.05293  0.22528  0.32897  1.0000
  C   C212      1.0  0.21751  0.05412  0.41667  1.0000
  H   H252      1.0  0.01851  0.25048  0.37070  1.0000
  H   H253      1.0  0.13637  0.18038  0.24481  1.0000
  C   C213      1.0  0.18205  0.03400  0.40939  1.0000
  H   H254      1.0  0.28714  0.04100  0.23249  1.0000
  C   C214      1.0  0.08915  0.11812  0.36734  1.0000
  H   H255      1.0  0.09721  0.16442  0.32862  1.0000
  Fe  Fe36      1.0  0.00847  0.17775  0.29731  1.0000
  H   H256      1.0  0.07023  0.12640  0.34223  1.0000
  C   C215      1.0  0.12482  0.13168  0.29835  1.0000
  C   C216      1.0  0.12161  0.02390  0.45540  1.0000
  S   S70       1.0  0.10868  0.30721  0.28036  1.0000
  Fe  Fe37      1.0  0.00515  0.17897  0.33586  1.0000
  C   C217      1.0  0.00124  0.03259  0.34440  1.0000
  H   H257      1.0  0.37747  0.09200  0.45244  1.0000
  H   H258      1.0  0.35966  0.11511  0.25411  1.0000
  H   H259      1.0  0.17382  0.03696  0.39910  1.0000
  H   H260      1.0  0.00129  0.99047  0.34051  1.0000
  C   C218      1.0  0.32546  0.99564  0.24874  1.0000
  H   H261      1.0  0.36094  0.00451  0.45522  1.0000
  H   H262      1.0  0.33822  0.99146  0.23939  1.0000
  C   C219      1.0  0.37684  0.01030  0.47098  1.0000
  C   C220      1.0  0.26380  0.03024  0.27457  1.0000
  H   H263      1.0  0.41013  0.07056  0.27620  1.0000
  H   H264      1.0  0.38048  0.07616  0.29617  1.0000
  C   C221      1.0  0.07074  0.05257  0.46277  1.0000
  H   H265      1.0  0.33181  0.01608  0.47266  1.0000
  H   H266      1.0  0.38619  0.06831  0.45359  1.0000
  H   H267      1.0  0.38147  0.12271  0.47723  1.0000
  C   C222      1.0  0.11408  0.14697  0.29030  1.0000
  C   C223      1.0  0.04533  0.31418  0.35827  1.0000
  C   C224      1.0  0.22775  0.03658  0.44340  1.0000
  C   C225      1.0  0.34390  0.09159  0.45173  1.0000
  C   C226      1.0  0.00909  0.10991  0.30143  1.0000
  C   C227      1.0  0.32337  0.02562  0.23182  1.0000
  C   C228      1.0  0.02416  0.07892  0.30814  1.0000
  H   H268      1.0  0.17222  0.18319  0.24953  1.0000
  H   H269      1.0  0.04410  0.10545  0.32090  1.0000
  N   N13       1.0  0.22814  0.16938  0.33492  1.0000
  C   C229      1.0  0.21511  0.16080  0.34957  1.0000
  C   C230      1.0  0.23435  0.15829  0.32110  1.0000
  C   C231      1.0  0.24388  0.16900  0.34200  1.0000
  C   C232      1.0  0.21975  0.18814  0.32810  1.0000
  C   C233      1.0  0.21891  0.19505  0.30981  1.0000
  C   C234      1.0  0.21212  0.20015  0.33993  1.0000
  C   C235      1.0  0.21067  0.21279  0.30395  1.0000
  C   C236      1.0  0.20363  0.21776  0.33395  1.0000
  C   C237      1.0  0.20280  0.22402  0.31601  1.0000
  H   H270      1.0  0.20261  0.16176  0.34508  1.0000
  H   H271      1.0  0.22071  0.14640  0.35440  1.0000
  H   H272      1.0  0.21132  0.16690  0.36151  1.0000
  H   H273      1.0  0.22308  0.15768  0.31541  1.0000
  H   H274      1.0  0.24040  0.14426  0.32667  1.0000
  H   H275      1.0  0.24490  0.16335  0.31003  1.0000
  H   H276      1.0  0.24016  0.17585  0.35343  1.0000
  H   H277      1.0  0.25072  0.15501  0.34697  1.0000
  H   H278      1.0  0.25388  0.17561  0.33150  1.0000
  H   H279      1.0  0.22415  0.18700  0.29977  1.0000
  H   H280      1.0  0.21248  0.19596  0.35396  1.0000
  H   H281      1.0  0.20981  0.21772  0.29003  1.0000
  H   H282      1.0  0.19746  0.22658  0.34328  1.0000
  H   H283      1.0  0.19581  0.23753  0.31145  1.0000
  C   C238      1.0  0.03466  0.10167  0.31552  1.0000
  H   H284      1.0  0.01419  0.09080  0.26688  1.0000
  C   C239      1.0  0.28429  0.03322  0.24588  1.0000
  H   H285      1.0  0.37739  0.08187  0.43477  1.0000
  C   C240      1.0  0.39928  0.08051  0.27120  1.0000
  C   C241      1.0  0.26833  0.03956  0.25712  1.0000
  C   C242      1.0  0.04335  0.23689  0.33269  1.0000
  C   C243      1.0  0.00574  0.14918  0.39423  1.0000
  H   H286      1.0  0.02819  0.23452  0.30019  1.0000
  H   H287      1.0  0.40932  0.01043  0.43321  1.0000
  H   H288      1.0  0.43300  0.99669  0.31791  1.0000
  S   S71       1.0  0.02415  0.19965  0.28663  1.0000
  N   N14       1.0  0.04488  0.25193  0.30031  1.0000
  H   H289      1.0  0.45487  0.03379  0.46858  1.0000
  H   H290      1.0  0.04586  0.00232  0.36016  1.0000
  H   H291      1.0  0.21902  0.06512  0.40541  1.0000
  H   H292      1.0  0.27173  0.00755  0.29458  1.0000
  H   H293      1.0  0.02049  0.27882  0.31702  1.0000
  N   N15       1.0  0.08914  0.13411  0.35254  1.0000
  H   H294      1.0  0.17050  0.06320  0.42400  1.0000
  C   C244      1.0  0.08709  0.07271  0.44014  1.0000
  C   C245      1.0  0.01013  0.09970  0.36151  1.0000
  H   H295      1.0  0.99311  0.07896  0.38832  1.0000
  H   H296      1.0  0.34395  0.10386  0.45608  1.0000
  H   H297      1.0  0.07917  0.30815  0.36639  1.0000
  H   H298      1.0  0.12448  0.19553  0.25954  1.0000
  N   N16       1.0  0.99047  0.10343  0.36832  1.0000
  S   S72       1.0  0.14857  0.04103  0.45322  1.0000
  H   H299      1.0  0.08556  0.06683  0.42944  1.0000
  C   C246      1.0  0.15040  0.14580  0.28683  1.0000
  C   C247      1.0  0.99033  0.07129  0.30595  1.0000
  N   N17       1.0  0.39436  0.00353  0.45999  1.0000
  H   H300      1.0  0.41106  0.01704  0.46736  1.0000
  H   H301      1.0  0.12325  0.01758  0.46889  1.0000
  C   C248      1.0  0.36070  0.00992  0.46650  1.0000
  H   H302      1.0  0.04190  0.99769  0.39281  1.0000
  C   C249      1.0  0.03622  0.99463  0.36882  1.0000
  C   C250      1.0  0.37110  0.10579  0.25849  1.0000
  H   H303      1.0  0.23949  0.05795  0.42569  1.0000
  H   H304      1.0  0.05041  0.10076  0.47070  1.0000
  H   H305      1.0  0.99406  0.04287  0.36853  1.0000
  H   H306      1.0  0.34635  0.09451  0.43686  1.0000
  H   H307      1.0  0.40265  0.99386  0.33749  1.0000
  H   H308      1.0  0.04301  0.07997  0.45942  1.0000
  H   H309      1.0  0.99330  0.10836  0.39293  1.0000
  H   H310      1.0  0.01743  0.09223  0.37238  1.0000
  H   H311      1.0  0.99920  0.07600  0.27017  1.0000
  H   H312      1.0  0.98991  0.12791  0.37591  1.0000
  H   H313      1.0  0.04042  0.22453  0.36066  1.0000
  C   C251      1.0  0.40994  0.00331  0.46731  1.0000
  S   S73       1.0  0.99164  0.24245  0.30292  1.0000
  N   N18       1.0  0.35734  0.07616  0.45870  1.0000
  H   H314      1.0  0.08641  0.31252  0.31738  1.0000
  H   H315      1.0  0.30122  0.99465  0.23062  1.0000
  S   S74       1.0  0.44723  0.99473  0.37754  1.0000
  H   H316      1.0  0.32535  0.03131  0.24241  1.0000
  H   H317      1.0  0.08767  0.29710  0.33821  1.0000
  H   H318      1.0  0.05961  0.05112  0.47463  1.0000
  H   H319      1.0  0.32926  0.99903  0.25987  1.0000
  H   H320      1.0  0.08324  0.04437  0.46693  1.0000
  C   C252      1.0  0.02580  0.98781  0.36145  1.0000
  C   C253      1.0  0.02842  0.31141  0.35879  1.0000
  S   S75       1.0  0.37645  0.98828  0.24546  1.0000
  H   H321      1.0  0.02006  0.30668  0.37146  1.0000
  H   H322      1.0  0.29963  0.99608  0.27570  1.0000
  Fe  Fe38      1.0  0.27470  0.04716  0.47227  1.0000
  H   H323      1.0  0.37777  0.14626  0.47659  1.0000
  H   H324      1.0  0.21779  0.08671  0.47711  1.0000
  C   C254      1.0  0.02193  0.31533  0.34318  1.0000
  C   C255      1.0  0.08984  0.07189  0.47737  1.0000
  S   S76       1.0  0.42960  0.04555  0.55266  1.0000
  C   C256      1.0  0.38302  0.14464  0.57442  1.0000
  Fe  Fe39      1.0  0.34452  0.11362  0.57871  1.0000
  S   S77       1.0  0.35203  0.13252  0.55317  1.0000
  S   S78       1.0  0.36516  0.09576  0.59378  1.0000
  Fe  Fe40      1.0  0.30477  0.12893  0.58122  1.0000
  S   S79       1.0  0.30909  0.14974  0.55588  1.0000
  S   S80       1.0  0.27855  0.12625  0.60058  1.0000
  Fe  Fe41      1.0  0.32907  0.12694  0.54530  1.0000
  S   S81       1.0  0.33370  0.12247  0.51730  1.0000
  Fe  Fe42      1.0  0.33170  0.15348  0.56607  1.0000
  S   S82       1.0  0.34118  0.17901  0.56305  1.0000
  S   S83       1.0  0.32330  0.10587  0.56997  1.0000
  S   S84       1.0  0.32562  0.13481  0.59222  1.0000
  Fe  Fe43      1.0  0.35653  0.22643  0.63291  1.0000
  S   S85       1.0  0.37685  0.23985  0.61186  1.0000
  S   S86       1.0  0.34129  0.20637  0.63152  1.0000
  Fe  Fe44      1.0  0.35664  0.24677  0.66072  1.0000
  S   S87       1.0  0.37669  0.26190  0.64229  1.0000
  S   S88       1.0  0.34296  0.25246  0.68796  1.0000
  Fe  Fe45      1.0  0.36128  0.26487  0.62141  1.0000
  S   S89       1.0  0.35663  0.29200  0.60368  1.0000
  Fe  Fe46      1.0  0.39087  0.23588  0.63431  1.0000
  S   S90       1.0  0.42085  0.23004  0.63067  1.0000
  S   S91       1.0  0.33971  0.25201  0.64052  1.0000
  S   S92       1.0  0.37204  0.22014  0.65473  1.0000
  Fe  Fe47      1.0  0.20541  0.07472  0.61141  1.0000
  S   S93       1.0  0.17615  0.08692  0.61240  1.0000
  S   S94       1.0  0.22514  0.08593  0.58763  1.0000
  Fe  Fe48      1.0  0.19795  0.04511  0.64370  1.0000
  S   S95       1.0  0.16844  0.05524  0.64726  1.0000
  S   S96       1.0  0.20522  0.02015  0.66396  1.0000
  Fe  Fe49      1.0  0.17279  0.05862  0.61763  1.0000
  S   S97       1.0  0.15625  0.04498  0.60825  1.0000
  Fe  Fe50      1.0  0.17467  0.08231  0.64196  1.0000
  S   S98       1.0  0.15662  0.10105  0.65935  1.0000
  S   S99       1.0  0.20207  0.04676  0.61431  1.0000
  S   S100      1.0  0.20411  0.07201  0.64074  1.0000
  Fe  Fe51      1.0  0.14816  0.03986  0.51680  1.0000
  S   S101      1.0  0.15448  0.01151  0.53136  1.0000
  S   S102      1.0  0.14695  0.06365  0.52812  1.0000
  H   H325      1.0  0.20497  0.99445  0.56945  1.0000
  S   S103      1.0  0.15732  0.99950  0.49371  1.0000
  H   H326      1.0  0.29102  0.20980  0.60117  1.0000
  Fe  Fe52      1.0  0.13581  0.00620  0.51721  1.0000
  H   H327      1.0  0.35193  0.17721  0.52342  1.0000
  Fe  Fe53      1.0  0.17532  0.00743  0.50681  1.0000
  S   S104      1.0  0.42963  0.08185  0.50719  1.0000
  S   S105      1.0  0.12740  0.03525  0.50471  1.0000
  C   C257      1.0  0.09273  0.07888  0.49063  1.0000
  H   H328      1.0  0.41969  0.11563  0.55876  1.0000
  C   C258      1.0  0.15461  0.00991  0.64614  1.0000
  S   S106      1.0  0.27121  0.09384  0.50461  1.0000
  H   H329      1.0  0.34718  0.25173  0.58030  1.0000
  C   C259      1.0  0.38649  0.11279  0.51175  1.0000
  H   H330      1.0  0.41512  0.16298  0.57933  1.0000
  S   S107      1.0  0.45815  0.17169  0.58386  1.0000
  H   H331      1.0  0.36074  0.29780  0.66781  1.0000
  C   C260      1.0  0.47191  0.24259  0.58003  1.0000
  H   H332      1.0  0.48292  0.16074  0.51761  1.0000
  H   H333      1.0  0.07492  0.98397  0.69312  1.0000
  H   H334      1.0  0.26564  0.98560  0.50544  1.0000
  S   S108      1.0  0.11540  0.98974  0.53360  1.0000
  C   C261      1.0  0.43111  0.25727  0.66071  1.0000
  H   H335      1.0  0.45123  0.00522  0.56461  1.0000
  H   H336      1.0  0.39530  0.10930  0.52160  1.0000
  C   C262      1.0  0.16511  0.10811  0.67422  1.0000
  C   C263      1.0  0.15318  0.11530  0.68834  1.0000
  C   C264      1.0  0.15944  0.12218  0.69968  1.0000
  C   C265      1.0  0.17762  0.12237  0.69661  1.0000
  C   C266      1.0  0.18958  0.11503  0.68258  1.0000
  C   C267      1.0  0.18340  0.10754  0.67168  1.0000
  H   H337      1.0  0.13900  0.11578  0.69036  1.0000
  H   H338      1.0  0.20365  0.11524  0.68012  1.0000
  H   H339      1.0  0.19270  0.10195  0.66094  1.0000
  C   C268      1.0  0.15336  0.05080  0.58609  1.0000
  C   C269      1.0  0.15659  0.06695  0.57488  1.0000
  C   C270      1.0  0.15394  0.07111  0.55727  1.0000
  C   C271      1.0  0.14879  0.05884  0.55062  1.0000
  C   C272      1.0  0.14558  0.04273  0.56189  1.0000
  C   C273      1.0  0.14773  0.03878  0.57960  1.0000
  H   H340      1.0  0.16070  0.07639  0.57991  1.0000
  H   H341      1.0  0.15588  0.08386  0.54883  1.0000
  H   H342      1.0  0.14101  0.03347  0.55711  1.0000
  H   H343      1.0  0.14502  0.02635  0.58829  1.0000
  C   C274      1.0  0.20352  0.00163  0.65666  1.0000
  C   C275      1.0  0.20905  0.00095  0.63857  1.0000
  H   H344      1.0  0.41807  0.12042  0.49678  1.0000
  H   H345      1.0  0.15386  0.00777  0.63302  1.0000
  C   C276      1.0  0.22123  0.99965  0.50495  1.0000
  H   H346      1.0  0.20814  0.02413  0.71436  1.0000
  H   H347      1.0  0.21566  0.01104  0.62934  1.0000
  S   S109      1.0  0.18577  0.13238  0.70942  1.0000
  H   H348      1.0  0.45667  0.15408  0.51074  1.0000
  H   H349      1.0  0.46065  0.15258  0.54956  1.0000
  H   H350      1.0  0.17363  0.05476  0.69079  1.0000
  H   H351      1.0  0.13423  0.98682  0.66804  1.0000
  H   H352      1.0  0.16286  0.99749  0.65258  1.0000
  C   C277      1.0  0.37312  0.27719  0.71407  1.0000
  C   C278      1.0  0.40960  0.15360  0.57567  1.0000
  C   C279      1.0  0.17511  0.05897  0.70262  1.0000
  N   N19       1.0  0.19297  0.05081  0.70707  1.0000
  H   H353      1.0  0.31300  0.27040  0.61607  1.0000
  C   C280      1.0  0.35461  0.26268  0.69723  1.0000
  C   C281      1.0  0.37298  0.26203  0.69100  1.0000
  C   C282      1.0  0.38217  0.26936  0.69938  1.0000
  H   H354      1.0  0.19149  0.98844  0.68272  1.0000
  H   H355      1.0  0.31071  0.25180  0.71662  1.0000
  H   H356      1.0  0.38018  0.25547  0.68008  1.0000
  H   H357      1.0  0.39636  0.26864  0.69473  1.0000
  C   C283      1.0  0.41234  0.12720  0.56427  1.0000
  C   C284      1.0  0.30332  0.23191  0.59862  1.0000
  C   C285      1.0  0.12091  0.02261  0.70497  1.0000
  S   S110      1.0  0.45032  0.12218  0.50492  1.0000
  H   H358      1.0  0.16582  0.01567  0.67097  1.0000
  C   C286      1.0  0.43129  0.21417  0.61729  1.0000
  C   C287      1.0  0.45000  0.20969  0.61263  1.0000
  C   C288      1.0  0.45843  0.19687  0.60208  1.0000
  C   C289      1.0  0.44813  0.18840  0.59632  1.0000
  C   C290      1.0  0.42943  0.19296  0.60091  1.0000
  C   C291      1.0  0.42102  0.20585  0.61134  1.0000
  H   H359      1.0  0.45799  0.21607  0.61725  1.0000
  H   H360      1.0  0.47286  0.19335  0.59866  1.0000
  H   H361      1.0  0.42142  0.18653  0.59639  1.0000
  H   H362      1.0  0.40659  0.20917  0.61496  1.0000
  C   C292      1.0  0.26551  0.11322  0.59673  1.0000
  C   C293      1.0  0.26479  0.11277  0.57940  1.0000
  C   C294      1.0  0.25265  0.10398  0.57673  1.0000
  C   C295      1.0  0.24137  0.09541  0.59136  1.0000
  C   C296      1.0  0.24264  0.09525  0.60867  1.0000
  C   C297      1.0  0.25455  0.10426  0.61133  1.0000
  H   H363      1.0  0.27318  0.11967  0.56805  1.0000
  H   H364      1.0  0.25181  0.10408  0.56330  1.0000
  H   H365      1.0  0.23434  0.08835  0.62001  1.0000
  H   H366      1.0  0.25518  0.10444  0.62476  1.0000
  C   C298      1.0  0.34222  0.18558  0.58234  1.0000
  C   C299      1.0  0.35312  0.19756  0.58089  1.0000
  C   C300      1.0  0.35344  0.20371  0.59594  1.0000
  C   C301      1.0  0.34246  0.19827  0.61240  1.0000
  C   C302      1.0  0.33171  0.18619  0.61384  1.0000
  C   C303      1.0  0.33169  0.17974  0.59892  1.0000
  H   H367      1.0  0.36127  0.20216  0.56808  1.0000
  H   H368      1.0  0.36202  0.21278  0.59473  1.0000
  H   H369      1.0  0.32306  0.18205  0.62650  1.0000
  H   H370      1.0  0.32296  0.17083  0.60010  1.0000
  C   C304      1.0  0.31620  0.11486  0.51359  1.0000
  C   C305      1.0  0.31679  0.11214  0.49662  1.0000
  C   C306      1.0  0.30306  0.10567  0.49364  1.0000
  C   C307      1.0  0.28867  0.10201  0.50764  1.0000
  C   C308      1.0  0.28801  0.10496  0.52451  1.0000
  C   C309      1.0  0.30174  0.11131  0.52750  1.0000
  C   C310      1.0  0.25353  0.01196  0.49303  1.0000
  C   C311      1.0  0.42090  0.13921  0.56793  1.0000
  H   H371      1.0  0.27688  0.10221  0.53537  1.0000
  H   H372      1.0  0.30111  0.11346  0.54060  1.0000
  C   C312      1.0  0.41159  0.05986  0.56355  1.0000
  C   C313      1.0  0.40828  0.05714  0.58216  1.0000
  C   C314      1.0  0.39406  0.06835  0.59123  1.0000
  C   C315      1.0  0.38275  0.08203  0.58181  1.0000
  C   C316      1.0  0.38583  0.08467  0.56318  1.0000
  C   C317      1.0  0.40040  0.07369  0.55403  1.0000
  H   H373      1.0  0.41679  0.04642  0.58958  1.0000
  H   H374      1.0  0.39165  0.06621  0.60563  1.0000
  H   H375      1.0  0.37698  0.09508  0.55588  1.0000
  H   H376      1.0  0.40264  0.07555  0.53971  1.0000
  H   H377      1.0  0.38260  0.16758  0.58433  1.0000
  S   S111      1.0  0.17029  0.03609  0.49300  1.0000
  C   C318      1.0  0.13690  0.02250  0.70933  1.0000
  H   H378      1.0  0.37559  0.18100  0.53630  1.0000
  C   C319      1.0  0.31902  0.21576  0.72309  1.0000
  C   C320      1.0  0.35832  0.02453  0.49571  1.0000
  H   H379      1.0  0.44630  0.26430  0.62718  1.0000
  C   C321      1.0  0.39368  0.12998  0.56753  1.0000
  H   H380      1.0  0.41294  0.26891  0.63494  1.0000
  C   C322      1.0  0.32200  0.24074  0.56971  1.0000
  C   C323      1.0  0.19493  0.03110  0.71094  1.0000
  H   H381      1.0  0.17299  0.16433  0.67744  1.0000
  C   C324      1.0  0.31798  0.22750  0.56358  1.0000
  C   C325      1.0  0.47407  0.02655  0.55733  1.0000
  H   H382      1.0  0.30400  0.20598  0.57017  1.0000
  N   N20       1.0  0.20685  0.02216  0.56072  1.0000
  C   C326      1.0  0.19315  0.02698  0.54959  1.0000
  C   C327      1.0  0.21497  0.00285  0.56216  1.0000
  C   C328      1.0  0.19748  0.02496  0.57896  1.0000
  C   C329      1.0  0.22090  0.03278  0.55231  1.0000
  C   C330      1.0  0.22506  0.04439  0.56097  1.0000
  C   C331      1.0  0.23110  0.03151  0.53490  1.0000
  C   C332      1.0  0.23843  0.05420  0.55254  1.0000
  C   C333      1.0  0.24443  0.04137  0.52661  1.0000
  C   C334      1.0  0.24798  0.05283  0.53534  1.0000
  H   H383      1.0  0.19872  0.02375  0.53611  1.0000
  H   H384      1.0  0.18208  0.01961  0.55578  1.0000
  H   H385      1.0  0.18702  0.04150  0.54781  1.0000
  H   H386      1.0  0.22043  0.99916  0.54886  1.0000
  H   H387      1.0  0.48582  0.03108  0.55837  1.0000
  C   C335      1.0  0.37752  0.13295  0.48564  1.0000
  H   H388      1.0  0.45233  0.28296  0.59075  1.0000
  Fe  Fe54      1.0  0.27476  0.08257  0.48034  1.0000
  H   H389      1.0  0.20681  0.02064  0.58837  1.0000
  H   H390      1.0  0.21824  0.04622  0.57427  1.0000
  H   H391      1.0  0.22899  0.02269  0.52763  1.0000
  H   H392      1.0  0.24135  0.06305  0.55936  1.0000
  H   H393      1.0  0.25224  0.03995  0.51342  1.0000
  H   H394      1.0  0.25822  0.06060  0.52880  1.0000
  H   H395      1.0  0.38665  0.01904  0.49021  1.0000
  H   H396      1.0  0.31800  0.28597  0.58637  1.0000
  H   H397      1.0  0.37329  0.07236  0.51305  1.0000
  H   H398      1.0  0.46144  0.13197  0.57892  1.0000
  H   H399      1.0  0.30351  0.10362  0.48055  1.0000
  Fe  Fe55      1.0  0.44280  0.05896  0.52573  1.0000
  C   C336      1.0  0.20692  0.05560  0.69108  1.0000
  C   C337      1.0  0.31465  0.24350  0.58739  1.0000
  C   C338      1.0  0.45042  0.12247  0.55451  1.0000
  H   H400      1.0  0.38741  0.12074  0.56456  1.0000
  C   C339      1.0  0.36520  0.16881  0.52100  1.0000
  H   H401      1.0  0.43247  0.24693  0.65292  1.0000
  H   H402      1.0  0.36857  0.14697  0.57642  1.0000
  C   C340      1.0  0.29936  0.21876  0.59231  1.0000
  C   C341      1.0  0.33869  0.25288  0.59370  1.0000
  C   C342      1.0  0.46876  0.14392  0.51138  1.0000
  H   H403      1.0  0.34283  0.26320  0.59810  1.0000
  S   S112      1.0  0.46532  0.07179  0.52424  1.0000
  H   H404      1.0  0.32947  0.22260  0.71366  1.0000
  H   H405      1.0  0.46385  0.02774  0.56987  1.0000
  C   C343      1.0  0.07983  0.99226  0.71485  1.0000
  C   C344      1.0  0.37850  0.17089  0.52840  1.0000
  C   C345      1.0  0.42657  0.28639  0.67771  1.0000
  C   C346      1.0  0.48543  0.11415  0.50853  1.0000
  C   C347      1.0  0.15291  0.01981  0.69690  1.0000
  H   H406      1.0  0.41060  0.11660  0.47936  1.0000
  C   C348      1.0  0.19574  0.98797  0.66871  1.0000
  H   H407      1.0  0.32413  0.22524  0.55021  1.0000
  C   C349      1.0  0.36862  0.15548  0.51121  1.0000
  H   H408      1.0  0.46514  0.12190  0.55091  1.0000
  H   H409      1.0  0.12799  0.99610  0.64680  1.0000
  H   H410      1.0  0.20690  0.04947  0.67991  1.0000
  C   C350      1.0  0.34276  0.02382  0.49098  1.0000
  H   H411      1.0  0.41190  0.13743  0.51572  1.0000
  H   H412      1.0  0.32792  0.11494  0.48582  1.0000
  H   H413      1.0  0.46445  0.99021  0.54989  1.0000
  H   H414      1.0  0.44063  0.16530  0.55988  1.0000
  S   S113      1.0  0.25280  0.06945  0.48042  1.0000
  H   H415      1.0  0.11325  0.00207  0.66638  1.0000
  H   H416      1.0  0.48291  0.28690  0.58167  1.0000
  H   H417      1.0  0.19416  0.02632  0.69920  1.0000
  Fe  Fe56      1.0  0.47947  0.05789  0.50161  1.0000
  H   H418      1.0  0.32379  0.27546  0.56786  1.0000
  S   S114      1.0  0.45758  0.04323  0.50463  1.0000
  Fe  Fe57      1.0  0.45371  0.09339  0.50355  1.0000
  H   H419      1.0  0.33125  0.24853  0.56061  1.0000
  H   H420      1.0  0.44472  0.25460  0.59039  1.0000
  H   H421      1.0  0.30105  0.27863  0.58028  1.0000
  H   H422      1.0  0.34212  0.23988  0.60294  1.0000
  C   C351      1.0  0.44670  0.13306  0.58123  1.0000
  N   N21       1.0  0.31932  0.25747  0.59363  1.0000
  C   C352      1.0  0.37564  0.31503  0.64707  1.0000
  C   C353      1.0  0.44584  0.15385  0.55303  1.0000
  N   N22       1.0  0.19541  0.08567  0.49945  1.0000
  C   C354      1.0  0.29967  0.24475  0.72409  1.0000
  C   C355      1.0  0.19770  0.06605  0.50177  1.0000
  C   C356      1.0  0.17602  0.09385  0.50240  1.0000
  C   C357      1.0  0.20350  0.08956  0.51256  1.0000
  C   C358      1.0  0.19744  0.08344  0.53114  1.0000
  C   C359      1.0  0.21729  0.09949  0.50751  1.0000
  C   C360      1.0  0.20434  0.08743  0.54387  1.0000
  C   C361      1.0  0.22420  0.10327  0.52036  1.0000
  C   C362      1.0  0.21774  0.09729  0.53848  1.0000
  H   H423      1.0  0.18406  0.02663  0.72204  1.0000
  H   H424      1.0  0.48627  0.10119  0.50590  1.0000
  H   H425      1.0  0.38058  0.07539  0.48089  1.0000
  H   H426      1.0  0.18958  0.06009  0.51458  1.0000
  H   H427      1.0  0.21200  0.05925  0.50136  1.0000
  C   C363      1.0  0.35408  0.07337  0.47841  1.0000
  H   H428      1.0  0.17375  0.10863  0.50045  1.0000
  H   H429      1.0  0.16931  0.09070  0.49318  1.0000
  H   H430      1.0  0.16881  0.08893  0.51609  1.0000
  H   H431      1.0  0.18729  0.07552  0.53593  1.0000
  H   H432      1.0  0.22316  0.10435  0.49374  1.0000
  H   H433      1.0  0.19950  0.08267  0.55801  1.0000
  H   H434      1.0  0.23485  0.11070  0.51626  1.0000
  H   H435      1.0  0.22334  0.10008  0.54836  1.0000
  N   N23       1.0  0.13657  0.01421  0.65759  1.0000
  C   C364      1.0  0.12763  0.99922  0.65982  1.0000
  C   C365      1.0  0.12641  0.03072  0.64792  1.0000
  C   C366      1.0  0.46285  0.27203  0.58670  1.0000
  C   C367      1.0  0.13698  0.01688  0.67530  1.0000
  H   H436      1.0  0.40547  0.16098  0.53226  1.0000
  H   H437      1.0  0.16531  0.01987  0.70023  1.0000
  C   C368      1.0  0.46202  0.00387  0.55249  1.0000
  C   C369      1.0  0.42746  0.30769  0.64953  1.0000
  C   C370      1.0  0.45852  0.25620  0.58627  1.0000
  Fe  Fe58      1.0  0.44594  0.06722  0.48556  1.0000
  H   H438      1.0  0.20895  0.02604  0.49259  1.0000
  C   C371      1.0  0.36326  0.07180  0.50624  1.0000
  H   H439      1.0  0.12610  0.02944  0.63433  1.0000
  H   H440      1.0  0.31217  0.21204  0.71438  1.0000
  H   H441      1.0  0.11228  0.03415  0.65505  1.0000
  C   C372      1.0  0.08052  0.09338  0.49654  1.0000
  H   H442      1.0  0.45730  0.27393  0.63852  1.0000
  H   H443      1.0  0.10842  0.02473  0.71466  1.0000
  C   C373      1.0  0.38576  0.14399  0.50824  1.0000
  H   H444      1.0  0.44087  0.15771  0.54038  1.0000
  H   H445      1.0  0.19329  0.06253  0.49109  1.0000
  C   C374      1.0  0.23724  0.98843  0.50866  1.0000
  H   H446      1.0  0.08281  0.09869  0.50688  1.0000
  H   H447      1.0  0.35745  0.15407  0.50660  1.0000
  C   C375      1.0  0.30662  0.21660  0.57482  1.0000
  H   H448      1.0  0.13265  0.04233  0.64614  1.0000
  H   H449      1.0  0.10811  0.01989  0.68563  1.0000
  N   N24       1.0  0.44061  0.13707  0.56418  1.0000
  H   H450      1.0  0.44604  0.12447  0.54176  1.0000
  C   C376      1.0  0.39527  0.15957  0.52616  1.0000
  H   H451      1.0  0.34311  0.06885  0.53041  1.0000
  H   H452      1.0  0.19297  0.08525  0.70774  1.0000
  H   H453      1.0  0.44849  0.10911  0.56264  1.0000
  H   H454      1.0  0.44042  0.14378  0.58895  1.0000
  H   H455      1.0  0.44339  0.12036  0.58986  1.0000
  N   N25       1.0  0.19975  0.13863  0.61684  1.0000
  C   C377      1.0  0.21837  0.14070  0.60806  1.0000
  C   C378      1.0  0.19973  0.11927  0.62172  1.0000
  C   C379      1.0  0.18839  0.14730  0.60344  1.0000
  C   C380      1.0  0.19255  0.14636  0.63306  1.0000
  C   C381      1.0  0.17445  0.14669  0.64212  1.0000
  C   C382      1.0  0.20321  0.15304  0.64073  1.0000
  C   C383      1.0  0.16744  0.15347  0.65770  1.0000
  C   C384      1.0  0.19609  0.15960  0.65646  1.0000
  C   C385      1.0  0.17826  0.15984  0.66490  1.0000
  H   H456      1.0  0.22795  0.13360  0.61697  1.0000
  H   H457      1.0  0.22341  0.13481  0.59589  1.0000
  H   H458      1.0  0.21938  0.15500  0.60390  1.0000
  H   H459      1.0  0.20851  0.11222  0.63142  1.0000
  H   H460      1.0  0.20470  0.11295  0.60984  1.0000
  H   H461      1.0  0.18612  0.11654  0.62797  1.0000
  H   H462      1.0  0.17473  0.14435  0.60801  1.0000
  H   H463      1.0  0.18698  0.16207  0.60038  1.0000
  H   H464      1.0  0.19414  0.14249  0.59069  1.0000
  H   H465      1.0  0.16571  0.14107  0.63766  1.0000
  H   H466      1.0  0.21719  0.15306  0.63508  1.0000
  H   H467      1.0  0.20453  0.16412  0.66245  1.0000
  N   N26       1.0  0.36630  0.12942  0.63184  1.0000
  C   C386      1.0  0.37656  0.11359  0.62417  1.0000
  C   C387      1.0  0.35862  0.12284  0.65090  1.0000
  C   C388      1.0  0.35138  0.13805  0.62234  1.0000
  C   C389      1.0  0.37725  0.14249  0.63051  1.0000
  C   C390      1.0  0.39606  0.13956  0.62357  1.0000
  C   C391      1.0  0.36922  0.15850  0.63693  1.0000
  C   C392      1.0  0.40612  0.15169  0.62369  1.0000
  C   C393      1.0  0.37943  0.17048  0.63698  1.0000
  C   C394      1.0  0.39784  0.16699  0.63057  1.0000
  H   H468      1.0  0.38209  0.11746  0.60960  1.0000
  H   H469      1.0  0.38761  0.10591  0.63111  1.0000
  H   H470      1.0  0.36792  0.10401  0.62549  1.0000
  H   H471      1.0  0.36938  0.11660  0.65865  1.0000
  H   H472      1.0  0.35056  0.11267  0.65249  1.0000
  H   H473      1.0  0.34952  0.13373  0.65734  1.0000
  H   H474      1.0  0.34151  0.14853  0.62878  1.0000
  H   H475      1.0  0.35643  0.14445  0.60831  1.0000
  H   H476      1.0  0.34370  0.12822  0.62198  1.0000
  H   H477      1.0  0.40332  0.12799  0.61805  1.0000
  H   H478      1.0  0.35497  0.16189  0.64212  1.0000
  H   H479      1.0  0.42048  0.14921  0.61861  1.0000
  H   H480      1.0  0.37300  0.18254  0.64211  1.0000
  H   H481      1.0  0.40569  0.17617  0.63099  1.0000
  C   C395      1.0  0.48690  0.99579  0.56882  1.0000
  C   C396      1.0  0.23745  0.02347  0.48957  1.0000
  S   S115      1.0  0.46926  0.08064  0.48040  1.0000
  C   C397      1.0  0.33340  0.06871  0.50751  1.0000
  H   H482      1.0  0.44317  0.28785  0.62360  1.0000
  H   H483      1.0  0.20489  0.07023  0.68564  1.0000
  H   H484      1.0  0.46841  0.03627  0.54628  1.0000
  H   H485      1.0  0.19087  0.03921  0.57887  1.0000
  C   C398      1.0  0.36721  0.07362  0.48766  1.0000
  H   H486      1.0  0.35731  0.03026  0.50706  1.0000
  H   H487      1.0  0.05594  0.11233  0.49380  1.0000
  N   N27       1.0  0.47868  0.00809  0.55419  1.0000
  H   H488      1.0  0.22052  0.05095  0.69421  1.0000
  C   C399      1.0  0.44466  0.27544  0.63405  1.0000
  H   H489      1.0  0.41058  0.29233  0.63313  1.0000
  Fe  Fe59      1.0  0.48752  0.16952  0.57173  1.0000
  C   C400      1.0  0.08477  0.98339  0.70064  1.0000
  H   H490      1.0  0.18666  0.01721  0.58483  1.0000
  C   C401      1.0  0.39096  0.15631  0.57871  1.0000
  H   H491      1.0  0.32009  0.06736  0.51518  1.0000
  C   C402      1.0  0.12089  0.01979  0.68827  1.0000
  C   C403      1.0  0.31533  0.27509  0.58149  1.0000
  H   H492      1.0  0.21084  0.98648  0.61841  1.0000
  H   H493      1.0  0.42076  0.28280  0.59961  1.0000
  H   H494      1.0  0.37240  0.11432  0.51948  1.0000
  C   C404      1.0  0.37517  0.01794  0.48589  1.0000
  C   C405      1.0  0.15302  0.01720  0.68007  1.0000
  H   H495      1.0  0.42348  0.29737  0.70080  1.0000
  H   H496      1.0  0.16422  0.05502  0.71396  1.0000
  H   H497      1.0  0.40058  0.27922  0.65353  1.0000
  C   C406      1.0  0.40852  0.29268  0.59878  1.0000
  H   H498      1.0  0.44322  0.25373  0.66659  1.0000
  C   C407      1.0  0.48358  0.14768  0.51529  1.0000
  C   C408      1.0  0.39266  0.28710  0.60053  1.0000
  H   H499      1.0  0.41162  0.13901  0.47958  1.0000
  C   C409      1.0  0.30948  0.25953  0.61194  1.0000
  C   C410      1.0  0.06540  0.10102  0.48915  1.0000
  H   H500      1.0  0.29474  0.26293  0.61289  1.0000
  H   H501      1.0  0.29763  0.23244  0.61246  1.0000
  H   H502      1.0  0.46845  0.23051  0.57912  1.0000
  H   H503      1.0  0.40929  0.99502  0.48105  1.0000
  H   H504      1.0  0.39289  0.27303  0.60252  1.0000
  H   H505      1.0  0.22615  0.99891  0.56945  1.0000
  H   H506      1.0  0.31290  0.24714  0.62204  1.0000
  C   C411      1.0  0.34632  0.06961  0.51610  1.0000
  C   C412      1.0  0.41259  0.27916  0.64244  1.0000
  H   H507      1.0  0.42653  0.27327  0.68609  1.0000
  C   C413      1.0  0.37661  0.29961  0.59972  1.0000
  H   H508      1.0  0.29282  0.24334  0.71406  1.0000
  C   C414      1.0  0.36683  0.30936  0.66452  1.0000
  H   H509      1.0  0.20173  0.10751  0.47762  1.0000
  H   H510      1.0  0.41912  0.25577  0.67160  1.0000
  S   S116      1.0  0.20164  0.99093  0.51273  1.0000
  H   H511      1.0  0.15012  0.12793  0.71038  1.0000
  C   C415      1.0  0.35475  0.27793  0.72018  1.0000
  N   N28       1.0  0.42913  0.27555  0.64936  1.0000
  H   H512      1.0  0.17259  0.07382  0.69937  1.0000
  H   H513      1.0  0.36342  0.13241  0.49244  1.0000
  C   C416      1.0  0.42491  0.30021  0.68639  1.0000
  H   H514      1.0  0.15376  0.15304  0.66471  1.0000
  N   N29       1.0  0.38940  0.12934  0.49852  1.0000
  H   H515      1.0  0.38924  0.10121  0.50523  1.0000
  C   C417      1.0  0.25329  0.99452  0.50269  1.0000
  H   H516      1.0  0.33127  0.27154  0.71651  1.0000
  C   C418      1.0  0.42797  0.28972  0.65893  1.0000
  H   H517      1.0  0.45639  0.01334  0.54123  1.0000
  H   H518      1.0  0.16191  0.02098  0.64287  1.0000
  H   H519      1.0  0.37629  0.30799  0.63678  1.0000
  Fe  Fe60      1.0  0.15017  0.02890  0.48205  1.0000
  C   C419      1.0  0.46957  0.12707  0.50824  1.0000
  H   H520      1.0  0.32972  0.02892  0.49863  1.0000
  C   C420      1.0  0.39885  0.14617  0.51644  1.0000
  C   C421      1.0  0.20649  0.98693  0.63243  1.0000
  C   C422      1.0  0.48063  0.27412  0.58142  1.0000
  C   C423      1.0  0.34549  0.27091  0.71165  1.0000
  S   S117      1.0  0.27423  0.01865  0.48571  1.0000
  C   C424      1.0  0.22127  0.01728  0.49548  1.0000
  S   S118      1.0  0.38502  0.28580  0.72467  1.0000
  H   H521      1.0  0.48584  0.01664  0.52549  1.0000
  C   C425      1.0  0.20334  0.09273  0.48056  1.0000
  C   C426      1.0  0.33720  0.07046  0.48898  1.0000
  H   H522      1.0  0.32658  0.07005  0.48294  1.0000
  C   C427      1.0  0.19464  0.07597  0.72008  1.0000
  C   C428      1.0  0.40848  0.31080  0.59654  1.0000
  H   H523      1.0  0.13684  0.02460  0.72235  1.0000
  H   H524      1.0  0.23755  0.03700  0.48221  1.0000
  H   H525      1.0  0.06622  0.99958  0.71822  1.0000
  H   H526      1.0  0.10451  0.07298  0.49639  1.0000
  C   C429      1.0  0.09231  0.99170  0.72474  1.0000
  H   H527      1.0  0.42789  0.31140  0.63531  1.0000
  H   H528      1.0  0.35821  0.31394  0.69095  1.0000
  C   C430      1.0  0.19474  0.05762  0.72214  1.0000
  C   C431      1.0  0.40815  0.12631  0.48813  1.0000
  H   H529      1.0  0.03435  0.14638  0.85680  1.0000
  C   C432      1.0  0.31596  0.23273  0.77806  1.0000
  Fe  Fe61      1.0  0.36799  0.29885  0.74735  1.0000
  H   H530      1.0  0.39490  0.30992  0.95114  1.0000
  C   C433      1.0  0.19638  0.04656  0.73919  1.0000
  S   S119      1.0  0.28167  0.30438  0.88022  1.0000
  C   C434      1.0  0.29941  0.27981  0.94457  1.0000
  H   H531      1.0  0.33525  0.27358  0.81949  1.0000
  H   H532      1.0  0.32637  0.30408  0.93328  1.0000
  C   C435      1.0  0.09663  0.12683  0.78035  1.0000
  H   H533      1.0  0.03108  0.09118  0.83578  1.0000
  S   S120      1.0  0.36127  0.28545  0.77622  1.0000
  C   C436      1.0  0.01826  0.30692  0.83618  1.0000
  H   H534      1.0  0.16824  0.17001  0.83443  1.0000
  H   H535      1.0  0.48084  0.27065  0.96631  1.0000
  H   H536      1.0  0.06059  0.15596  0.83504  1.0000
  C   C437      1.0  0.31392  0.27653  0.96929  1.0000
  H   H537      1.0  0.14337  0.15205  0.82638  1.0000
  H   H538      1.0  0.16771  0.28192  0.91981  1.0000
  H   H539      1.0  0.20790  0.31072  0.85648  1.0000
  S   S121      1.0  0.18297  0.12310  0.75948  1.0000
  Fe  Fe62      1.0  0.13711  0.15544  0.76066  1.0000
  S   S122      1.0  0.14828  0.14267  0.78529  1.0000
  S   S123      1.0  0.10990  0.17387  0.76173  1.0000
  Fe  Fe63      1.0  0.17410  0.14944  0.76829  1.0000
  S   S124      1.0  0.19323  0.15886  0.77906  1.0000
  Fe  Fe64      1.0  0.15590  0.11786  0.77400  1.0000
  S   S125      1.0  0.15057  0.09172  0.79190  1.0000
  H   H540      1.0  0.19586  0.03259  0.74236  1.0000
  S   S126      1.0  0.14293  0.13014  0.75044  1.0000
  S   S127      1.0  0.10390  0.02612  0.76881  1.0000
  S   S128      1.0  0.15193  0.03140  0.75217  1.0000
  S   S129      1.0  0.08404  0.02551  0.81975  1.0000
  Fe  Fe65      1.0  0.19974  0.24795  0.80073  1.0000
  S   S130      1.0  0.20927  0.26970  0.77841  1.0000
  S   S131      1.0  0.17854  0.23550  0.79677  1.0000
  Fe  Fe66      1.0  0.22019  0.25382  0.82563  1.0000
  S   S132      1.0  0.23116  0.27563  0.80527  1.0000
  S   S133      1.0  0.22936  0.24785  0.85162  1.0000
  Fe  Fe67      1.0  0.20372  0.28538  0.79974  1.0000
  C   C438      1.0  0.31537  0.23015  0.74797  1.0000
  Fe  Fe68      1.0  0.23604  0.25812  0.78586  1.0000
  S   S134      1.0  0.26184  0.25791  0.76527  1.0000
  S   S135      1.0  0.19198  0.26482  0.82170  1.0000
  S   S136      1.0  0.22716  0.23501  0.80664  1.0000
  C   C439      1.0  0.02789  0.15693  0.81421  1.0000
  Fe  Fe69      1.0  0.09588  0.29764  0.87531  1.0000
  H   H541      1.0  0.07094  0.07586  0.77395  1.0000
  S   S137      1.0  0.09700  0.27026  0.87126  1.0000
  C   C440      1.0  0.07067  0.10397  0.82806  1.0000
  H   H542      1.0  0.01968  0.12307  0.83415  1.0000
  H   H543      1.0  0.14889  0.29117  0.80126  1.0000
  C   C441      1.0  0.05259  0.16007  0.82444  1.0000
  Fe  Fe70      1.0  0.00361  0.21346  0.85340  1.0000
  S   S138      1.0  0.02041  0.20918  0.82671  1.0000
  H   H544      1.0  0.02653  0.29483  0.83111  1.0000
  Fe  Fe71      1.0  0.02084  0.24359  0.85366  1.0000
  S   S139      1.0  0.03917  0.24197  0.82707  1.0000
  S   S140      1.0  0.01960  0.26492  0.86807  1.0000
  Fe  Fe72      1.0  0.01493  0.23919  0.81910  1.0000
  Fe  Fe73      1.0  0.04297  0.21227  0.83729  1.0000
  S   S141      1.0  0.06940  0.19272  0.83659  1.0000
  S   S142      1.0  0.99629  0.24318  0.84495  1.0000
  S   S143      1.0  0.02654  0.21418  0.86472  1.0000
  H   H545      1.0  0.16769  0.29956  0.82136  1.0000
  H   H546      1.0  0.35094  0.27493  0.85957  1.0000
  C   C442      1.0  0.34028  0.23963  0.75366  1.0000
  C   C443      1.0  0.04123  0.26646  0.86835  1.0000
  C   C444      1.0  0.04375  0.28149  0.87274  1.0000
  C   C445      1.0  0.06082  0.28264  0.87377  1.0000
  C   C446      1.0  0.07549  0.26879  0.87025  1.0000
  C   C447      1.0  0.07296  0.25375  0.86582  1.0000
  C   C448      1.0  0.05587  0.25261  0.86475  1.0000
  H   H547      1.0  0.03246  0.29217  0.87547  1.0000
  H   H548      1.0  0.06250  0.29413  0.87760  1.0000
  H   H549      1.0  0.08417  0.24301  0.86320  1.0000
  H   H550      1.0  0.05397  0.24089  0.86146  1.0000
  H   H551      1.0  0.27559  0.30045  0.94384  1.0000
  C   C449      1.0  0.48143  0.29300  0.94404  1.0000
  H   H552      1.0  0.15574  0.30070  0.92926  1.0000
  H   H553      1.0  0.99931  0.30624  0.94237  1.0000
  H   H554      1.0  0.00087  0.22125  0.79589  1.0000
  H   H555      1.0  0.99779  0.28743  0.93495  1.0000
  H   H556      1.0  0.34767  0.28353  0.73171  1.0000
  S   S144      1.0  0.08512  0.00334  0.74233  1.0000
  H   H557      1.0  0.14627  0.22334  0.85434  1.0000
  S   S145      1.0  0.37674  0.30626  0.80746  1.0000
  C   C450      1.0  0.22932  0.26717  0.85872  1.0000
  C   C451      1.0  0.24125  0.26649  0.86936  1.0000
  C   C452      1.0  0.24165  0.28191  0.87480  1.0000
  H   H558      1.0  0.25305  0.29651  0.83519  1.0000
  H   H559      1.0  0.05911  0.10245  0.78313  1.0000
  C   C453      1.0  0.21741  0.28322  0.85396  1.0000
  H   H560      1.0  0.25033  0.25405  0.87319  1.0000
  H   H561      1.0  0.25112  0.28137  0.88274  1.0000
  H   H562      1.0  0.46857  0.29277  0.94173  1.0000
  H   H563      1.0  0.20808  0.28379  0.84586  1.0000
  C   C454      1.0  0.19058  0.18122  0.78091  1.0000
  C   C455      1.0  0.17583  0.19437  0.77652  1.0000
  C   C456      1.0  0.17275  0.21132  0.78068  1.0000
  C   C457      1.0  0.18448  0.21530  0.78901  1.0000
  C   C458      1.0  0.19973  0.20246  0.79253  1.0000
  C   C459      1.0  0.20270  0.18546  0.78856  1.0000
  H   H564      1.0  0.16652  0.19130  0.77044  1.0000
  H   H565      1.0  0.16106  0.22126  0.77772  1.0000
  H   H566      1.0  0.20884  0.20535  0.79897  1.0000
  H   H567      1.0  0.21416  0.17536  0.79196  1.0000
  C   C460      1.0  0.15137  0.07498  0.78067  1.0000
  C   C461      1.0  0.14857  0.05814  0.79056  1.0000
  C   C462      1.0  0.14835  0.04484  0.78189  1.0000
  C   C463      1.0  0.15134  0.04820  0.76326  1.0000
  C   C464      1.0  0.15409  0.06507  0.75339  1.0000
  C   C465      1.0  0.15409  0.07843  0.76207  1.0000
  H   H568      1.0  0.14649  0.05540  0.80497  1.0000
  H   H569      1.0  0.14630  0.03186  0.78961  1.0000
  S   S146      1.0  0.99928  0.05131  0.83100  1.0000
  H   H570      1.0  0.15635  0.09134  0.75431  1.0000
  C   C466      1.0  0.09841  0.17884  0.78260  1.0000
  C   C467      1.0  0.08471  0.19415  0.78342  1.0000
  C   C468      1.0  0.07561  0.19853  0.79997  1.0000
  C   C469      1.0  0.08022  0.18758  0.81571  1.0000
  C   C470      1.0  0.09346  0.17199  0.81494  1.0000
  C   C471      1.0  0.10249  0.16760  0.79843  1.0000
  H   H571      1.0  0.08132  0.20276  0.77121  1.0000
  H   H572      1.0  0.06520  0.21048  0.80050  1.0000
  H   H573      1.0  0.09647  0.16312  0.82715  1.0000
  H   H574      1.0  0.11236  0.15536  0.79801  1.0000
  C   C472      1.0  0.02295  0.04518  0.82755  1.0000
  C   C473      1.0  0.03232  0.03525  0.81439  1.0000
  C   C474      1.0  0.05105  0.02944  0.81165  1.0000
  C   C475      1.0  0.06058  0.03329  0.82228  1.0000
  C   C476      1.0  0.05129  0.04334  0.83537  1.0000
  C   C477      1.0  0.03255  0.04937  0.83793  1.0000
  H   H575      1.0  0.14019  0.15760  0.84781  1.0000
  H   H576      1.0  0.16893  0.18673  0.81407  1.0000
  H   H577      1.0  0.05854  0.04622  0.84377  1.0000
  H   H578      1.0  0.02547  0.05681  0.84824  1.0000
  C   C478      1.0  0.07739  0.07066  0.78572  1.0000
  H   H579      1.0  0.25834  0.30995  0.78547  1.0000
  C   C479      1.0  0.19805  0.05357  0.75305  1.0000
  H   H580      1.0  0.05257  0.13462  0.77956  1.0000
  H   H581      1.0  0.99572  0.29042  0.81041  1.0000
  C   C480      1.0  0.10896  0.20987  0.85417  1.0000
  C   C481      1.0  0.11965  0.21913  0.85824  1.0000
  C   C482      1.0  0.99110  0.29627  0.84164  1.0000
  C   C483      1.0  0.13750  0.18648  0.80814  1.0000
  Fe  Fe74      1.0  0.09962  0.01126  0.79719  1.0000
  H   H582      1.0  0.13725  0.31341  0.83576  1.0000
  H   H583      1.0  0.33857  0.29980  0.96024  1.0000
  C   C484      1.0  0.29952  0.27954  0.78524  1.0000
  C   C485      1.0  0.30013  0.28273  0.76691  1.0000
  C   C486      1.0  0.28883  0.27573  0.76066  1.0000
  C   C487      1.0  0.27686  0.26573  0.77277  1.0000
  C   C488      1.0  0.27679  0.26206  0.79099  1.0000
  C   C489      1.0  0.28819  0.26883  0.79718  1.0000
  H   H584      1.0  0.30891  0.29095  0.75761  1.0000
  H   H585      1.0  0.28898  0.27857  0.74654  1.0000
  H   H586      1.0  0.26800  0.25387  0.80035  1.0000
  H   H587      1.0  0.28802  0.26589  0.81133  1.0000
  H   H588      1.0  0.31545  0.30194  0.82395  1.0000
  Fe  Fe75      1.0  0.33384  0.30228  0.77558  1.0000
  H   H589      1.0  0.25608  0.28853  0.81520  1.0000
  C   C490      1.0  0.11662  0.19729  0.84335  1.0000
  C   C491      1.0  0.13539  0.19319  0.83669  1.0000
  H   H590      1.0  0.19890  0.07713  0.76133  1.0000
  H   H591      1.0  0.02499  0.03193  0.80632  1.0000
  C   C492      1.0  0.03309  0.30642  0.92967  1.0000
  H   H592      1.0  0.34907  0.26108  0.83517  1.0000
  Fe  Fe76      1.0  0.28212  0.29805  0.90950  1.0000
  S   S147      1.0  0.12901  0.99997  0.79676  1.0000
  H   H593      1.0  0.12274  0.18887  0.80971  1.0000
  Fe  Fe77      1.0  0.36711  0.30926  0.78228  1.0000
  S   S148      1.0  0.33989  0.31397  0.74619  1.0000
  H   H594      1.0  0.35382  0.29526  0.84402  1.0000
  H   H595      1.0  0.99927  0.28337  0.83832  1.0000
  H   H596      1.0  0.10763  0.19095  0.84011  1.0000
  N   N30       1.0  0.13011  0.27390  0.81503  1.0000
  C   C493      1.0  0.11653  0.28996  0.81944  1.0000
  C   C494      1.0  0.13922  0.26548  0.83018  1.0000
  C   C495      1.0  0.12155  0.26066  0.81198  1.0000
  C   C496      1.0  0.10538  0.25665  0.82344  1.0000
  C   C497      1.0  0.12937  0.25073  0.79826  1.0000
  C   C498      1.0  0.09707  0.24426  0.82074  1.0000
  C   C499      1.0  0.12097  0.23832  0.79570  1.0000
  C   C500      1.0  0.10482  0.23515  0.80686  1.0000
  H   H597      1.0  0.09655  0.98636  0.82629  1.0000
  N   N31       1.0  0.18410  0.30003  0.91964  1.0000
  H   H598      1.0  0.01133  0.28433  0.95097  1.0000
  H   H599      1.0  0.35282  0.24417  0.74861  1.0000
  H   H600      1.0  0.12965  0.26101  0.84262  1.0000
  C   C501      1.0  0.34290  0.27481  0.82891  1.0000
  H   H601      1.0  0.14205  0.25224  0.78938  1.0000
  H   H602      1.0  0.08458  0.24164  0.82952  1.0000
  H   H603      1.0  0.12704  0.23114  0.78494  1.0000
  H   H604      1.0  0.09831  0.22555  0.80482  1.0000
  C   C502      1.0  0.04042  0.09991  0.83325  1.0000
  N   N32       1.0  0.03857  0.14945  0.82831  1.0000
  H   H605      1.0  0.08041  0.99506  0.85525  1.0000
  C   C503      1.0  0.48829  0.28058  0.95791  1.0000
  C   C504      1.0  0.34349  0.28781  0.85289  1.0000
  H   H606      1.0  0.02210  0.17146  0.81351  1.0000
  C   C505      1.0  0.00179  0.31529  0.81260  1.0000
  H   H607      1.0  0.13785  0.28537  0.78706  1.0000
  H   H608      1.0  0.19875  0.04505  0.76609  1.0000
  Fe  Fe78      1.0  0.13283  0.01341  0.76773  1.0000
  H   H609      1.0  0.16188  0.31008  0.95125  1.0000
  Fe  Fe79      1.0  0.10212  0.00109  0.76179  1.0000
  H   H610      1.0  0.12237  0.16420  0.83581  1.0000
  S   S149      1.0  0.29890  0.27439  0.92453  1.0000
  H   H611      1.0  0.12906  0.98287  0.84007  1.0000
  H   H612      1.0  0.17018  0.28266  0.94144  1.0000
  C   C506      1.0  0.05231  0.27282  0.92102  1.0000
  H   H613      1.0  0.35395  0.28148  0.82054  1.0000
  H   H614      1.0  0.09459  0.21251  0.85923  1.0000
  H   H615      1.0  0.14359  0.17702  0.79890  1.0000
  H   H616      1.0  0.05964  0.28091  0.92420  1.0000
  C   C507      1.0  0.06601  0.12720  0.78056  1.0000
  C   C508      1.0  0.19808  0.07165  0.75043  1.0000
  C   C509      1.0  0.30752  0.22885  0.76645  1.0000
  H   H617      1.0  0.09953  0.08228  0.75523  1.0000
  H   H618      1.0  0.11019  0.06121  0.76704  1.0000
  C   C510      1.0  0.33220  0.23827  0.77165  1.0000
  H   H619      1.0  0.00040  0.29684  0.77834  1.0000
  H   H620      1.0  0.06349  0.07847  0.83245  1.0000
  H   H621      1.0  0.07646  0.25281  0.91648  1.0000
  H   H622      1.0  0.11466  0.10170  0.78217  1.0000
  H   H623      1.0  0.04467  0.30976  0.91891  1.0000
  C   C511      1.0  0.30088  0.29069  0.97523  1.0000
  C   C512      1.0  0.28700  0.29902  0.96605  1.0000
  H   H624      1.0  0.01765  0.30404  0.85080  1.0000
  H   H625      1.0  0.29482  0.20563  0.75305  1.0000
  C   C513      1.0  0.99936  0.30305  0.80350  1.0000
  H   H626      1.0  0.14975  0.25355  0.82724  1.0000
  H   H627      1.0  0.03802  0.29913  0.94207  1.0000
  H   H628      1.0  0.27971  0.22721  0.75137  1.0000
  H   H629      1.0  0.10973  0.00062  0.84032  1.0000
  H   H630      1.0  0.06178  0.23290  0.90838  1.0000
  H   H631      1.0  0.10702  0.13400  0.77913  1.0000
  H   H632      1.0  0.12277  0.30102  0.81946  1.0000
  C   C514      1.0  0.16879  0.29095  0.92800  1.0000
  C   C515      1.0  0.04580  0.13011  0.82896  1.0000
  C   C516      1.0  0.06442  0.12240  0.82681  1.0000
  H   H633      1.0  0.05802  0.02173  0.80151  1.0000
  H   H634      1.0  0.14156  0.19940  0.80136  1.0000
  H   H635      1.0  0.06178  0.15906  0.81129  1.0000
  H   H636      1.0  0.01641  0.15040  0.81651  1.0000
  H   H637      1.0  0.01521  0.14560  0.84918  1.0000
  H   H638      1.0  0.07445  0.13028  0.82421  1.0000
  H   H639      1.0  0.16012  0.20170  0.83563  1.0000
  C   C517      1.0  0.18101  0.31084  0.90200  1.0000
  C   C518      1.0  0.02687  0.15208  0.84580  1.0000
  H   H640      1.0  0.30519  0.27613  0.83187  1.0000
  C   C519      1.0  0.03402  0.11827  0.83221  1.0000
  C   C520      1.0  0.13801  0.21593  0.85137  1.0000
  C   C521      1.0  0.00719  0.29335  0.93874  1.0000
  H   H641      1.0  0.40121  0.30200  0.92093  1.0000
  C   C522      1.0  0.14585  0.20325  0.84068  1.0000
  H   H642      1.0  0.27433  0.29453  0.82007  1.0000
  C   C523      1.0  0.14362  0.28023  0.79926  1.0000
  Fe  Fe80      1.0  0.16951  0.13726  0.73646  1.0000
  H   H643      1.0  0.04668  0.17455  0.82385  1.0000
  H   H644      1.0  0.08492  0.09841  0.82653  1.0000
  H   H645      1.0  0.03623  0.15530  0.80086  1.0000
  C   C524      1.0  0.29084  0.21846  0.74379  1.0000
  S   S150      1.0  0.13143  0.98942  0.75841  1.0000
  C   C525      1.0  0.07001  0.10859  0.78251  1.0000
  C   C526      1.0  0.33205  0.23559  0.74199  1.0000
  H   H646      1.0  0.14582  0.27492  0.83311  1.0000
  C   C527      1.0  0.10083  0.10827  0.78215  1.0000
  C   C528      1.0  0.13698  0.16268  0.83429  1.0000
  H   H647      1.0  0.28486  0.21555  0.73386  1.0000
  C   C529      1.0  0.16308  0.17504  0.82186  1.0000
  H   H648      1.0  0.32328  0.26021  0.94925  1.0000
  H   H649      1.0  0.10801  0.28730  0.83303  1.0000
  H   H650      1.0  0.06712  0.07269  0.79804  1.0000
  H   H651      1.0  0.28192  0.26004  0.84996  1.0000
  H   H652      1.0  0.10763  0.29520  0.80961  1.0000
  S   S151      1.0  0.31133  0.29004  0.79398  1.0000
  H   H653      1.0  0.30186  0.25446  0.89692  1.0000
  H   H654      1.0  0.15567  0.26954  0.79659  1.0000
  H   H655      1.0  0.20398  0.27816  0.92981  1.0000
  C   C530      1.0  0.05869  0.09276  0.83131  1.0000
  C   C531      1.0  0.32302  0.30278  0.83359  1.0000
  S   S152      1.0  0.16249  0.16405  0.74424  1.0000
  H   H656      1.0  0.23094  0.31266  0.80434  1.0000
  N   N33       1.0  0.00013  0.31142  0.83221  1.0000
  H   H657      1.0  0.28992  0.25368  0.73258  1.0000
  C   C532      1.0  0.29053  0.25617  0.87451  1.0000
  H   H658      1.0  0.32497  0.27057  0.87986  1.0000
  H   H659      1.0  0.17897  0.30258  0.89355  1.0000
  C   C533      1.0  0.03580  0.25029  0.91182  1.0000
  C   C534      1.0  0.06219  0.25651  0.91677  1.0000
  C   C535      1.0  0.07930  0.13631  0.77940  1.0000
  C   C536      1.0  0.20053  0.28591  0.91684  1.0000
  H   H660      1.0  0.27770  0.31345  0.78984  1.0000
  C   C537      1.0  0.22969  0.29791  0.87008  1.0000
  C   C538      1.0  0.03379  0.27846  0.92057  1.0000
  H   H661      1.0  0.10601  0.05504  0.79957  1.0000
  H   H662      1.0  0.33838  0.24182  0.78060  1.0000
  H   H663      1.0  0.09908  0.26297  0.83469  1.0000
  C   C539      1.0  0.30283  0.25916  0.88262  1.0000
  S   S153      1.0  0.25259  0.30838  0.91798  1.0000
  C   C540      1.0  0.28633  0.29372  0.95078  1.0000
  H   H664      1.0  0.33581  0.29592  0.86307  1.0000
  H   H665      1.0  0.15618  0.06793  0.73903  1.0000
  H   H666      1.0  0.19897  0.27634  0.90950  1.0000
  H   H667      1.0  0.11358  0.07460  0.79868  1.0000
  H   H668      1.0  0.30951  0.23203  0.79201  1.0000
  C   C541      1.0  0.05396  0.24527  0.91218  1.0000
  H   H669      1.0  0.09221  0.07130  0.81207  1.0000
  S   S154      1.0  0.08282  0.30653  0.90114  1.0000
  C   C542      1.0  0.01683  0.30695  0.90787  1.0000
  H   H670      1.0  0.11372  0.22894  0.86659  1.0000
  C   C543      1.0  0.00195  0.30665  0.78489  1.0000
  N   N34       1.0  0.02304  0.29598  0.92421  1.0000
  C   C544      1.0  0.29153  0.26242  0.85623  1.0000
  C   C545      1.0  0.31312  0.27103  0.95398  1.0000
  H   H671      1.0  0.29456  0.22547  0.77219  1.0000
  H   H672      1.0  0.02958  0.24183  0.90758  1.0000
  H   H673      1.0  0.02844  0.30905  0.89664  1.0000
  H   H674      1.0  0.16866  0.16454  0.81370  1.0000
  H   H675      1.0  0.31354  0.31033  0.84349  1.0000
  C   C546      1.0  0.10559  0.07572  0.76712  1.0000
  C   C547      1.0  0.34503  0.30678  0.94747  1.0000
  N   N35       1.0  0.33154  0.28492  0.84265  1.0000
  N   N36       1.0  0.14321  0.17960  0.82547  1.0000
  C   C548      1.0  0.08767  0.09853  0.78321  1.0000
  C   C549      1.0  0.21734  0.29844  0.85997  1.0000
  C   C550      1.0  0.25963  0.29830  0.82080  1.0000
  H   H676      1.0  0.28016  0.24905  0.88245  1.0000
  C   C551      1.0  0.02584  0.26665  0.91585  1.0000
  C   C552      1.0  0.30486  0.27168  0.84601  1.0000
  C   C553      1.0  0.31617  0.26849  0.87255  1.0000
  H   H677      1.0  0.02133  0.16650  0.84602  1.0000
  C   C554      1.0  0.31757  0.27507  0.85384  1.0000
  H   H678      1.0  0.33316  0.31091  0.82582  1.0000
  N   N37       1.0  0.09276  0.07902  0.78386  1.0000
  H   H679      1.0  0.36511  0.31047  0.95851  1.0000
  C   C555      1.0  0.10151  0.06969  0.79917  1.0000
  H   H680      1.0  0.07636  0.15078  0.77741  1.0000
  H   H681      1.0  0.01201  0.27022  0.91461  1.0000
  S   S155      1.0  0.11998  0.30909  0.87149  1.0000
  C   C556      1.0  0.33806  0.30929  0.93234  1.0000
  N   N38       1.0  0.30633  0.22722  0.73508  1.0000
  H   H682      1.0  0.21237  0.29141  0.90868  1.0000
  H   H683      1.0  0.08164  0.05592  0.78681  1.0000
  C   C557      1.0  0.16284  0.31379  0.81783  1.0000
  H   H684      1.0  0.11784  0.08094  0.76515  1.0000
  H   H685      1.0  0.00816  0.30071  0.90339  1.0000
  C   C558      1.0  0.18634  0.31179  0.93038  1.0000
  H   H686      1.0  0.32587  0.20324  0.73092  1.0000
  S   S156      1.0  0.00468  0.25666  0.79516  1.0000
  S   S157      1.0  0.09507  0.98718  0.79037  1.0000
  H   H687      1.0  0.27686  0.30996  0.97042  1.0000
  C   C559      1.0  0.19637  0.08282  0.73397  1.0000
  C   C560      1.0  0.36040  0.31303  0.94626  1.0000
  H   H688      1.0  0.19606  0.09698  0.73202  1.0000
  H   H689      1.0  0.32463  0.26991  0.97638  1.0000
  C   C561      1.0  0.11555  0.98744  0.84809  1.0000
  S   S158      1.0  0.99227  0.08703  0.86102  1.0000
  H   H690      1.0  0.33868  0.23726  0.72810  1.0000
  S   S159      1.0  0.19542  0.31529  0.79476  1.0000
  H   H691      1.0  0.11702  0.99011  0.86068  1.0000
  H   H692      1.0  0.48478  0.31515  0.92279  1.0000
  C   C562      1.0  0.17378  0.31563  0.94610  1.0000
  H   H693      1.0  0.34437  0.33697  0.98165  1.0000
  H   H694      1.0  0.19546  0.53536  0.09148  1.0000
  C   C563      1.0  0.07586  0.59105  0.12504  1.0000
  C   C564      1.0  0.18309  0.55531  0.20200  1.0000
  H   H695      1.0  0.18962  0.60405  0.21661  1.0000
  H   H696      1.0  0.17066  0.42189  0.09069  1.0000
  N   N39       1.0  0.15422  0.43451  0.12139  1.0000
  H   H697      1.0  0.12260  0.60271  0.01624  1.0000
  C   C565      1.0  0.26622  0.59443  0.20407  1.0000
  H   H698      1.0  0.11037  0.56340  0.10386  1.0000
  H   H699      1.0  0.22073  0.37272  0.02901  1.0000
  Fe  Fe81      1.0  0.03715  0.64442  0.07305  1.0000
  H   H700      1.0  0.19886  0.33394  0.05026  1.0000
  Fe  Fe82      1.0  0.46707  0.33051  0.00176  1.0000
  H   H701      1.0  0.29183  0.56838  0.19383  1.0000
  H   H702      1.0  0.15718  0.40747  0.11833  1.0000
  H   H703      1.0  0.01658  0.56567  0.05312  1.0000
  H   H704      1.0  0.01101  0.59892  0.06453  1.0000
  S   S160      1.0  0.22448  0.58560  0.20076  1.0000
  C   C566      1.0  0.21096  0.33365  0.05506  1.0000
  C   C567      1.0  0.14381  0.44542  0.13485  1.0000
  H   H705      1.0  0.13487  0.41798  0.12734  1.0000
  H   H706      1.0  0.14673  0.43909  0.14840  1.0000
  C   C568      1.0  0.11978  0.45390  0.00326  1.0000
  C   C569      1.0  0.09473  0.59139  0.01823  1.0000
  Fe  Fe83      1.0  0.21297  0.33665  0.10814  1.0000
  C   C570      1.0  0.13823  0.45858  0.09911  1.0000
  Fe  Fe84      1.0  0.20253  0.36563  0.12989  1.0000
  S   S161      1.0  0.17324  0.36932  0.13097  1.0000
  S   S162      1.0  0.21192  0.38363  0.14178  1.0000
  Fe  Fe85      1.0  0.17879  0.33936  0.13672  1.0000
  Fe  Fe86      1.0  0.18169  0.36780  0.10209  1.0000
  S   S163      1.0  0.16855  0.38856  0.08133  1.0000
  S   S164      1.0  0.20767  0.33558  0.13766  1.0000
  S   S165      1.0  0.21074  0.36631  0.10036  1.0000
  Fe  Fe87      1.0  0.08633  0.53759  0.04238  1.0000
  C   C571      1.0  0.16258  0.50304  0.10870  1.0000
  S   S166      1.0  0.16252  0.35835  0.01727  1.0000
  C   C572      1.0  0.14922  0.41679  0.12726  1.0000
  S   S167      1.0  0.08976  0.54372  0.06726  1.0000
  Fe  Fe88      1.0  0.10047  0.51420  0.07476  1.0000
  S   S168      1.0  0.09502  0.49672  0.10199  1.0000
  S   S169      1.0  0.12905  0.51573  0.06216  1.0000
  N   N40       1.0  0.99400  0.58776  0.05495  1.0000
  H   H707      1.0  0.14055  0.57531  0.21867  1.0000
  C   C573      1.0  0.11919  0.63648  0.03635  1.0000
  Fe  Fe89      1.0  0.15679  0.63047  0.13927  1.0000
  S   S170      1.0  0.17998  0.61779  0.12033  1.0000
  S   S171      1.0  0.15657  0.62810  0.16837  1.0000
  H   H708      1.0  0.20991  0.63485  0.13749  1.0000
  Fe  Fe90      1.0  0.15891  0.61016  0.11105  1.0000
  S   S172      1.0  0.16050  0.58134  0.11039  1.0000
  Fe  Fe91      1.0  0.13462  0.64678  0.11036  1.0000
  S   S173      1.0  0.13593  0.62145  0.13118  1.0000
  Fe  Fe92      1.0  0.17265  0.48257  0.19082  1.0000
  S   S174      1.0  0.14824  0.50329  0.19739  1.0000
  S   S175      1.0  0.19782  0.49235  0.18741  1.0000
  Fe  Fe93      1.0  0.15083  0.45615  0.19063  1.0000
  S   S176      1.0  0.12461  0.47522  0.19709  1.0000
  S   S177      1.0  0.14831  0.42899  0.18882  1.0000
  Fe  Fe94      1.0  0.13835  0.49571  0.17698  1.0000
  S   S178      1.0  0.12798  0.51819  0.15583  1.0000
  Fe  Fe95      1.0  0.13722  0.48083  0.21685  1.0000
  H   H709      1.0  0.19107  0.55144  0.11376  1.0000
  S   S179      1.0  0.16364  0.47629  0.16888  1.0000
  N   N41       1.0  0.22269  0.34503  0.04199  1.0000
  S   S180      1.0  0.18432  0.33816  0.10780  1.0000
  C   C574      1.0  0.22809  0.33883  0.02488  1.0000
  N   N42       1.0  0.08555  0.60431  0.03005  1.0000
  H   H710      1.0  0.18897  0.55150  0.21413  1.0000
  H   H711      1.0  0.12579  0.47789  0.07887  1.0000
  H   H712      1.0  0.03871  0.57166  0.00669  1.0000
  H   H713      1.0  0.22573  0.64421  0.17169  1.0000
  H   H714      1.0  0.99664  0.49565  0.99643  1.0000
  H   H715      1.0  0.14702  0.43950  0.99773  1.0000
  H   H716      1.0  0.20250  0.54327  0.13188  1.0000
  S   S181      1.0  0.15712  0.40544  0.98419  1.0000
  C   C575      1.0  0.07375  0.63662  0.08908  1.0000
  S   S182      1.0  0.09416  0.50778  0.05136  1.0000
  C   C576      1.0  0.02318  0.53081  0.04040  1.0000
  C   C577      1.0  0.16112  0.57393  0.17520  1.0000
  C   C578      1.0  0.13656  0.57235  0.06750  1.0000
  C   C579      1.0  0.14199  0.55798  0.08085  1.0000
  C   C580      1.0  0.14907  0.56088  0.09418  1.0000
  C   C581      1.0  0.15091  0.57807  0.09408  1.0000
  C   C582      1.0  0.14512  0.59242  0.08095  1.0000
  C   C583      1.0  0.13802  0.58954  0.06771  1.0000
  H   H717      1.0  0.15307  0.54980  0.10457  1.0000
  H   H718      1.0  0.14630  0.60572  0.08083  1.0000
  H   H719      1.0  0.13370  0.60071  0.05755  1.0000
  C   C584      1.0  0.10541  0.50195  0.11646  1.0000
  C   C585      1.0  0.11241  0.51744  0.11150  1.0000
  C   C586      1.0  0.11974  0.52210  0.12353  1.0000
  C   C587      1.0  0.12029  0.51120  0.14047  1.0000
  C   C588      1.0  0.11402  0.49529  0.14517  1.0000
  C   C589      1.0  0.10641  0.49076  0.13322  1.0000
  H   H720      1.0  0.11167  0.52615  0.09860  1.0000
  H   H721      1.0  0.12489  0.53422  0.11976  1.0000
  H   H722      1.0  0.11439  0.48686  0.15826  1.0000
  H   H723      1.0  0.10097  0.47880  0.13710  1.0000
  C   C590      1.0  0.01026  0.62015  0.00250  1.0000
  C   C591      1.0  0.17347  0.43206  0.12145  1.0000
  H   H724      1.0  0.07021  0.60274  0.05715  1.0000
  H   H725      1.0  0.13728  0.57031  0.14676  1.0000
  H   H726      1.0  0.21744  0.52342  0.22286  1.0000
  Fe  Fe96      1.0  0.11793  0.54474  0.05257  1.0000
  H   H727      1.0  0.05625  0.54555  0.10347  1.0000
  H   H728      1.0  0.28204  0.35991  0.97873  1.0000
  C   C592      1.0  0.16707  0.38002  0.06356  1.0000
  C   C593      1.0  0.16655  0.39133  0.04680  1.0000
  C   C594      1.0  0.16455  0.38494  0.03264  1.0000
  C   C595      1.0  0.16351  0.36708  0.03510  1.0000
  C   C596      1.0  0.16424  0.35573  0.05179  1.0000
  C   C597      1.0  0.16591  0.36221  0.06603  1.0000
  H   H729      1.0  0.16803  0.40496  0.04468  1.0000
  H   H730      1.0  0.16439  0.39367  0.01970  1.0000
  H   H731      1.0  0.16337  0.34191  0.05375  1.0000
  H   H732      1.0  0.16595  0.35347  0.07897  1.0000
  C   C598      1.0  0.19496  0.39534  0.15634  1.0000
  C   C599      1.0  0.19719  0.41109  0.15972  1.0000
  C   C600      1.0  0.18304  0.42145  0.16997  1.0000
  C   C601      1.0  0.16676  0.41590  0.17704  1.0000
  C   C602      1.0  0.16483  0.39979  0.17431  1.0000
  C   C603      1.0  0.17889  0.38953  0.16402  1.0000
  H   H733      1.0  0.20969  0.41552  0.15398  1.0000
  H   H734      1.0  0.18469  0.43379  0.17220  1.0000
  H   H735      1.0  0.15235  0.39534  0.17993  1.0000
  H   H736      1.0  0.17735  0.37704  0.16216  1.0000
  C   C604      1.0  0.20544  0.59693  0.19194  1.0000
  C   C605      1.0  0.20586  0.59831  0.17386  1.0000
  C   C606      1.0  0.19090  0.60775  0.16650  1.0000
  C   C607      1.0  0.17550  0.61596  0.17715  1.0000
  C   C608      1.0  0.17514  0.61462  0.19522  1.0000
  C   C609      1.0  0.19000  0.60496  0.20266  1.0000
  H   H737      1.0  0.21779  0.59208  0.16553  1.0000
  H   H738      1.0  0.19134  0.60864  0.15261  1.0000
  H   H739      1.0  0.16329  0.62099  0.20353  1.0000
  C   C610      1.0  0.99810  0.52918  0.98169  1.0000
  C   C611      1.0  0.01809  0.55625  0.01633  1.0000
  S   S183      1.0  0.05948  0.62514  0.08499  1.0000
  C   C612      1.0  0.08066  0.54450  0.14043  1.0000
  H   H740      1.0  0.25289  0.59846  0.21260  1.0000
  H   H741      1.0  0.11071  0.55870  0.13721  1.0000
  C   C613      1.0  0.13569  0.46574  0.08164  1.0000
  S   S184      1.0  0.46454  0.36020  0.99241  1.0000
  C   C614      1.0  0.00326  0.56936  0.06184  1.0000
  C   C615      1.0  0.00649  0.59986  0.05209  1.0000
  C   C616      1.0  0.10221  0.63647  0.09558  1.0000
  Fe  Fe97      1.0  0.12221  0.51107  0.03816  1.0000
  C   C617      1.0  0.07880  0.59396  0.04794  1.0000
  H   H742      1.0  0.14282  0.51388  0.98059  1.0000
  H   H743      1.0  0.28785  0.33637  0.97869  1.0000
  H   H744      1.0  0.15477  0.33040  0.22079  1.0000
  S   S185      1.0  0.01574  0.63409  0.06760  1.0000
  H   H745      1.0  0.09408  0.47096  0.01036  1.0000
  H   H746      1.0  0.15155  0.41016  0.14093  1.0000
  C   C618      1.0  0.20846  0.51519  0.22287  1.0000
  H   H747      1.0  0.30567  0.56600  0.20907  1.0000
  H   H748      1.0  0.14709  0.45891  0.13135  1.0000
  C   C619      1.0  0.10829  0.46848  0.00997  1.0000
  H   H749      1.0  0.18394  0.52630  0.07049  1.0000
  C   C620      1.0  0.99563  0.61711  0.99758  1.0000
  C   C621      1.0  0.23806  0.34420  0.04988  1.0000
  C   C622      1.0  0.99034  0.58850  0.03731  1.0000
  H   H750      1.0  0.25579  0.33594  0.09783  1.0000
  S   S186      1.0  0.16250  0.46034  0.21185  1.0000
  H   H751      1.0  0.15857  0.58745  0.14837  1.0000
  C   C623      1.0  0.29562  0.57585  0.20194  1.0000
  C   C624      1.0  0.12318  0.38583  0.21600  1.0000
  H   H752      1.0  0.16996  0.58216  0.17539  1.0000
  H   H753      1.0  0.05853  0.51938  0.12843  1.0000
  H   H754      1.0  0.08763  0.54300  0.15094  1.0000
  H   H755      1.0  0.20953  0.50312  0.13027  1.0000
  C   C625      1.0  0.16089  0.43425  0.08865  1.0000
  H   H756      1.0  0.23365  0.34921  0.06257  1.0000
  C   C626      1.0  0.07270  0.53035  0.14135  1.0000
  H   H757      1.0  0.12992  0.46585  0.10916  1.0000
  H   H758      1.0  0.12912  0.44699  0.13634  1.0000
  C   C627      1.0  0.17999  0.52102  0.08466  1.0000
  S   S187      1.0  0.11401  0.54030  0.02717  1.0000
  C   C628      1.0  0.09101  0.62767  0.09143  1.0000
  H   H759      1.0  0.10588  0.58147  0.02363  1.0000
  H   H760      1.0  0.17556  0.53892  0.15136  1.0000
  S   S188      1.0  0.11054  0.43979  0.99604  1.0000
  C   C629      1.0  0.18103  0.51995  0.11569  1.0000
  C   C630      1.0  0.18652  0.52614  0.09698  1.0000
  H   H761      1.0  0.12765  0.64421  0.03847  1.0000
  H   H762      1.0  0.09450  0.58193  0.09487  1.0000
  C   C631      1.0  0.19846  0.53908  0.12139  1.0000
  H   H763      1.0  0.07382  0.51875  0.15217  1.0000
  C   C632      1.0  0.26337  0.32608  0.08997  1.0000
  H   H764      1.0  0.24762  0.35225  0.04060  1.0000
  N   N43       1.0  0.16328  0.55750  0.20657  1.0000
  N   N44       1.0  0.18718  0.52547  0.12920  1.0000
  H   H765      1.0  0.20905  0.36902  0.05203  1.0000
  H   H766      1.0  0.00024  0.61400  0.04707  1.0000
  H   H767      1.0  0.20627  0.33799  0.06809  1.0000
  C   C633      1.0  0.16799  0.50956  0.09051  1.0000
  H   H768      1.0  0.16228  0.54413  0.13463  1.0000
  S   S189      1.0  0.15608  0.63496  0.08947  1.0000
  C   C634      1.0  0.18530  0.49386  0.22274  1.0000
  C   C635      1.0  0.41125  0.32323  0.98735  1.0000
  C   C636      1.0  0.10107  0.63915  0.04431  1.0000
  H   H769      1.0  0.99450  0.53524  0.99365  1.0000
  H   H770      1.0  0.11055  0.58575  0.10477  1.0000
  C   C637      1.0  0.19759  0.49885  0.20712  1.0000
  H   H771      1.0  0.06139  0.60795  0.02033  1.0000
  H   H772      1.0  0.06599  0.58974  0.13794  1.0000
  H   H773      1.0  0.10612  0.49137  0.02087  1.0000
  C   C638      1.0  0.06406  0.53069  0.12800  1.0000
  H   H774      1.0  0.17607  0.42734  0.13519  1.0000
  H   H775      1.0  0.24543  0.33023  0.05348  1.0000
  C   C639      1.0  0.10017  0.57117  0.13754  1.0000
  C   C640      1.0  0.13814  0.45084  0.00264  1.0000
  C   C641      1.0  0.13341  0.47704  0.01538  1.0000
  S   S190      1.0  0.14218  0.49148  0.02271  1.0000
  C   C642      1.0  0.42605  0.32395  0.99368  1.0000
  H   H776      1.0  0.99745  0.60630  0.99086  1.0000
  H   H777      1.0  0.14074  0.62117  0.02016  1.0000
  S   S191      1.0  0.12805  0.56950  0.05024  1.0000
  H   H778      1.0  0.16612  0.43499  0.06045  1.0000
  Fe  Fe98      1.0  0.15028  0.37842  0.99565  1.0000
  S   S192      1.0  0.06530  0.55545  0.02746  1.0000
  H   H779      1.0  0.16416  0.52916  0.21404  1.0000
  H   H780      1.0  0.14075  0.54468  0.08089  1.0000
  C   C643      1.0  0.09728  0.61540  0.03171  1.0000
  H   H781      1.0  0.04808  0.52618  0.04912  1.0000
  C   C644      1.0  0.11586  0.61299  0.02379  1.0000
  C   C645      1.0  0.11506  0.47998  0.01607  1.0000
  C   C646      1.0  0.15444  0.57726  0.15972  1.0000
  H   H782      1.0  0.00430  0.50472  0.01081  1.0000
  C   C647      1.0  0.03977  0.53456  0.03996  1.0000
  H   H783      1.0  0.16417  0.50290  0.13507  1.0000
  C   C648      1.0  0.04532  0.54939  0.02788  1.0000
  H   H784      1.0  0.09011  0.58575  0.05432  1.0000
  H   H785      1.0  0.21213  0.63165  0.16740  1.0000
  H   H786      1.0  0.07064  0.58475  0.04716  1.0000
  C   C649      1.0  0.09026  0.62886  0.04197  1.0000
  C   C650      1.0  0.03445  0.56019  0.01609  1.0000
  C   C651      1.0  0.14497  0.46248  0.00859  1.0000
  H   H787      1.0  0.06105  0.62461  0.03171  1.0000
  C   C652      1.0  0.10166  0.57644  0.10611  1.0000
  Fe  Fe99      1.0  0.17458  0.64400  0.10103  1.0000
  H   H788      1.0  0.14472  0.34062  0.19295  1.0000
  H   H789      1.0  0.02334  0.61164  0.99953  1.0000
  H   H790      1.0  0.06907  0.53950  0.98856  1.0000
  C   C653      1.0  0.13693  0.55465  0.17346  1.0000
  H   H791      1.0  0.10721  0.58231  0.13532  1.0000
  H   H792      1.0  0.17623  0.48572  0.22284  1.0000
  H   H793      1.0  0.28882  0.33274  0.08770  1.0000
  C   C654      1.0  0.03841  0.51326  0.99881  1.0000
  H   H794      1.0  0.01889  0.59651  0.04193  1.0000
  C   C655      1.0  0.07068  0.55968  0.11289  1.0000
  C   C656      1.0  0.21183  0.64442  0.17088  1.0000
  H   H795      1.0  0.18939  0.54468  0.19410  1.0000
  H   H796      1.0  0.43685  0.32979  0.98467  1.0000
  H   H797      1.0  0.26389  0.31674  0.99819  1.0000
  H   H798      1.0  0.10007  0.59831  0.00449  1.0000
  N   N45       1.0  0.12707  0.33596  0.21898  1.0000
  C   C657      1.0  0.19782  0.50967  0.13931  1.0000
  C   C658      1.0  0.14360  0.55117  0.18901  1.0000
  C   C659      1.0  0.12779  0.36912  0.21126  1.0000
  H   H799      1.0  0.18219  0.42180  0.11392  1.0000
  C   C660      1.0  0.21998  0.33489  0.99842  1.0000
  H   H800      1.0  0.14377  0.46307  0.05422  1.0000
  C   C661      1.0  0.12654  0.62352  0.02601  1.0000
  C   C662      1.0  0.17151  0.53325  0.14190  1.0000
  C   C663      1.0  0.00799  0.63397  0.01146  1.0000
  C   C664      1.0  0.15830  0.44159  0.07124  1.0000
  N   N46       1.0  0.11428  0.42068  0.05658  1.0000
  C   C665      1.0  0.10077  0.42421  0.04543  1.0000
  C   C666      1.0  0.13045  0.42697  0.04532  1.0000
  C   C667      1.0  0.11937  0.40098  0.06259  1.0000
  C   C668      1.0  0.10720  0.43044  0.07141  1.0000
  C   C669      1.0  0.10064  0.44923  0.06779  1.0000
  C   C670      1.0  0.10744  0.42198  0.08955  1.0000
  C   C671      1.0  0.09447  0.45885  0.08147  1.0000
  C   C672      1.0  0.10125  0.43177  0.10313  1.0000
  C   C673      1.0  0.09479  0.45016  0.09909  1.0000
  H   H801      1.0  0.09777  0.43840  0.03842  1.0000
  H   H802      1.0  0.10550  0.41642  0.03459  1.0000
  H   H803      1.0  0.08796  0.42065  0.05361  1.0000
  H   H804      1.0  0.14089  0.42449  0.05325  1.0000
  H   H805      1.0  0.12755  0.44153  0.03970  1.0000
  H   H806      1.0  0.13625  0.42016  0.03381  1.0000
  H   H807      1.0  0.10776  0.39533  0.07118  1.0000
  H   H808      1.0  0.12445  0.39406  0.05110  1.0000
  H   H809      1.0  0.13042  0.39716  0.07004  1.0000
  H   H810      1.0  0.10052  0.45672  0.05428  1.0000
  H   H811      1.0  0.11247  0.40782  0.09361  1.0000
  H   H812      1.0  0.08961  0.47321  0.07844  1.0000
  H   H813      1.0  0.10149  0.42507  0.11687  1.0000
  H   H814      1.0  0.09012  0.45779  0.10958  1.0000
  S   S193      1.0  0.12057  0.38852  0.99967  1.0000
  S   S194      1.0  0.02646  0.63695  0.01805  1.0000
  H   H815      1.0  0.12685  0.39748  0.20634  1.0000
  H   H816      1.0  0.00544  0.56799  0.07549  1.0000
  C   C674      1.0  0.13148  0.33700  0.19936  1.0000
  C   C675      1.0  0.15542  0.57315  0.21509  1.0000
  C   C676      1.0  0.14573  0.45734  0.06773  1.0000
  S   S195      1.0  0.15923  0.32380  0.15646  1.0000
  C   C677      1.0  0.15106  0.44259  0.10312  1.0000
  C   C678      1.0  0.15617  0.56056  0.19024  1.0000
  C   C679      1.0  0.01223  0.54178  0.02871  1.0000
  N   N47       1.0  0.08935  0.57421  0.12384  1.0000
  C   C680      1.0  0.20926  0.50945  0.20722  1.0000
  H   H817      1.0  0.16271  0.50591  0.08093  1.0000
  H   H818      1.0  0.17171  0.37454  0.21531  1.0000
  H   H819      1.0  0.01873  0.51953  0.04997  1.0000
  H   H820      1.0  0.13244  0.32397  0.19601  1.0000
  H   H821      1.0  0.15919  0.46020  0.00798  1.0000
  H   H822      1.0  0.00988  0.56468  0.00717  1.0000
  Fe  Fe100     1.0  0.12751  0.41515  0.98617  1.0000
  H   H823      1.0  0.09580  0.61402  0.08982  1.0000
  C   C681      1.0  0.08018  0.55947  0.12591  1.0000
  C   C682      1.0  0.14234  0.56767  0.15885  1.0000
  C   C683      1.0  0.16901  0.50808  0.12112  1.0000
  H   H824      1.0  0.27054  0.60676  0.19554  1.0000
  H   H825      1.0  0.16367  0.52321  0.15040  1.0000
  H   H826      1.0  0.19986  0.36550  0.03544  1.0000
  H   H827      1.0  0.21884  0.51331  0.19519  1.0000
  H   H828      1.0  0.21108  0.53386  0.11244  1.0000
  C   C684      1.0  0.06291  0.54539  0.11388  1.0000
  H   H829      1.0  0.09166  0.57034  0.15121  1.0000
  H   H830      1.0  0.08219  0.60244  0.12393  1.0000
  H   H831      1.0  0.08550  0.58349  0.01700  1.0000
  C   C685      1.0  0.24584  0.32994  0.01846  1.0000
  N   N48       1.0  0.27982  0.58353  0.21462  1.0000
  H   H832      1.0  0.15299  0.49438  0.11325  1.0000
  H   H833      1.0  0.17824  0.44480  0.11565  1.0000
  H   H834      1.0  0.06819  0.59509  0.11418  1.0000
  C   C686      1.0  0.21270  0.36386  0.03945  1.0000
  C   C687      1.0  0.07002  0.61591  0.02263  1.0000
  H   H835      1.0  0.18981  0.49941  0.14681  1.0000
  S   S196      1.0  0.99096  0.53767  0.03037  1.0000
  H   H836      1.0  0.26367  0.58687  0.19524  1.0000
  H   H837      1.0  0.20292  0.51329  0.14948  1.0000
  H   H838      1.0  0.13514  0.36858  0.19780  1.0000
  H   H839      1.0  0.13863  0.54112  0.19989  1.0000
  H   H840      1.0  0.12752  0.54716  0.17275  1.0000
  H   H841      1.0  0.20128  0.34665  0.01887  1.0000
  H   H842      1.0  0.06950  0.57078  0.10166  1.0000
  H   H843      1.0  0.30214  0.58650  0.19246  1.0000
  C   C688      1.0  0.28204  0.32428  0.08421  1.0000
  H   H844      1.0  0.18832  0.32180  0.17354  1.0000
  H   H845      1.0  0.22786  0.63389  0.10759  1.0000
  H   H846      1.0  0.20321  0.64429  0.18448  1.0000
  H   H847      1.0  0.07444  0.62477  0.00966  1.0000
  C   C689      1.0  0.15910  0.54131  0.21995  1.0000
  H   H848      1.0  0.15879  0.58567  0.20608  1.0000
  C   C690      1.0  0.22816  0.64417  0.11422  1.0000
  H   H849      1.0  0.11549  0.62943  0.09751  1.0000
  H   H850      1.0  0.18757  0.56778  0.19428  1.0000
  H   H851      1.0  0.07637  0.63124  0.04860  1.0000
  C   C691      1.0  0.12294  0.35373  0.22369  1.0000
  H   H852      1.0  0.26899  0.55982  0.22009  1.0000
  H   H853      1.0  0.12101  0.34671  0.19274  1.0000
  H   H854      1.0  0.16313  0.40442  0.22158  1.0000
  C   C692      1.0  0.27246  0.56851  0.22717  1.0000
  H   H855      1.0  0.05943  0.51405  0.01116  1.0000
  H   H856      1.0  0.18539  0.64751  0.15383  1.0000
  H   H857      1.0  0.01931  0.48784  0.99908  1.0000
  H   H858      1.0  0.99558  0.55917  0.06249  1.0000
  H   H859      1.0  0.03461  0.50245  0.00946  1.0000
  H   H860      1.0  0.00279  0.58759  0.02681  1.0000
  C   C693      1.0  0.05280  0.51980  0.99998  1.0000
  C   C694      1.0  0.21523  0.34080  0.01451  1.0000
  C   C695      1.0  0.21764  0.64508  0.13124  1.0000
  C   C696      1.0  0.99109  0.64497  0.01519  1.0000
  H   H861      1.0  0.25649  0.32719  0.02562  1.0000
  C   C697      1.0  0.25037  0.32387  0.00249  1.0000
  H   H862      1.0  0.20988  0.33661  0.99076  1.0000
  C   C698      1.0  0.00841  0.49997  0.99796  1.0000
  H   H863      1.0  0.09907  0.33586  0.22285  1.0000
  H   H864      1.0  0.14449  0.54258  0.22551  1.0000
  C   C699      1.0  0.11158  0.32696  0.22648  1.0000
  N   N49       1.0  0.01393  0.51431  0.98275  1.0000
  C   C700      1.0  0.02917  0.52090  0.98452  1.0000
  H   H865      1.0  0.14201  0.42829  0.22592  1.0000
  H   H866      1.0  0.31347  0.58726  0.21764  1.0000
  H   H867      1.0  0.21819  0.31945  0.05779  1.0000
  C   C701      1.0  0.28407  0.59448  0.22496  1.0000
  C   C702      1.0  0.30194  0.59486  0.22511  1.0000
  C   C703      1.0  0.05829  0.53415  0.98720  1.0000
  C   C704      1.0  0.23756  0.32654  0.99234  1.0000
  C   C705      1.0  0.42695  0.31684  0.01161  1.0000
  S   S197      1.0  0.23149  0.31610  0.09299  1.0000
  H   H868      1.0  0.24120  0.32187  0.97989  1.0000
  C   C706      1.0  0.14256  0.32465  0.22654  1.0000
  S   S198      1.0  0.44584  0.31612  0.01978  1.0000
  H   H869      1.0  0.31614  0.33307  0.97782  1.0000
  H   H870      1.0  0.09535  0.64897  0.05266  1.0000
  H   H871      1.0  0.11964  0.49988  0.97740  1.0000
  C   C707      1.0  0.13343  0.41612  0.27109  1.0000
  H   H872      1.0  0.10758  0.52246  0.34305  1.0000
  C   C708      1.0  0.13462  0.42780  0.23992  1.0000
  C   C709      1.0  0.39528  0.62774  0.31285  1.0000
  H   H873      1.0  0.35240  0.56617  0.41382  1.0000
  Fe  Fe101     1.0  0.31959  0.62080  0.33066  1.0000
  S   S199      1.0  0.31992  0.59620  0.32162  1.0000
  S   S200      1.0  0.31613  0.61697  0.36034  1.0000
  H   H874      1.0  0.39149  0.63523  0.29994  1.0000
  C   C710      1.0  0.00323  0.35900  0.34631  1.0000
  Fe  Fe102     1.0  0.30558  0.61486  0.30078  1.0000
  C   C711      1.0  0.14454  0.38158  0.26225  1.0000
  Fe  Fe103     1.0  0.34516  0.60221  0.30272  1.0000
  S   S201      1.0  0.37127  0.58220  0.30151  1.0000
  H   H875      1.0  0.01249  0.41047  0.35599  1.0000
  H   H876      1.0  0.13005  0.43002  0.27338  1.0000
  Fe  Fe104     1.0  0.43116  0.58131  0.36496  1.0000
  S   S202      1.0  0.43447  0.59612  0.38403  1.0000
  S   S203      1.0  0.40198  0.58096  0.36819  1.0000
  H   H877      1.0  0.01034  0.39633  0.38711  1.0000
  Fe  Fe105     1.0  0.19617  0.57604  0.26719  1.0000
  H   H878      1.0  0.14554  0.55443  0.43491  1.0000
  S   S204      1.0  0.17471  0.59378  0.28327  1.0000
  Fe  Fe106     1.0  0.14560  0.50512  0.39852  1.0000
  S   S205      1.0  0.17140  0.48773  0.38747  1.0000
  S   S206      1.0  0.13180  0.50007  0.42765  1.0000
  Fe  Fe107     1.0  0.14205  0.52840  0.36203  1.0000
  S   S207      1.0  0.16751  0.51325  0.34805  1.0000
  S   S208      1.0  0.12524  0.55324  0.34892  1.0000
  Fe  Fe108     1.0  0.15774  0.48891  0.36538  1.0000
  S   S209      1.0  0.16097  0.46544  0.35267  1.0000
  Fe  Fe109     1.0  0.17863  0.51359  0.37122  1.0000
  S   S210      1.0  0.20419  0.52303  0.36698  1.0000
  S   S211      1.0  0.13129  0.50418  0.37779  1.0000
  S   S212      1.0  0.15383  0.53086  0.38378  1.0000
  Fe  Fe110     1.0  0.10603  0.38228  0.32346  1.0000
  S   S213      1.0  0.09413  0.38378  0.35218  1.0000
  S   S214      1.0  0.12937  0.36043  0.31517  1.0000
  Fe  Fe111     1.0  0.07970  0.41472  0.30993  1.0000
  S   S215      1.0  0.06476  0.41870  0.33731  1.0000
  S   S216      1.0  0.07335  0.43041  0.28360  1.0000
  Fe  Fe112     1.0  0.09228  0.41344  0.34311  1.0000
  S   S217      1.0  0.09464  0.43114  0.36039  1.0000
  Fe  Fe113     1.0  0.06758  0.38889  0.34443  1.0000
  S   S218      1.0  0.04778  0.37314  0.36382  1.0000
  S   S219      1.0  0.10705  0.41142  0.31513  1.0000
  S   S220      1.0  0.07959  0.38551  0.31638  1.0000
  H   H879      1.0  0.32212  0.56496  0.35194  1.0000
  Fe  Fe114     1.0  0.24855  0.56876  0.42213  1.0000
  S   S221      1.0  0.26764  0.54287  0.41897  1.0000
  S   S222      1.0  0.24439  0.58998  0.39781  1.0000
  Fe  Fe115     1.0  0.23776  0.55691  0.46229  1.0000
  S   S223      1.0  0.25603  0.53004  0.46262  1.0000
  Fe  Fe116     1.0  0.27584  0.54532  0.44321  1.0000
  S   S224      1.0  0.30513  0.54091  0.44348  1.0000
  Fe  Fe117     1.0  0.24595  0.53037  0.43854  1.0000
  S   S225      1.0  0.23556  0.50737  0.43638  1.0000
  S   S226      1.0  0.25828  0.57237  0.44486  1.0000
  S   S227      1.0  0.22612  0.55614  0.43967  1.0000
  C   C712      1.0  0.12470  0.34590  0.30430  1.0000
  H   H880      1.0  0.21069  0.49889  0.46911  1.0000
  H   H881      1.0  0.10226  0.46959  0.23209  1.0000
  H   H882      1.0  0.00026  0.39095  0.41720  1.0000
  C   C713      1.0  0.10566  0.33931  0.28835  1.0000
  C   C714      1.0  0.11033  0.35135  0.29563  1.0000
  C   C715      1.0  0.15957  0.36193  0.24156  1.0000
  H   H883      1.0  0.29448  0.61848  0.45093  1.0000
  H   H884      1.0  0.09401  0.34349  0.28235  1.0000
  H   H885      1.0  0.10278  0.36487  0.29447  1.0000
  C   C716      1.0  0.09507  0.45252  0.28339  1.0000
  C   C717      1.0  0.08645  0.44654  0.27341  1.0000
  C   C718      1.0  0.08883  0.45298  0.25494  1.0000
  C   C719      1.0  0.14904  0.39675  0.24919  1.0000
  H   H886      1.0  0.09287  0.44799  0.29773  1.0000
  H   H887      1.0  0.13988  0.32300  0.24133  1.0000
  C   C720      1.0  0.14204  0.45725  0.35328  1.0000
  C   C721      1.0  0.12556  0.46290  0.36408  1.0000
  C   C722      1.0  0.11110  0.45491  0.36591  1.0000
  C   C723      1.0  0.11282  0.44162  0.35646  1.0000
  C   C724      1.0  0.12907  0.43651  0.34495  1.0000
  C   C725      1.0  0.14372  0.44419  0.34353  1.0000
  H   H888      1.0  0.12404  0.47319  0.37126  1.0000
  H   H889      1.0  0.09853  0.45897  0.37474  1.0000
  H   H890      1.0  0.13053  0.42621  0.33769  1.0000
  H   H891      1.0  0.15647  0.43973  0.33514  1.0000
  C   C726      1.0  0.21220  0.51896  0.38665  1.0000
  C   C727      1.0  0.20910  0.50421  0.40032  1.0000
  C   C728      1.0  0.21647  0.50060  0.41551  1.0000
  C   C729      1.0  0.22649  0.51202  0.41729  1.0000
  C   C730      1.0  0.22914  0.52706  0.40386  1.0000
  C   C731      1.0  0.22223  0.53036  0.38845  1.0000
  H   H892      1.0  0.20158  0.49524  0.39892  1.0000
  H   H893      1.0  0.21458  0.48883  0.42576  1.0000
  H   H894      1.0  0.23682  0.53595  0.40519  1.0000
  H   H895      1.0  0.22475  0.54170  0.37789  1.0000
  C   C732      1.0  0.16021  0.58241  0.30059  1.0000
  C   C733      1.0  0.16225  0.56386  0.30350  1.0000
  C   C734      1.0  0.15155  0.55484  0.31835  1.0000
  C   C735      1.0  0.13837  0.56440  0.32998  1.0000
  C   C736      1.0  0.13585  0.58302  0.32664  1.0000
  C   C737      1.0  0.14689  0.59198  0.31210  1.0000
  H   H896      1.0  0.17219  0.55640  0.29447  1.0000
  H   H897      1.0  0.15336  0.54054  0.32061  1.0000
  H   H898      1.0  0.12562  0.59051  0.33550  1.0000
  H   H899      1.0  0.14516  0.60634  0.30981  1.0000
  C   C738      1.0  0.02874  0.37349  0.33885  1.0000
  C   C739      1.0  0.03128  0.36733  0.35642  1.0000
  H   H900      1.0  0.03727  0.38180  0.32928  1.0000
  C   C740      1.0  0.99906  0.37727  0.41714  1.0000
  C   C741      1.0  0.38025  0.58180  0.31979  1.0000
  C   C742      1.0  0.36889  0.58746  0.33493  1.0000
  C   C743      1.0  0.37579  0.58713  0.34959  1.0000
  C   C744      1.0  0.39415  0.58133  0.34924  1.0000
  C   C745      1.0  0.40566  0.57589  0.33405  1.0000
  C   C746      1.0  0.39867  0.57594  0.31939  1.0000
  H   H901      1.0  0.35463  0.59163  0.33560  1.0000
  H   H902      1.0  0.36679  0.59159  0.36113  1.0000
  H   H903      1.0  0.41988  0.57137  0.33370  1.0000
  H   H904      1.0  0.40752  0.57156  0.30771  1.0000
  C   C747      1.0  0.29610  0.60979  0.37088  1.0000
  C   C748      1.0  0.28135  0.61560  0.36267  1.0000
  C   C749      1.0  0.26527  0.61000  0.37129  1.0000
  C   C750      1.0  0.26415  0.59796  0.38776  1.0000
  C   C751      1.0  0.27906  0.59182  0.39577  1.0000
  C   C752      1.0  0.29492  0.59798  0.38748  1.0000
  N   N50       1.0  0.40616  0.59233  0.45972  1.0000
  H   H905      1.0  0.25374  0.61496  0.36511  1.0000
  H   H906      1.0  0.27837  0.58239  0.40838  1.0000
  H   H907      1.0  0.30634  0.59343  0.39379  1.0000
  C   C753      1.0  0.41563  0.53154  0.45203  1.0000
  C   C754      1.0  0.41787  0.53591  0.43339  1.0000
  C   C755      1.0  0.43105  0.54539  0.42293  1.0000
  C   C756      1.0  0.44260  0.54984  0.43100  1.0000
  C   C757      1.0  0.44090  0.54469  0.44960  1.0000
  C   C758      1.0  0.42727  0.53578  0.46013  1.0000
  H   H908      1.0  0.40901  0.53250  0.42703  1.0000
  C   C759      1.0  0.32699  0.53121  0.46753  1.0000
  H   H909      1.0  0.44997  0.54787  0.45588  1.0000
  H   H910      1.0  0.08865  0.34558  0.33081  1.0000
  C   C760      1.0  0.10949  0.47031  0.25623  1.0000
  H   H911      1.0  0.14359  0.52533  0.28813  1.0000
  H   H912      1.0  0.42991  0.48735  0.46688  1.0000
  C   C761      1.0  0.10976  0.37269  0.24588  1.0000
  H   H913      1.0  0.32575  0.56203  0.38217  1.0000
  C   C762      1.0  0.01478  0.36925  0.33381  1.0000
  C   C763      1.0  0.15593  0.59114  0.47212  1.0000
  H   H914      1.0  0.33795  0.52939  0.45627  1.0000
  C   C764      1.0  0.40505  0.57909  0.47691  1.0000
  H   H915      1.0  0.01269  0.37421  0.32029  1.0000
  H   H916      1.0  0.38708  0.61846  0.34887  1.0000
  H   H917      1.0  0.05734  0.32881  0.31315  1.0000
  C   C765      1.0  0.03251  0.32162  0.32688  1.0000
  C   C766      1.0  0.12979  0.51708  0.43915  1.0000
  C   C767      1.0  0.13999  0.53024  0.43195  1.0000
  C   C768      1.0  0.13767  0.54422  0.44069  1.0000
  H   H918      1.0  0.16321  0.51039  0.30929  1.0000
  C   C769      1.0  0.27381  0.61496  0.24585  1.0000
  H   H919      1.0  0.14988  0.52956  0.41976  1.0000
  H   H920      1.0  0.42585  0.53215  0.47448  1.0000
  H   H921      1.0  0.34782  0.55476  0.32873  1.0000
  H   H922      1.0  0.24694  0.60738  0.29083  1.0000
  C   C770      1.0  0.27495  0.59526  0.28882  1.0000
  C   C771      1.0  0.28841  0.58073  0.28442  1.0000
  N   N51       1.0  0.26981  0.56405  0.35049  1.0000
  C   C772      1.0  0.28153  0.55848  0.36372  1.0000
  C   C773      1.0  0.27749  0.57742  0.33550  1.0000
  C   C774      1.0  0.25183  0.57306  0.35880  1.0000
  C   C775      1.0  0.26790  0.54831  0.34490  1.0000
  C   C776      1.0  0.26162  0.53398  0.35784  1.0000
  C   C777      1.0  0.27074  0.54733  0.32668  1.0000
  C   C778      1.0  0.25801  0.51978  0.35288  1.0000
  C   C779      1.0  0.26725  0.53300  0.32184  1.0000
  C   C780      1.0  0.26078  0.51932  0.33490  1.0000
  H   H923      1.0  0.28407  0.57023  0.36722  1.0000
  H   H924      1.0  0.27549  0.55054  0.37659  1.0000
  H   H925      1.0  0.29468  0.55033  0.35844  1.0000
  H   H926      1.0  0.26847  0.58354  0.32587  1.0000
  H   H927      1.0  0.29085  0.57146  0.32819  1.0000
  H   H928      1.0  0.27934  0.58884  0.34016  1.0000
  H   H929      1.0  0.24611  0.56486  0.37169  1.0000
  H   H930      1.0  0.25212  0.58591  0.36174  1.0000
  H   H931      1.0  0.24231  0.57613  0.34976  1.0000
  H   H932      1.0  0.25899  0.53385  0.37195  1.0000
  H   H933      1.0  0.27544  0.55758  0.31590  1.0000
  H   H934      1.0  0.25274  0.50922  0.36304  1.0000
  H   H935      1.0  0.26938  0.53261  0.30782  1.0000
  H   H936      1.0  0.25782  0.50836  0.33109  1.0000
  H   H937      1.0  0.06853  0.33149  0.36626  1.0000
  S   S228      1.0  0.20979  0.54881  0.27960  1.0000
  S   S229      1.0  0.44899  0.59545  0.34186  1.0000
  C   C781      1.0  0.11441  0.35593  0.24131  1.0000
  H   H938      1.0  0.33051  0.54219  0.40853  1.0000
  H   H939      1.0  0.38010  0.52758  0.39578  1.0000
  C   C782      1.0  0.39043  0.57316  0.45008  1.0000
  H   H940      1.0  0.10924  0.32261  0.24127  1.0000
  C   C783      1.0  0.39892  0.58789  0.44630  1.0000
  H   H941      1.0  0.48123  0.64256  0.29336  1.0000
  H   H942      1.0  0.37750  0.54159  0.33610  1.0000
  H   H943      1.0  0.28220  0.62481  0.34988  1.0000
  Fe  Fe118     1.0  0.45717  0.57316  0.38924  1.0000
  C   C784      1.0  0.27013  0.60461  0.23592  1.0000
  S   S230      1.0  0.45891  0.56220  0.41822  1.0000
  N   N52       1.0  0.12986  0.44718  0.41564  1.0000
  C   C785      1.0  0.14582  0.45526  0.40730  1.0000
  C   C786      1.0  0.11382  0.46199  0.41542  1.0000
  C   C787      1.0  0.13094  0.43877  0.43445  1.0000
  C   C788      1.0  0.12853  0.43355  0.40654  1.0000
  C   C789      1.0  0.11292  0.42624  0.41135  1.0000
  C   C790      1.0  0.14263  0.42686  0.39309  1.0000
  C   C791      1.0  0.11121  0.41367  0.40268  1.0000
  C   C792      1.0  0.14084  0.41410  0.38470  1.0000
  C   C793      1.0  0.12511  0.40766  0.38934  1.0000
  H   H944      1.0  0.14601  0.46141  0.39293  1.0000
  H   H945      1.0  0.14609  0.46596  0.41393  1.0000
  H   H946      1.0  0.15854  0.44528  0.40833  1.0000
  H   H947      1.0  0.11149  0.46751  0.40162  1.0000
  H   H948      1.0  0.11525  0.47323  0.42065  1.0000
  H   H949      1.0  0.10142  0.45779  0.42382  1.0000
  H   H950      1.0  0.14277  0.42751  0.43520  1.0000
  H   H951      1.0  0.13214  0.44857  0.44174  1.0000
  H   H952      1.0  0.11887  0.43328  0.44188  1.0000
  H   H953      1.0  0.10178  0.43035  0.42166  1.0000
  H   H954      1.0  0.15497  0.43167  0.38830  1.0000
  H   H955      1.0  0.09885  0.40887  0.40592  1.0000
  H   H956      1.0  0.15146  0.40971  0.37399  1.0000
  H   H957      1.0  0.12346  0.39841  0.38221  1.0000
  H   H958      1.0  0.17858  0.53983  0.45367  1.0000
  H   H959      1.0  0.14448  0.47992  0.28323  1.0000
  Fe  Fe119     1.0  0.23499  0.55675  0.26226  1.0000
  H   H960      1.0  0.32192  0.57395  0.44513  1.0000
  H   H961      1.0  0.41278  0.56559  0.47502  1.0000
  H   H962      1.0  0.19080  0.58546  0.46759  1.0000
  S   S231      1.0  0.19445  0.51716  0.25830  1.0000
  C   C794      1.0  0.10587  0.48591  0.32920  1.0000
  C   C795      1.0  0.39607  0.62813  0.34283  1.0000
  C   C796      1.0  0.25324  0.58265  0.28174  1.0000
  H   H963      1.0  0.29456  0.55573  0.27565  1.0000
  C   C797      1.0  0.11151  0.51188  0.33556  1.0000
  H   H964      1.0  0.43226  0.54926  0.40862  1.0000
  S   S232      1.0  0.27910  0.61259  0.29629  1.0000
  H   H965      1.0  0.48185  0.62120  0.37148  1.0000
  C   C798      1.0  0.18475  0.49927  0.23839  1.0000
  S   S233      1.0  0.19110  0.56750  0.24448  1.0000
  C   C799      1.0  0.00602  0.35264  0.36375  1.0000
  C   C800      1.0  0.10086  0.49938  0.33895  1.0000
  C   C801      1.0  0.29143  0.61510  0.24566  1.0000
  C   C802      1.0  0.28418  0.56707  0.27888  1.0000
  H   H966      1.0  0.30674  0.60469  0.43534  1.0000
  H   H967      1.0  0.12476  0.47382  0.30931  1.0000
  H   H968      1.0  0.43606  0.46390  0.46741  1.0000
  H   H969      1.0  0.17522  0.49523  0.25033  1.0000
  H   H970      1.0  0.37863  0.55724  0.43997  1.0000
  N   N53       1.0  0.20530  0.57395  0.32839  1.0000
  C   C803      1.0  0.20553  0.58607  0.31059  1.0000
  C   C804      1.0  0.22122  0.55917  0.32670  1.0000
  C   C805      1.0  0.18893  0.56644  0.33295  1.0000
  C   C806      1.0  0.20572  0.58291  0.34250  1.0000
  C   C807      1.0  0.20974  0.60020  0.33868  1.0000
  C   C808      1.0  0.20335  0.57381  0.36065  1.0000
  C   C809      1.0  0.21140  0.60766  0.35223  1.0000
  C   C810      1.0  0.20504  0.58139  0.37407  1.0000
  C   C811      1.0  0.20914  0.59825  0.36986  1.0000
  H   H971      1.0  0.21803  0.59131  0.30548  1.0000
  H   H972      1.0  0.20487  0.57905  0.30036  1.0000
  H   H973      1.0  0.19380  0.59750  0.31090  1.0000
  H   H974      1.0  0.23384  0.56424  0.32293  1.0000
  H   H975      1.0  0.22145  0.55191  0.31630  1.0000
  H   H976      1.0  0.22156  0.54903  0.33938  1.0000
  H   H977      1.0  0.17659  0.57697  0.33510  1.0000
  H   H978      1.0  0.18813  0.56028  0.32214  1.0000
  H   H979      1.0  0.18848  0.55554  0.34501  1.0000
  H   H980      1.0  0.21182  0.60821  0.32533  1.0000
  H   H981      1.0  0.20053  0.56056  0.36458  1.0000
  H   H982      1.0  0.21468  0.62077  0.34900  1.0000
  H   H983      1.0  0.20348  0.57400  0.38779  1.0000
  H   H984      1.0  0.21081  0.60393  0.38027  1.0000
  C   C812      1.0  0.02011  0.35663  0.36871  1.0000
  Fe  Fe120     1.0  0.20663  0.54074  0.25555  1.0000
  S   S234      1.0  0.34558  0.62584  0.31291  1.0000
  C   C813      1.0  0.15455  0.48051  0.29053  1.0000
  H   H985      1.0  0.02220  0.35169  0.38222  1.0000
  H   H986      1.0  0.12040  0.41218  0.27297  1.0000
  H   H987      1.0  0.99720  0.34481  0.37346  1.0000
  H   H988      1.0  0.28216  0.55998  0.23550  1.0000
  H   H989      1.0  0.10297  0.37409  0.25938  1.0000
  H   H990      1.0  0.29419  0.62269  0.25389  1.0000
  C   C814      1.0  0.16681  0.50880  0.46697  1.0000
  C   C815      1.0  0.12168  0.48471  0.31618  1.0000
  C   C816      1.0  0.99980  0.39590  0.38098  1.0000
  N   N54       1.0  0.14460  0.41493  0.25302  1.0000
  H   H991      1.0  0.30201  0.58000  0.28533  1.0000
  H   H992      1.0  0.34840  0.52334  0.40518  1.0000
  H   H993      1.0  0.23972  0.58350  0.28059  1.0000
  H   H994      1.0  0.16675  0.48659  0.31709  1.0000
  H   H995      1.0  0.04941  0.54948  0.44908  1.0000
  H   H996      1.0  0.08198  0.44857  0.24723  1.0000
  C   C817      1.0  0.38631  0.57945  0.41967  1.0000
  H   H997      1.0  0.16546  0.53880  0.23163  1.0000
  C   C818      1.0  0.12542  0.54496  0.45695  1.0000
  H   H998      1.0  0.26006  0.57327  0.23657  1.0000
  C   C819      1.0  0.10035  0.46484  0.24636  1.0000
  C   C820      1.0  0.38423  0.56908  0.43691  1.0000
  N   N55       1.0  0.07435  0.32398  0.34077  1.0000
  H   H999      1.0  0.46970  0.62695  0.31028  1.0000
  N   N56       1.0  0.18324  0.51304  0.46920  1.0000
  H   H1000     1.0  0.16749  0.48011  0.28064  1.0000
  C   C821      1.0  0.48394  0.63428  0.36415  1.0000
  S   S235      1.0  0.26118  0.55050  0.27145  1.0000
  C   C822      1.0  0.07573  0.34237  0.33083  1.0000
  H   H1001     1.0  0.38240  0.57582  0.40919  1.0000
  H   H1002     1.0  0.16983  0.42168  0.23794  1.0000
  C   C823      1.0  0.25736  0.59611  0.28754  1.0000
  H   H1003     1.0  0.11132  0.34466  0.25170  1.0000
  H   H1004     1.0  0.09761  0.47610  0.33196  1.0000
  C   C824      1.0  0.14981  0.36448  0.25839  1.0000
  H   H1005     1.0  0.16374  0.34862  0.23874  1.0000
  C   C825      1.0  0.16140  0.42069  0.25166  1.0000
  H   H1006     1.0  0.14045  0.40766  0.28184  1.0000
  N   N57       1.0  0.39186  0.63950  0.32571  1.0000
  H   H1007     1.0  0.16898  0.50432  0.45420  1.0000
  H   H1008     1.0  0.02723  0.32499  0.31483  1.0000
  H   H1009     1.0  0.08870  0.50006  0.34917  1.0000
  H   H1010     1.0  0.08737  0.57387  0.45883  1.0000
  S   S236      1.0  0.47765  0.58671  0.36840  1.0000
  H   H1011     1.0  0.40636  0.61003  0.42488  1.0000
  H   H1012     1.0  0.38229  0.53880  0.36572  1.0000
  H   H1013     1.0  0.34648  0.53503  0.42245  1.0000
  C   C826      1.0  0.04959  0.32409  0.32614  1.0000
  H   H1014     1.0  0.37635  0.54071  0.41209  1.0000
  S   S237      1.0  0.45307  0.55750  0.37117  1.0000
  C   C827      1.0  0.19621  0.51004  0.23851  1.0000
  H   H1015     1.0  0.29126  0.57869  0.45376  1.0000
  C   C828      1.0  0.11553  0.53155  0.46450  1.0000
  H   H1016     1.0  0.99029  0.40959  0.33947  1.0000
  H   H1017     1.0  0.39441  0.63631  0.35286  1.0000
  H   H1018     1.0  0.12143  0.42462  0.24101  1.0000
  C   C829      1.0  0.19745  0.49658  0.46897  1.0000
  H   H1019     1.0  0.19010  0.52300  0.44075  1.0000
  C   C830      1.0  0.40018  0.59855  0.42877  1.0000
  H   H1020     1.0  0.20182  0.52972  0.45331  1.0000
  H   H1021     1.0  0.40967  0.62113  0.30987  1.0000
  H   H1022     1.0  0.06480  0.35238  0.33693  1.0000
  C   C831      1.0  0.26656  0.56801  0.27758  1.0000
  C   C832      1.0  0.47150  0.64553  0.35433  1.0000
  S   S238      1.0  0.23326  0.54590  0.23932  1.0000
  H   H1023     1.0  0.38443  0.54999  0.38915  1.0000
  H   H1024     1.0  0.31847  0.61397  0.44628  1.0000
  N   N58       1.0  0.09796  0.55999  0.40222  1.0000
  C   C833      1.0  0.10329  0.54115  0.40008  1.0000
  C   C834      1.0  0.08678  0.57044  0.38909  1.0000
  C   C835      1.0  0.11457  0.56714  0.39761  1.0000
  C   C836      1.0  0.08760  0.56084  0.42060  1.0000
  C   C837      1.0  0.09301  0.56802  0.43257  1.0000
  C   C838      1.0  0.07150  0.55429  0.42704  1.0000
  C   C839      1.0  0.08290  0.56849  0.44985  1.0000
  C   C840      1.0  0.06158  0.55471  0.44439  1.0000
  C   C841      1.0  0.06729  0.56177  0.45579  1.0000
  H   H1025     1.0  0.11127  0.53275  0.41008  1.0000
  H   H1026     1.0  0.09164  0.53510  0.40169  1.0000
  H   H1027     1.0  0.11155  0.53997  0.38658  1.0000
  H   H1028     1.0  0.07483  0.56491  0.39045  1.0000
  H   H1029     1.0  0.09440  0.57051  0.37507  1.0000
  H   H1030     1.0  0.08199  0.58458  0.39065  1.0000
  H   H1031     1.0  0.12395  0.55945  0.40656  1.0000
  H   H1032     1.0  0.12203  0.56623  0.38371  1.0000
  H   H1033     1.0  0.11158  0.58149  0.39832  1.0000
  H   H1034     1.0  0.10513  0.57314  0.42911  1.0000
  H   H1035     1.0  0.06651  0.54866  0.41872  1.0000
  H   H1036     1.0  0.99426  0.35139  0.40357  1.0000
  H   H1037     1.0  0.26299  0.62248  0.25428  1.0000
  H   H1038     1.0  0.01193  0.37044  0.40967  1.0000
  H   H1039     1.0  0.13206  0.44166  0.24201  1.0000
  C   C842      1.0  0.32282  0.57812  0.45722  1.0000
  H   H1040     1.0  0.11021  0.40061  0.23677  1.0000
  C   C843      1.0  0.13094  0.31667  0.29659  1.0000
  C   C844      1.0  0.18863  0.52703  0.45360  1.0000
  H   H1041     1.0  0.33549  0.58302  0.45398  1.0000
  H   H1042     1.0  0.35887  0.57604  0.39055  1.0000
  H   H1043     1.0  0.40990  0.61985  0.34097  1.0000
  S   S239      1.0  0.30317  0.63934  0.31145  1.0000
  H   H1044     1.0  0.47849  0.64220  0.31664  1.0000
  H   H1045     1.0  0.15635  0.46819  0.30112  1.0000
  H   H1046     1.0  0.11338  0.46885  0.28253  1.0000
  C   C845      1.0  0.10653  0.46447  0.27481  1.0000
  C   C846      1.0  0.15899  0.39364  0.23216  1.0000
  H   H1047     1.0  0.39563  0.60226  0.40221  1.0000
  H   H1048     1.0  0.10977  0.50749  0.46127  1.0000
  C   C847      1.0  0.39398  0.59431  0.41570  1.0000
  S   S240      1.0  0.45311  0.63802  0.35252  1.0000
  N   N59       1.0  0.14938  0.49681  0.29823  1.0000
  C   C848      1.0  0.14639  0.51254  0.28358  1.0000
  C   C849      1.0  0.16479  0.49757  0.30527  1.0000
  S   S241      1.0  0.22164  0.58480  0.25163  1.0000
  C   C850      1.0  0.13295  0.49718  0.31246  1.0000
  C   C851      1.0  0.12723  0.51092  0.32243  1.0000
  H   H1049     1.0  0.13487  0.51250  0.27795  1.0000
  H   H1050     1.0  0.33649  0.57268  0.39984  1.0000
  H   H1051     1.0  0.15836  0.51275  0.27248  1.0000
  H   H1052     1.0  0.17753  0.49634  0.29506  1.0000
  S   S242      1.0  0.39790  0.52113  0.46481  1.0000
  C   C852      1.0  0.11768  0.51766  0.45556  1.0000
  C   C853      1.0  0.30929  0.53604  0.46513  1.0000
  C   C854      1.0  0.07857  0.32204  0.35848  1.0000
  Fe  Fe121     1.0  0.45423  0.60826  0.36152  1.0000
  H   H1053     1.0  0.13476  0.52118  0.32005  1.0000
  N   N60       1.0  0.35645  0.54869  0.39566  1.0000
  C   C855      1.0  0.37515  0.54142  0.39822  1.0000
  C   C856      1.0  0.35079  0.56666  0.40017  1.0000
  C   C857      1.0  0.34501  0.53683  0.40846  1.0000
  C   C858      1.0  0.35435  0.54998  0.37729  1.0000
  C   C859      1.0  0.33736  0.55721  0.37261  1.0000
  C   C860      1.0  0.36877  0.54409  0.36368  1.0000
  C   C861      1.0  0.33504  0.55876  0.35535  1.0000
  C   C862      1.0  0.36622  0.54550  0.34651  1.0000
  C   C863      1.0  0.34945  0.55294  0.34231  1.0000
  H   H1054     1.0  0.19953  0.49134  0.45668  1.0000
  H   H1055     1.0  0.13713  0.38246  0.27566  1.0000
  C   C864      1.0  0.05639  0.32083  0.34187  1.0000
  H   H1056     1.0  0.16335  0.57965  0.46566  1.0000
  H   H1057     1.0  0.38901  0.56411  0.46292  1.0000
  S   S243      1.0  0.33102  0.61840  0.28059  1.0000
  C   C865      1.0  0.30545  0.60504  0.23536  1.0000
  H   H1058     1.0  0.14641  0.35309  0.26862  1.0000
  Fe  Fe122     1.0  0.47161  0.57306  0.34973  1.0000
  Fe  Fe123     1.0  0.32950  0.64174  0.29255  1.0000
  H   H1059     1.0  0.16958  0.41111  0.26096  1.0000
  S   S244      1.0  0.12301  0.56287  0.46726  1.0000
  C   C866      1.0  0.30668  0.60794  0.44824  1.0000
  H   H1060     1.0  0.15568  0.52073  0.46659  1.0000
  S   S245      1.0  0.12566  0.48329  0.24546  1.0000
  H   H1061     1.0  0.36408  0.63779  0.33684  1.0000
  C   C867      1.0  0.13526  0.32863  0.30444  1.0000
  H   H1062     1.0  0.07498  0.34464  0.31662  1.0000
  H   H1063     1.0  0.43313  0.58095  0.44788  1.0000
  H   H1064     1.0  0.38739  0.61702  0.31811  1.0000
  H   H1065     1.0  0.05967  0.56198  0.46929  1.0000
  H   H1066     1.0  0.18257  0.60927  0.46488  1.0000
  H   H1067     1.0  0.15866  0.43416  0.25491  1.0000
  C   C868      1.0  0.00120  0.40423  0.36295  1.0000
  H   H1068     1.0  0.09188  0.32516  0.35714  1.0000
  H   H1069     1.0  0.99746  0.36988  0.43130  1.0000
  C   C869      1.0  0.43517  0.47415  0.47505  1.0000
  H   H1070     1.0  0.42726  0.60464  0.44117  1.0000
  C   C870      1.0  0.29078  0.58470  0.46517  1.0000
  C   C871      1.0  0.11590  0.32195  0.28881  1.0000
  C   C872      1.0  0.37246  0.64775  0.32922  1.0000
  C   C873      1.0  0.42530  0.59331  0.45264  1.0000
  H   H1071     1.0  0.31914  0.60498  0.23555  1.0000
  H   H1072     1.0  0.43167  0.59501  0.46292  1.0000
  H   H1073     1.0  0.38147  0.60971  0.46891  1.0000
  N   N61       1.0  0.30700  0.59188  0.46289  1.0000
  H   H1074     1.0  0.25626  0.60430  0.23726  1.0000
  H   H1075     1.0  0.10605  0.53202  0.47706  1.0000
  H   H1076     1.0  0.14660  0.32439  0.31090  1.0000
  H   H1077     1.0  0.42175  0.64431  0.33589  1.0000
  H   H1078     1.0  0.32382  0.56582  0.46786  1.0000
  C   C874      1.0  0.39595  0.60991  0.46367  1.0000
  C   C875      1.0  0.11394  0.38764  0.23319  1.0000
  H   H1079     1.0  0.27828  0.59515  0.46611  1.0000
  H   H1080     1.0  0.39706  0.62087  0.45166  1.0000
  H   H1081     1.0  0.40082  0.61359  0.47396  1.0000
  H   H1082     1.0  0.44903  0.47410  0.47587  1.0000
  C   C876      1.0  0.16408  0.37650  0.22843  1.0000
  H   H1083     1.0  0.15429  0.60315  0.46121  1.0000
  Fe  Fe124     1.0  0.21792  0.57345  0.23003  1.0000
  C   C877      1.0  0.18347  0.59642  0.47483  1.0000
  C   C878      1.0  0.48132  0.63362  0.30674  1.0000
  H   H1084     1.0  0.48677  0.60265  0.32985  1.0000
  H   H1085     1.0  0.48789  0.60146  0.29957  1.0000
  H   H1086     1.0  0.16033  0.57152  0.22749  1.0000
  C   C879      1.0  0.21457  0.58353  0.51164  1.0000
  Fe  Fe125     1.0  0.45913  0.36576  0.58807  1.0000
  S   S246      1.0  0.44400  0.36171  0.56961  1.0000
  C   C880      1.0  0.99380  0.44021  0.58817  1.0000
  Fe  Fe126     1.0  0.42539  0.37218  0.61707  1.0000
  S   S247      1.0  0.40752  0.36824  0.60120  1.0000
  S   S248      1.0  0.41563  0.37479  0.64589  1.0000
  Fe  Fe127     1.0  0.42960  0.34533  0.59406  1.0000
  C   C881      1.0  0.01936  0.48368  0.57952  1.0000
  Fe  Fe128     1.0  0.42327  0.38517  0.57819  1.0000
  S   S249      1.0  0.40947  0.40603  0.55778  1.0000
  S   S250      1.0  0.44619  0.34782  0.61191  1.0000
  S   S251      1.0  0.43969  0.39066  0.59465  1.0000
  Fe  Fe129     1.0  0.08171  0.54939  0.52970  1.0000
  S   S252      1.0  0.07634  0.56947  0.50488  1.0000
  S   S253      1.0  0.06282  0.53158  0.54674  1.0000
  Fe  Fe130     1.0  0.11436  0.56304  0.53053  1.0000
  S   S254      1.0  0.11086  0.58456  0.50637  1.0000
  S   S255      1.0  0.13870  0.55763  0.54257  1.0000
  Fe  Fe131     1.0  0.08149  0.58858  0.51853  1.0000
  S   S256      1.0  0.06137  0.61411  0.52144  1.0000
  Fe  Fe132     1.0  0.10630  0.56326  0.49510  1.0000
  H   H1087     1.0  0.04052  0.58710  0.54557  1.0000
  S   S257      1.0  0.08538  0.56892  0.54387  1.0000
  S   S258      1.0  0.11128  0.54133  0.51876  1.0000
  Fe  Fe133     1.0  0.18703  0.61652  0.57017  1.0000
  S   S259      1.0  0.19962  0.63755  0.54973  1.0000
  S   S260      1.0  0.15859  0.61776  0.56851  1.0000
  Fe  Fe134     1.0  0.21929  0.60367  0.58800  1.0000
  S   S261      1.0  0.23388  0.62412  0.56920  1.0000
  S   S262      1.0  0.23551  0.58284  0.60610  1.0000
  H   H1088     1.0  0.19218  0.59674  0.48367  1.0000
  H   H1089     1.0  0.05397  0.46693  0.57437  1.0000
  Fe  Fe135     1.0  0.22477  0.61656  0.54828  1.0000
  S   S263      1.0  0.24489  0.61099  0.52357  1.0000
  S   S264      1.0  0.19318  0.62327  0.59360  1.0000
  S   S265      1.0  0.21168  0.59484  0.56678  1.0000
  Fe  Fe136     1.0  0.38411  0.50972  0.53280  1.0000
  S   S266      1.0  0.40012  0.52876  0.51290  1.0000
  S   S267      1.0  0.39800  0.48934  0.55349  1.0000
  Fe  Fe137     1.0  0.35021  0.52784  0.51854  1.0000
  Fe  Fe138     1.0  0.37576  0.54988  0.51955  1.0000
  S   S268      1.0  0.37721  0.57756  0.52050  1.0000
  S   S269      1.0  0.36070  0.53139  0.54089  1.0000
  Fe  Fe139     1.0  0.34177  0.59284  0.65739  1.0000
  S   S270      1.0  0.31817  0.58112  0.65928  1.0000
  S   S271      1.0  0.34235  0.59746  0.68431  1.0000
  Fe  Fe140     1.0  0.35457  0.59167  0.61780  1.0000
  S   S272      1.0  0.33206  0.58005  0.61664  1.0000
  S   S273      1.0  0.37557  0.59801  0.59324  1.0000
  Fe  Fe141     1.0  0.31498  0.59970  0.63324  1.0000
  S   S274      1.0  0.28784  0.61632  0.62962  1.0000
  Fe  Fe142     1.0  0.33738  0.56261  0.64269  1.0000
  S   S275      1.0  0.33836  0.53319  0.64844  1.0000
  S   S276      1.0  0.33708  0.61304  0.63241  1.0000
  S   S277      1.0  0.36137  0.57260  0.64274  1.0000
  C   C882      1.0  0.46696  0.37257  0.63150  1.0000
  Fe  Fe143     1.0  0.41170  0.45031  0.68975  1.0000
  S   S278      1.0  0.38422  0.44992  0.70690  1.0000
  S   S279      1.0  0.41731  0.44909  0.66066  1.0000
  H   H1090     1.0  0.13239  0.61749  0.48181  1.0000
  H   H1091     1.0  0.36033  0.56204  0.70051  1.0000
  N   N62       1.0  0.02806  0.46992  0.56854  1.0000
  H   H1092     1.0  0.00775  0.56744  0.53710  1.0000
  C   C883      1.0  0.45928  0.41488  0.66597  1.0000
  S   S280      1.0  0.41519  0.47467  0.69699  1.0000
  C   C884      1.0  0.34670  0.52350  0.66795  1.0000
  C   C885      1.0  0.34626  0.53406  0.67978  1.0000
  C   C886      1.0  0.35252  0.52618  0.69561  1.0000
  C   C887      1.0  0.36011  0.50795  0.69918  1.0000
  C   C888      1.0  0.36084  0.49744  0.68718  1.0000
  C   C889      1.0  0.35377  0.50514  0.67177  1.0000
  H   H1093     1.0  0.34059  0.54821  0.67705  1.0000
  S   S281      1.0  0.99417  0.52889  0.52129  1.0000
  H   H1094     1.0  0.36654  0.48334  0.68988  1.0000
  H   H1095     1.0  0.35396  0.49686  0.66278  1.0000
  C   C890      1.0  0.37630  0.58254  0.54120  1.0000
  C   C891      1.0  0.36920  0.57228  0.55757  1.0000
  C   C892      1.0  0.36808  0.57734  0.57370  1.0000
  C   C893      1.0  0.37486  0.59212  0.57350  1.0000
  C   C894      1.0  0.38220  0.60207  0.55714  1.0000
  C   C895      1.0  0.38259  0.59751  0.54109  1.0000
  H   H1096     1.0  0.36455  0.56053  0.55785  1.0000
  H   H1097     1.0  0.36261  0.56943  0.58629  1.0000
  H   H1098     1.0  0.38753  0.61343  0.55689  1.0000
  H   H1099     1.0  0.38810  0.60549  0.52855  1.0000
  C   C896      1.0  0.25020  0.59212  0.61240  1.0000
  C   C897      1.0  0.24434  0.60879  0.61718  1.0000
  C   C898      1.0  0.25597  0.61593  0.62270  1.0000
  C   C899      1.0  0.27367  0.60679  0.62282  1.0000
  C   C900      1.0  0.27966  0.59025  0.61771  1.0000
  C   C901      1.0  0.26783  0.58279  0.61277  1.0000
  H   H1100     1.0  0.23069  0.61598  0.61704  1.0000
  H   H1101     1.0  0.25117  0.62857  0.62694  1.0000
  H   H1102     1.0  0.29335  0.58321  0.61763  1.0000
  H   H1103     1.0  0.27242  0.56995  0.60892  1.0000
  H   H1104     1.0  0.25772  0.56979  0.57455  1.0000
  C   C902      1.0  0.35558  0.61102  0.70534  1.0000
  C   C903      1.0  0.23770  0.59728  0.51392  1.0000
  C   C904      1.0  0.24968  0.58882  0.50075  1.0000
  H   H1105     1.0  0.01873  0.45972  0.54105  1.0000
  C   C905      1.0  0.13959  0.61990  0.49051  1.0000
  H   H1106     1.0  0.39540  0.35352  0.67817  1.0000
  C   C906      1.0  0.22015  0.59456  0.51943  1.0000
  H   H1107     1.0  0.04241  0.47029  0.54120  1.0000
  H   H1108     1.0  0.29695  0.60159  0.57960  1.0000
  H   H1109     1.0  0.02901  0.56922  0.55082  1.0000
  Fe  Fe144     1.0  0.20726  0.64306  0.57280  1.0000
  C   C907      1.0  0.24401  0.57805  0.49269  1.0000
  C   C908      1.0  0.14507  0.57529  0.54747  1.0000
  C   C909      1.0  0.16163  0.57219  0.55235  1.0000
  C   C910      1.0  0.16637  0.58547  0.55795  1.0000
  C   C911      1.0  0.15440  0.60180  0.55901  1.0000
  C   C912      1.0  0.13814  0.60511  0.55351  1.0000
  C   C913      1.0  0.13357  0.59199  0.54751  1.0000
  H   H1110     1.0  0.17063  0.55931  0.55226  1.0000
  H   H1111     1.0  0.17893  0.58277  0.56217  1.0000
  H   H1112     1.0  0.12899  0.61779  0.55417  1.0000
  H   H1113     1.0  0.12094  0.59457  0.54348  1.0000
  C   C914      1.0  0.07015  0.62832  0.52891  1.0000
  H   H1114     1.0  0.37523  0.34014  0.71439  1.0000
  H   H1115     1.0  0.37640  0.36930  0.67082  1.0000
  H   H1116     1.0  0.45198  0.42820  0.66759  1.0000
  C   C915      1.0  0.32163  0.58969  0.48879  1.0000
  C   C916      1.0  0.08850  0.62489  0.52824  1.0000
  H   H1117     1.0  0.14998  0.52826  0.52369  1.0000
  H   H1118     1.0  0.10972  0.63262  0.53468  1.0000
  H   H1119     1.0  0.09729  0.61384  0.52279  1.0000
  C   C917      1.0  0.01275  0.53070  0.52854  1.0000
  C   C918      1.0  0.01325  0.52641  0.54668  1.0000
  C   C919      1.0  0.02851  0.52724  0.55213  1.0000
  C   C920      1.0  0.04332  0.53238  0.53950  1.0000
  C   C921      1.0  0.04258  0.53727  0.52140  1.0000
  C   C922      1.0  0.02732  0.53640  0.51594  1.0000
  H   H1120     1.0  0.34866  0.36114  0.70251  1.0000
  H   H1121     1.0  0.02888  0.52389  0.56617  1.0000
  H   H1122     1.0  0.05397  0.54117  0.51157  1.0000
  H   H1123     1.0  0.02693  0.53983  0.50190  1.0000
  H   H1124     1.0  0.20512  0.53209  0.50894  1.0000
  C   C923      1.0  0.40556  0.42909  0.55756  1.0000
  C   C924      1.0  0.41264  0.43547  0.56855  1.0000
  C   C925      1.0  0.41013  0.45398  0.56726  1.0000
  C   C926      1.0  0.40033  0.46621  0.55517  1.0000
  C   C927      1.0  0.39290  0.45983  0.54449  1.0000
  C   C928      1.0  0.39565  0.44134  0.54557  1.0000
  H   H1125     1.0  0.42029  0.42618  0.57782  1.0000
  H   H1126     1.0  0.41595  0.45881  0.57555  1.0000
  H   H1127     1.0  0.38499  0.46911  0.53546  1.0000
  H   H1128     1.0  0.39007  0.43647  0.53710  1.0000
  H   H1129     1.0  0.45563  0.40671  0.61769  1.0000
  H   H1130     1.0  0.36830  0.41682  0.72522  1.0000
  C   C929      1.0  0.39209  0.55428  0.72521  1.0000
  C   C930      1.0  0.41542  0.39567  0.64996  1.0000
  C   C931      1.0  0.41298  0.39769  0.66755  1.0000
  C   C932      1.0  0.41329  0.41413  0.67099  1.0000
  C   C933      1.0  0.41609  0.42859  0.65682  1.0000
  C   C934      1.0  0.41836  0.42662  0.63926  1.0000
  C   C935      1.0  0.41794  0.41023  0.63584  1.0000
  H   H1131     1.0  0.41096  0.38651  0.67854  1.0000
  H   H1132     1.0  0.41149  0.41557  0.68458  1.0000
  H   H1133     1.0  0.42040  0.43780  0.62827  1.0000
  H   H1134     1.0  0.41931  0.40896  0.62230  1.0000
  H   H1135     1.0  0.14455  0.58630  0.60209  1.0000
  Fe  Fe145     1.0  0.38633  0.52509  0.49309  1.0000
  C   C936      1.0  0.44386  0.43522  0.52947  1.0000
  C   C937      1.0  0.16270  0.52684  0.51426  1.0000
  C   C938      1.0  0.26002  0.57306  0.55971  1.0000
  C   C939      1.0  0.07329  0.60325  0.60490  1.0000
  H   H1136     1.0  0.39095  0.57819  0.48343  1.0000
  H   H1137     1.0  0.46155  0.40615  0.69345  1.0000
  C   C940      1.0  0.04405  0.45879  0.57533  1.0000
  C   C941      1.0  0.38080  0.35888  0.68217  1.0000
  C   C942      1.0  0.46292  0.41020  0.64935  1.0000
  N   N63       1.0  0.38628  0.49371  0.61692  1.0000
  C   C943      1.0  0.36655  0.49585  0.62081  1.0000
  C   C944      1.0  0.39414  0.47894  0.60703  1.0000
  C   C945      1.0  0.39254  0.48806  0.63405  1.0000
  C   C946      1.0  0.39112  0.51099  0.60697  1.0000
  C   C947      1.0  0.38545  0.52615  0.61504  1.0000
  C   C948      1.0  0.40095  0.51351  0.58902  1.0000
  C   C949      1.0  0.38975  0.54263  0.60588  1.0000
  C   C950      1.0  0.40508  0.53009  0.57998  1.0000
  C   C951      1.0  0.39964  0.54455  0.58844  1.0000
  H   H1138     1.0  0.36133  0.50038  0.60825  1.0000
  H   H1139     1.0  0.36229  0.48311  0.62813  1.0000
  H   H1140     1.0  0.35967  0.50591  0.62920  1.0000
  H   H1141     1.0  0.38907  0.48165  0.59450  1.0000
  H   H1142     1.0  0.39069  0.46604  0.61506  1.0000
  H   H1143     1.0  0.40902  0.47668  0.60358  1.0000
  H   H1144     1.0  0.38600  0.49748  0.64320  1.0000
  H   H1145     1.0  0.38965  0.47479  0.64162  1.0000
  H   H1146     1.0  0.40727  0.48689  0.63176  1.0000
  H   H1147     1.0  0.37741  0.52548  0.62843  1.0000
  H   H1148     1.0  0.40545  0.50298  0.58155  1.0000
  H   H1149     1.0  0.38517  0.55411  0.61219  1.0000
  H   H1150     1.0  0.41237  0.53178  0.56623  1.0000
  H   H1151     1.0  0.40276  0.55743  0.58136  1.0000
  C   C952      1.0  0.47370  0.38523  0.67865  1.0000
  H   H1152     1.0  0.01325  0.64648  0.57047  1.0000
  H   H1153     1.0  0.27234  0.53991  0.55568  1.0000
  H   H1154     1.0  0.35985  0.55063  0.72344  1.0000
  H   H1155     1.0  0.47594  0.57318  0.70850  1.0000
  C   C953      1.0  0.31871  0.58705  0.56291  1.0000
  H   H1156     1.0  0.03006  0.58448  0.52931  1.0000
  C   C954      1.0  0.05885  0.64268  0.53620  1.0000
  H   H1157     1.0  0.10155  0.62717  0.57423  1.0000
  H   H1158     1.0  0.31399  0.53372  0.72059  1.0000
  H   H1159     1.0  0.02289  0.59590  0.57298  1.0000
  C   C955      1.0  0.03416  0.47958  0.55003  1.0000
  C   C956      1.0  0.28758  0.58579  0.56686  1.0000
  S   S282      1.0  0.32092  0.53025  0.52009  1.0000
  H   H1160     1.0  0.01593  0.47796  0.59401  1.0000
  C   C957      1.0  0.08998  0.62479  0.58542  1.0000
  C   C958      1.0  0.38436  0.62066  0.67876  1.0000
  C   C959      1.0  0.01234  0.45443  0.55449  1.0000
  C   C960      1.0  0.30716  0.59677  0.47968  1.0000
  N   N64       1.0  0.27878  0.56577  0.55141  1.0000
  C   C961      1.0  0.36819  0.61815  0.70942  1.0000
  H   H1161     1.0  0.09178  0.60408  0.56122  1.0000
  C   C962      1.0  0.30653  0.60647  0.51197  1.0000
  C   C963      1.0  0.15591  0.62773  0.51410  1.0000
  H   H1162     1.0  0.99457  0.46235  0.62899  1.0000
  H   H1163     1.0  0.38982  0.32461  0.70110  1.0000
  H   H1164     1.0  0.47706  0.41321  0.61249  1.0000
  H   H1165     1.0  0.41051  0.58273  0.48680  1.0000
  H   H1166     1.0  0.16199  0.63051  0.52362  1.0000
  C   C964      1.0  0.09559  0.63563  0.53488  1.0000
  H   H1167     1.0  0.48440  0.36686  0.66129  1.0000
  S   S283      1.0  0.39905  0.63131  0.70113  1.0000
  H   H1168     1.0  0.00672  0.49175  0.57547  1.0000
  C   C965      1.0  0.16747  0.57674  0.49854  1.0000
  H   H1169     1.0  0.44923  0.40673  0.53201  1.0000
  H   H1170     1.0  0.47771  0.37554  0.69010  1.0000
  C   C966      1.0  0.99523  0.59134  0.54865  1.0000
  H   H1171     1.0  0.44762  0.43424  0.54196  1.0000
  S   S284      1.0  0.48901  0.36364  0.58382  1.0000
  H   H1172     1.0  0.15420  0.57427  0.50657  1.0000
  H   H1173     1.0  0.00862  0.45208  0.59894  1.0000
  H   H1174     1.0  0.43514  0.48782  0.50245  1.0000
  C   C967      1.0  0.44483  0.41967  0.52386  1.0000
  H   H1175     1.0  0.25642  0.58782  0.55520  1.0000
  H   H1176     1.0  0.99912  0.60278  0.57664  1.0000
  C   C968      1.0  0.01559  0.45833  0.56978  1.0000
  H   H1177     1.0  0.28787  0.53779  0.50810  1.0000
  H   H1178     1.0  0.34641  0.36151  0.68039  1.0000
  H   H1179     1.0  0.38560  0.54115  0.68941  1.0000
  H   H1180     1.0  0.09550  0.57098  0.58467  1.0000
  H   H1181     1.0  0.07451  0.59315  0.57577  1.0000
  C   C969      1.0  0.01068  0.59327  0.57049  1.0000
  H   H1182     1.0  0.15452  0.64391  0.59122  1.0000
  H   H1183     1.0  0.17629  0.60497  0.50965  1.0000
  C   C970      1.0  0.39266  0.57030  0.69464  1.0000
  C   C971      1.0  0.46459  0.56995  0.71963  1.0000
  C   C972      1.0  0.17738  0.53061  0.51808  1.0000
  H   H1184     1.0  0.39671  0.46715  0.50455  1.0000
  H   H1185     1.0  0.38752  0.57247  0.68224  1.0000
  H   H1186     1.0  0.02257  0.48784  0.54404  1.0000
  H   H1187     1.0  0.07034  0.58968  0.60764  1.0000
  H   H1188     1.0  0.40754  0.56707  0.69113  1.0000
  C   C973      1.0  0.13352  0.58304  0.59866  1.0000
  H   H1189     1.0  0.43610  0.46331  0.52525  1.0000
  C   C974      1.0  0.29219  0.61368  0.50337  1.0000
  Fe  Fe146     1.0  0.38866  0.47300  0.71557  1.0000
  H   H1190     1.0  0.04050  0.45213  0.58960  1.0000
  C   C975      1.0  0.13989  0.63859  0.51025  1.0000
  C   C976      1.0  0.99970  0.44427  0.55613  1.0000
  C   C977      1.0  0.27998  0.56946  0.53183  1.0000
  C   C978      1.0  0.37177  0.61339  0.67468  1.0000
  C   C979      1.0  0.35744  0.60838  0.68805  1.0000
  N   N65       1.0  0.37047  0.34440  0.68778  1.0000
  H   H1191     1.0  0.26960  0.56447  0.52844  1.0000
  H   H1192     1.0  0.27796  0.58407  0.52621  1.0000
  H   H1193     1.0  0.32889  0.59209  0.56592  1.0000
  H   H1194     1.0  0.33339  0.58026  0.48406  1.0000
  H   H1195     1.0  0.46933  0.36826  0.61865  1.0000
  C   C980      1.0  0.29881  0.53595  0.49680  1.0000
  C   C981      1.0  0.16394  0.61302  0.50609  1.0000
  H   H1196     1.0  0.21077  0.60115  0.52951  1.0000
  C   C982      1.0  0.39100  0.53943  0.70156  1.0000
  H   H1197     1.0  0.45261  0.57206  0.71382  1.0000
  H   H1198     1.0  0.37900  0.36604  0.69312  1.0000
  C   C983      1.0  0.00641  0.45032  0.58669  1.0000
  H   H1199     1.0  0.37331  0.61143  0.66131  1.0000
  H   H1200     1.0  0.26332  0.59054  0.49694  1.0000
  H   H1201     1.0  0.27392  0.59044  0.57333  1.0000
  C   C984      1.0  0.28235  0.54615  0.55813  1.0000
  C   C985      1.0  0.46461  0.40244  0.68058  1.0000
  H   H1202     1.0  0.25330  0.57151  0.48256  1.0000
  H   H1203     1.0  0.17556  0.57683  0.50805  1.0000
  H   H1204     1.0  0.12305  0.54905  0.58748  1.0000
  S   S285      1.0  0.37209  0.50442  0.51238  1.0000
  H   H1205     1.0  0.02817  0.49304  0.57820  1.0000
  H   H1206     1.0  0.01296  0.61638  0.52768  1.0000
  H   H1207     1.0  0.06054  0.61319  0.60372  1.0000
  N   N66       1.0  0.01162  0.59533  0.55116  1.0000
  S   S286      1.0  0.36875  0.49856  0.71860  1.0000
  C   C986      1.0  0.01297  0.61402  0.54214  1.0000
  C   C987      1.0  0.36572  0.56082  0.71254  1.0000
  C   C988      1.0  0.29248  0.60900  0.48743  1.0000
  C   C989      1.0  0.37594  0.33248  0.70415  1.0000
  C   C990      1.0  0.43949  0.42075  0.50814  1.0000
  C   C991      1.0  0.19373  0.52897  0.50602  1.0000
  H   H1208     1.0  0.38870  0.58338  0.69876  1.0000
  H   H1209     1.0  0.42369  0.32827  0.68344  1.0000
  C   C992      1.0  0.29220  0.57342  0.55535  1.0000
  H   H1210     1.0  0.05084  0.44810  0.56761  1.0000
  C   C993      1.0  0.31067  0.56824  0.54786  1.0000
  C   C994      1.0  0.32365  0.57507  0.55150  1.0000
  H   H1211     1.0  0.29309  0.56296  0.52459  1.0000
  H   H1212     1.0  0.29569  0.53942  0.55149  1.0000
  H   H1213     1.0  0.31525  0.55872  0.53919  1.0000
  H   H1214     1.0  0.33766  0.57095  0.54552  1.0000
  N   N67       1.0  0.27889  0.55305  0.66617  1.0000
  C   C995      1.0  0.26928  0.57204  0.66300  1.0000
  C   C996      1.0  0.29195  0.55003  0.64946  1.0000
  C   C997      1.0  0.26547  0.54181  0.66977  1.0000
  C   C998      1.0  0.28831  0.54806  0.68122  1.0000
  C   C999      1.0  0.29793  0.53031  0.68603  1.0000
  C   C1000     1.0  0.28828  0.56041  0.69147  1.0000
  C   C1001     1.0  0.30685  0.52521  0.70022  1.0000
  C   C1002     1.0  0.29742  0.55520  0.70553  1.0000
  H   H1215     1.0  0.39884  0.48392  0.48431  1.0000
  H   H1216     1.0  0.27870  0.58137  0.65912  1.0000
  H   H1217     1.0  0.26200  0.57525  0.65190  1.0000
  H   H1218     1.0  0.25903  0.57526  0.67494  1.0000
  H   H1219     1.0  0.28536  0.55361  0.63785  1.0000
  H   H1220     1.0  0.29916  0.53588  0.65025  1.0000
  H   H1221     1.0  0.30235  0.55815  0.64629  1.0000
  H   H1222     1.0  0.25586  0.54310  0.68265  1.0000
  H   H1223     1.0  0.25760  0.54568  0.65905  1.0000
  H   H1224     1.0  0.27177  0.52742  0.67051  1.0000
  H   H1225     1.0  0.29901  0.52028  0.67859  1.0000
  H   H1226     1.0  0.28172  0.57430  0.68863  1.0000
  H   H1227     1.0  0.42571  0.33497  0.65082  1.0000
  H   H1228     1.0  0.28149  0.54179  0.47811  1.0000
  S   S287      1.0  0.42851  0.31665  0.59640  1.0000
  H   H1229     1.0  0.29766  0.56495  0.71283  1.0000
  C   C1003     1.0  0.37311  0.33404  0.67384  1.0000
  H   H1230     1.0  0.14765  0.55634  0.59630  1.0000
  H   H1231     1.0  0.34446  0.60727  0.71572  1.0000
  H   H1232     1.0  0.41605  0.49911  0.49309  1.0000
  C   C1004     1.0  0.08067  0.60493  0.57310  1.0000
  H   H1233     1.0  0.45226  0.37690  0.63600  1.0000
  H   H1234     1.0  0.46436  0.60501  0.71328  1.0000
  H   H1235     1.0  0.30621  0.61003  0.52440  1.0000
  H   H1236     1.0  0.17598  0.53502  0.53033  1.0000
  N   N68       1.0  0.42363  0.47090  0.49312  1.0000
  C   C1005     1.0  0.35124  0.35277  0.69239  1.0000
  H   H1237     1.0  0.17437  0.56501  0.49231  1.0000
  H   H1238     1.0  0.04270  0.48897  0.54959  1.0000
  H   H1239     1.0  0.25020  0.56753  0.55604  1.0000
  S   S288      1.0  0.42607  0.43116  0.71032  1.0000
  C   C1006     1.0  0.42191  0.48630  0.50130  1.0000
  H   H1240     1.0  0.28097  0.61492  0.48134  1.0000
  C   C1007     1.0  0.36552  0.31870  0.67772  1.0000
  N   N69       1.0  0.47624  0.38720  0.62955  1.0000
  C   C1008     1.0  0.16426  0.52134  0.49842  1.0000
  H   H1241     1.0  0.36715  0.32276  0.71085  1.0000
  C   C1009     1.0  0.11801  0.59608  0.59660  1.0000
  H   H1242     1.0  0.28198  0.54279  0.57274  1.0000
  H   H1243     1.0  0.34271  0.34265  0.69818  1.0000
  C   C1010     1.0  0.10578  0.57496  0.58849  1.0000
  H   H1244     1.0  0.36417  0.32761  0.59625  1.0000
  H   H1245     1.0  0.34812  0.39904  0.72187  1.0000
  H   H1246     1.0  0.31456  0.51170  0.70330  1.0000
  H   H1247     1.0  0.38579  0.52816  0.71141  1.0000
  H   H1248     1.0  0.38841  0.35082  0.65158  1.0000
  C   C1011     1.0  0.38269  0.62290  0.69617  1.0000
  S   S289      1.0  0.21854  0.56335  0.48720  1.0000
  C   C1012     1.0  0.30072  0.59240  0.57056  1.0000
  C   C1013     1.0  0.38347  0.32985  0.64283  1.0000
  C   C1014     1.0  0.38223  0.33932  0.65592  1.0000
  H   H1249     1.0  0.11777  0.60897  0.59894  1.0000
  H   H1250     1.0  0.43635  0.49255  0.71788  1.0000
  C   C1015     1.0  0.22634  0.57564  0.49795  1.0000
  H   H1251     1.0  0.09218  0.62796  0.59745  1.0000
  H   H1252     1.0  0.07811  0.63500  0.58180  1.0000
  H   H1253     1.0  0.20108  0.58127  0.51613  1.0000
  H   H1254     1.0  0.39550  0.62440  0.66841  1.0000
  C   C1016     1.0  0.43713  0.45193  0.51965  1.0000
  H   H1255     1.0  0.36038  0.57395  0.71650  1.0000
  H   H1256     1.0  0.44001  0.40856  0.50403  1.0000
  H   H1257     1.0  0.34431  0.52541  0.48621  1.0000
  H   H1258     1.0  0.15225  0.51881  0.49635  1.0000
  S   S290      1.0  0.36348  0.54807  0.49777  1.0000
  H   H1259     1.0  0.07009  0.61669  0.56922  1.0000
  C   C1017     1.0  0.15618  0.60877  0.49383  1.0000
  H   H1260     1.0  0.25150  0.64239  0.59343  1.0000
  C   C1018     1.0  0.12144  0.56210  0.59040  1.0000
  H   H1261     1.0  0.39242  0.33752  0.59351  1.0000
  H   H1262     1.0  0.00188  0.52240  0.55648  1.0000
  H   H1263     1.0  0.07760  0.60435  0.61681  1.0000
  C   C1019     1.0  0.31653  0.53161  0.49910  1.0000
  C   C1020     1.0  0.30662  0.53764  0.70993  1.0000
  C   C1021     1.0  0.10381  0.59258  0.59097  1.0000
  C   C1022     1.0  0.13532  0.56616  0.59537  1.0000
  H   H1264     1.0  0.35148  0.53421  0.70507  1.0000
  C   C1023     1.0  0.43299  0.43739  0.49806  1.0000
  H   H1265     1.0  0.40581  0.53537  0.69758  1.0000
  H   H1266     1.0  0.02552  0.61722  0.54319  1.0000
  N   N70       1.0  0.16545  0.59358  0.48494  1.0000
  H   H1267     1.0  0.47152  0.36046  0.64128  1.0000
  C   C1024     1.0  0.33061  0.52904  0.48448  1.0000
  C   C1025     1.0  0.43131  0.45351  0.50365  1.0000
  N   N71       1.0  0.08729  0.60623  0.58857  1.0000
  C   C1026     1.0  0.02844  0.58346  0.54391  1.0000
  H   H1268     1.0  0.41297  0.48498  0.51480  1.0000
  N   N72       1.0  0.38557  0.55602  0.70880  1.0000
  H   H1269     1.0  0.48205  0.34246  0.56239  1.0000
  H   H1270     1.0  0.33244  0.58900  0.51137  1.0000
  C   C1027     1.0  0.42607  0.32135  0.65831  1.0000
  C   C1028     1.0  0.39252  0.32347  0.59538  1.0000
  H   H1271     1.0  0.39037  0.33418  0.62922  1.0000
  H   H1272     1.0  0.00921  0.57953  0.57784  1.0000
  H   H1273     1.0  0.44208  0.60104  0.71957  1.0000
  H   H1274     1.0  0.46785  0.55539  0.72526  1.0000
  C   C1029     1.0  0.47042  0.40179  0.61486  1.0000
  C   C1030     1.0  0.37657  0.31787  0.59686  1.0000
  C   C1031     1.0  0.32125  0.59457  0.50466  1.0000
  H   H1275     1.0  0.00188  0.62404  0.54808  1.0000
  H   H1276     1.0  0.45800  0.42046  0.63877  1.0000
  C   C1032     1.0  0.47225  0.39276  0.64687  1.0000
  H   H1277     1.0  0.11891  0.64284  0.49608  1.0000
  H   H1278     1.0  0.28060  0.62277  0.50921  1.0000
  Fe  Fe147     1.0  0.42683  0.45552  0.71937  1.0000
  H   H1279     1.0  0.99661  0.44230  0.54429  1.0000
  H   H1280     1.0  0.40570  0.46093  0.48331  1.0000
  C   C1033     1.0  0.18085  0.51931  0.48590  1.0000
  C   C1034     1.0  0.29519  0.53811  0.47984  1.0000
  H   H1281     1.0  0.47384  0.39716  0.60199  1.0000
  C   C1035     1.0  0.47749  0.38041  0.66208  1.0000
  C   C1036     1.0  0.42484  0.31762  0.67669  1.0000
  C   C1037     1.0  0.99031  0.43738  0.57290  1.0000
  H   H1282     1.0  0.20845  0.52263  0.48113  1.0000
  C   C1038     1.0  0.99552  0.57657  0.54141  1.0000
  H   H1283     1.0  0.04460  0.64537  0.53678  1.0000
  H   H1284     1.0  0.14254  0.58811  0.47886  1.0000
  C   C1039     1.0  0.40549  0.47068  0.49125  1.0000
  H   H1285     1.0  0.42892  0.43751  0.48602  1.0000
  C   C1040     1.0  0.45427  0.59974  0.72478  1.0000
  H   H1286     1.0  0.44076  0.51979  0.72492  1.0000
  H   H1287     1.0  0.36674  0.61984  0.72286  1.0000
  C   C1041     1.0  0.19548  0.52352  0.49011  1.0000
  C   C1042     1.0  0.13167  0.63460  0.49860  1.0000
  H   H1288     1.0  0.19414  0.48587  0.48075  1.0000
  H   H1289     1.0  0.40730  0.52655  0.72726  1.0000
  H   H1290     1.0  0.16230  0.49790  0.47793  1.0000
  H   H1291     1.0  0.28930  0.57408  0.47747  1.0000
  H   H1292     1.0  0.39785  0.47177  0.77102  1.0000
  S   S291      1.0  0.37149  0.59616  0.78805  1.0000
  S   S292      1.0  0.44855  0.50562  0.80076  1.0000
  Fe  Fe148     1.0  0.45110  0.52640  0.81384  1.0000
  S   S293      1.0  0.42657  0.54003  0.83064  1.0000
  H   H1293     1.0  0.39791  0.35089  0.91785  1.0000
  Fe  Fe149     1.0  0.40699  0.40211  0.85980  1.0000
  S   S294      1.0  0.40634  0.43169  0.85426  1.0000
  Fe  Fe150     1.0  0.38097  0.37702  0.87640  1.0000
  S   S295      1.0  0.35334  0.37505  0.89248  1.0000
  Fe  Fe151     1.0  0.42013  0.36385  0.87786  1.0000
  Fe  Fe152     1.0  0.40839  0.37162  0.84250  1.0000
  S   S296      1.0  0.39931  0.38640  0.88758  1.0000
  S   S297      1.0  0.38662  0.39471  0.84950  1.0000
  C   C1043     1.0  0.45294  0.47442  0.73535  1.0000
  C   C1044     1.0  0.19079  0.35576  0.88478  1.0000
  Fe  Fe153     1.0  0.15703  0.39955  0.95801  1.0000
  H   H1294     1.0  0.47590  0.61676  0.84005  1.0000
  S   S298      1.0  0.17742  0.40572  0.93294  1.0000
  S   S299      1.0  0.40892  0.61115  0.74864  1.0000
  H   H1295     1.0  0.18711  0.34882  0.86197  1.0000
  H   H1296     1.0  0.46386  0.38674  0.90809  1.0000
  S   S300      1.0  0.47779  0.46036  0.82146  1.0000
  C   C1045     1.0  0.15672  0.47330  0.95659  1.0000
  H   H1297     1.0  0.17946  0.43107  0.95233  1.0000
  H   H1298     1.0  0.41415  0.42142  0.78160  1.0000
  H   H1299     1.0  0.43440  0.57646  0.74402  1.0000
  H   H1300     1.0  0.42907  0.59407  0.79610  1.0000
  C   C1046     1.0  0.45031  0.34072  0.92541  1.0000
  H   H1301     1.0  0.16115  0.47309  0.92190  1.0000
  C   C1047     1.0  0.48526  0.59318  0.73964  1.0000
  H   H1302     1.0  0.44232  0.39122  0.80823  1.0000
  H   H1303     1.0  0.43541  0.46987  0.80197  1.0000
  H   H1304     1.0  0.37992  0.53956  0.80286  1.0000
  H   H1305     1.0  0.46141  0.42593  0.75816  1.0000
  H   H1306     1.0  0.36341  0.35873  0.86138  1.0000
  H   H1307     1.0  0.28644  0.33606  0.94258  1.0000
  H   H1308     1.0  0.40007  0.51883  0.82189  1.0000
  H   H1309     1.0  0.03839  0.36544  0.82780  1.0000
  C   C1048     1.0  0.44965  0.40772  0.78177  1.0000
  S   S301      1.0  0.09144  0.34601  0.88051  1.0000
  H   H1310     1.0  0.05358  0.35282  0.85328  1.0000
  Fe  Fe154     1.0  0.48192  0.35308  0.96681  1.0000
  C   C1049     1.0  0.42580  0.61828  0.81402  1.0000
  Fe  Fe155     1.0  0.28722  0.33069  0.88026  1.0000
  H   H1311     1.0  0.02554  0.31804  0.83007  1.0000
  Fe  Fe156     1.0  0.26035  0.33438  0.91520  1.0000
  H   H1312     1.0  0.47373  0.48698  0.76144  1.0000
  S   S302      1.0  0.24936  0.34859  0.93814  1.0000
  H   H1313     1.0  0.44725  0.37681  0.89112  1.0000
  C   C1050     1.0  0.33814  0.34590  0.97101  1.0000
  S   S303      1.0  0.25832  0.34435  0.88645  1.0000
  C   C1051     1.0  0.40444  0.55194  0.75652  1.0000
  S   S304      1.0  0.30921  0.34111  0.85886  1.0000
  S   S305      1.0  0.39325  0.40856  0.74897  1.0000
  C   C1052     1.0  0.38656  0.32308  0.80923  1.0000
  C   C1053     1.0  0.01051  0.35324  0.87556  1.0000
  C   C1054     1.0  0.02925  0.35030  0.87281  1.0000
  C   C1055     1.0  0.03921  0.35461  0.85552  1.0000
  C   C1056     1.0  0.03056  0.36186  0.84110  1.0000
  H   H1314     1.0  0.00772  0.50177  0.96459  1.0000
  Fe  Fe157     1.0  0.47371  0.48997  0.80983  1.0000
  C   C1057     1.0  0.44168  0.46420  0.83532  1.0000
  H   H1315     1.0  0.38935  0.57883  0.75619  1.0000
  C   C1058     1.0  0.38745  0.56887  0.73402  1.0000
  H   H1316     1.0  0.45393  0.45479  0.86838  1.0000
  C   C1059     1.0  0.40368  0.49209  0.79261  1.0000
  H   H1317     1.0  0.46006  0.47587  0.85728  1.0000
  H   H1318     1.0  0.35924  0.36062  0.96134  1.0000
  H   H1319     1.0  0.30797  0.34085  0.93077  1.0000
  S   S306      1.0  0.10264  0.37471  0.96433  1.0000
  C   C1060     1.0  0.41184  0.47174  0.77134  1.0000
  H   H1320     1.0  0.42003  0.45870  0.76830  1.0000
  H   H1321     1.0  0.00983  0.34087  0.80767  1.0000
  C   C1061     1.0  0.41892  0.40672  0.78311  1.0000
  H   H1322     1.0  0.14991  0.32897  0.87915  1.0000
  C   C1062     1.0  0.10922  0.36026  0.94915  1.0000
  H   H1323     1.0  0.48224  0.48596  0.86905  1.0000
  C   C1063     1.0  0.13187  0.33993  0.93260  1.0000
  C   C1064     1.0  0.11876  0.33616  0.92596  1.0000
  C   C1065     1.0  0.10091  0.34479  0.93056  1.0000
  C   C1066     1.0  0.09615  0.35670  0.94225  1.0000
  H   H1324     1.0  0.40533  0.32870  0.94234  1.0000
  C   C1067     1.0  0.47981  0.47532  0.88122  1.0000
  H   H1325     1.0  0.09071  0.34199  0.92548  1.0000
  H   H1326     1.0  0.08226  0.36308  0.94610  1.0000
  C   C1068     1.0  0.45039  0.40068  0.80003  1.0000
  H   H1327     1.0  0.31774  0.37728  0.93179  1.0000
  H   H1328     1.0  0.41072  0.32856  0.97345  1.0000
  C   C1069     1.0  0.47249  0.41758  0.79826  1.0000
  H   H1329     1.0  0.44731  0.47314  0.87960  1.0000
  S   S307      1.0  0.34232  0.36371  0.73953  1.0000
  C   C1070     1.0  0.16745  0.34290  0.80065  1.0000
  H   H1330     1.0  0.46501  0.40900  0.93697  1.0000
  H   H1331     1.0  0.12313  0.36166  0.86327  1.0000
  H   H1332     1.0  0.26024  0.33238  0.78450  1.0000
  C   C1071     1.0  0.19747  0.38996  0.93428  1.0000
  C   C1072     1.0  0.20144  0.38108  0.95094  1.0000
  C   C1073     1.0  0.21761  0.36868  0.95198  1.0000
  C   C1074     1.0  0.22953  0.36463  0.93640  1.0000
  C   C1075     1.0  0.22546  0.37333  0.91974  1.0000
  C   C1076     1.0  0.20956  0.38620  0.91868  1.0000
  H   H1333     1.0  0.37912  0.58141  0.72900  1.0000
  H   H1334     1.0  0.40912  0.55091  0.76851  1.0000
  H   H1335     1.0  0.23470  0.37040  0.90767  1.0000
  H   H1336     1.0  0.20651  0.39307  0.90578  1.0000
  H   H1337     1.0  0.34603  0.34511  0.84850  1.0000
  H   H1338     1.0  0.29754  0.33974  0.82347  1.0000
  S   S308      1.0  0.15288  0.37157  0.96917  1.0000
  H   H1339     1.0  0.45220  0.40746  0.74615  1.0000
  C   C1077     1.0  0.35721  0.37592  0.74117  1.0000
  N   N73       1.0  0.46125  0.58097  0.73320  1.0000
  H   H1340     1.0  0.47061  0.46000  0.75323  1.0000
  C   C1078     1.0  0.37987  0.39606  0.74506  1.0000
  C   C1079     1.0  0.38003  0.37867  0.75505  1.0000
  C   C1080     1.0  0.36880  0.36859  0.75306  1.0000
  S   S309      1.0  0.41249  0.36607  0.81504  1.0000
  H   H1341     1.0  0.38881  0.37302  0.76443  1.0000
  H   H1342     1.0  0.36881  0.35533  0.76108  1.0000
  N   N74       1.0  0.41327  0.47427  0.78882  1.0000
  C   C1081     1.0  0.14755  0.44885  0.94926  1.0000
  S   S310      1.0  0.45039  0.45475  0.73077  1.0000
  C   C1082     1.0  0.39341  0.56760  0.74952  1.0000
  C   C1083     1.0  0.48334  0.42813  0.89473  1.0000
  C   C1084     1.0  0.34157  0.36516  0.88307  1.0000
  C   C1085     1.0  0.32371  0.36450  0.89105  1.0000
  C   C1086     1.0  0.31382  0.35703  0.88367  1.0000
  C   C1087     1.0  0.32181  0.35002  0.86834  1.0000
  C   C1088     1.0  0.33977  0.35051  0.86038  1.0000
  C   C1089     1.0  0.34965  0.35813  0.86772  1.0000
  H   H1343     1.0  0.31744  0.37010  0.90276  1.0000
  H   H1344     1.0  0.29985  0.35713  0.88961  1.0000
  H   H1345     1.0  0.16948  0.36160  0.84166  1.0000
  S   S311      1.0  0.40113  0.35320  0.86868  1.0000
  C   C1090     1.0  0.45811  0.45236  0.83201  1.0000
  C   C1091     1.0  0.42654  0.43921  0.84695  1.0000
  C   C1092     1.0  0.44307  0.42733  0.84459  1.0000
  C   C1093     1.0  0.45886  0.43392  0.83728  1.0000
  H   H1346     1.0  0.44363  0.41310  0.84829  1.0000
  H   H1347     1.0  0.47164  0.42470  0.83545  1.0000
  C   C1094     1.0  0.45705  0.50518  0.74409  1.0000
  S   S312      1.0  0.43589  0.34342  0.89678  1.0000
  H   H1348     1.0  0.37418  0.35494  0.92695  1.0000
  C   C1095     1.0  0.46375  0.47299  0.74734  1.0000
  C   C1096     1.0  0.46561  0.48828  0.75191  1.0000
  H   H1349     1.0  0.27258  0.36865  0.94212  1.0000
  H   H1350     1.0  0.38276  0.34966  0.90542  1.0000
  C   C1097     1.0  0.38684  0.58014  0.79949  1.0000
  C   C1098     1.0  0.40457  0.57474  0.79082  1.0000
  C   C1099     1.0  0.41660  0.56167  0.80006  1.0000
  C   C1100     1.0  0.41119  0.55466  0.81825  1.0000
  C   C1101     1.0  0.39349  0.56009  0.82693  1.0000
  C   C1102     1.0  0.38125  0.57254  0.81748  1.0000
  H   H1351     1.0  0.40894  0.58040  0.77693  1.0000
  H   H1352     1.0  0.43017  0.55743  0.79322  1.0000
  H   H1353     1.0  0.38921  0.55467  0.84098  1.0000
  H   H1354     1.0  0.36754  0.57662  0.82423  1.0000
  C   C1103     1.0  0.46451  0.36299  0.92890  1.0000
  S   S313      1.0  0.46724  0.54071  0.78939  1.0000
  H   H1355     1.0  0.17468  0.50285  0.96808  1.0000
  H   H1356     1.0  0.43572  0.62508  0.80369  1.0000
  H   H1357     1.0  0.19216  0.38393  0.96305  1.0000
  S   S314      1.0  0.47481  0.50967  0.82519  1.0000
  S   S315      1.0  0.42952  0.38025  0.85075  1.0000
  S   S316      1.0  0.44468  0.62437  0.76529  1.0000
  H   H1358     1.0  0.43408  0.37772  0.76888  1.0000
  H   H1359     1.0  0.28828  0.32172  0.80821  1.0000
  Fe  Fe158     1.0  0.41814  0.63168  0.75689  1.0000
  C   C1104     1.0  0.40581  0.46023  0.80301  1.0000
  C   C1105     1.0  0.43265  0.47160  0.78855  1.0000
  C   C1106     1.0  0.40061  0.31656  0.91570  1.0000
  H   H1360     1.0  0.37413  0.53014  0.77783  1.0000
  C   C1107     1.0  0.45934  0.34651  0.93525  1.0000
  H   H1361     1.0  0.46435  0.63063  0.78816  1.0000
  S   S317      1.0  0.11836  0.35063  0.83221  1.0000
  N   N75       1.0  0.47532  0.45997  0.87709  1.0000
  H   H1362     1.0  0.45171  0.56662  0.83550  1.0000
  C   C1108     1.0  0.01877  0.50720  0.96617  1.0000
  C   C1109     1.0  0.31316  0.35570  0.95524  1.0000
  C   C1110     1.0  0.47292  0.44585  0.89343  1.0000
  C   C1111     1.0  0.45956  0.44959  0.90865  1.0000
  C   C1112     1.0  0.00717  0.33114  0.80184  1.0000
  C   C1113     1.0  0.45680  0.43644  0.92415  1.0000
  C   C1114     1.0  0.46724  0.41925  0.92499  1.0000
  C   C1115     1.0  0.40315  0.53839  0.73287  1.0000
  C   C1116     1.0  0.45611  0.60962  0.83036  1.0000
  H   H1363     1.0  0.36735  0.33172  0.90162  1.0000
  H   H1364     1.0  0.41785  0.52528  0.75384  1.0000
  C   C1117     1.0  0.16459  0.49665  0.96657  1.0000
  H   H1365     1.0  0.45025  0.60871  0.73452  1.0000
  H   H1366     1.0  0.17077  0.44050  0.97194  1.0000
  C   C1118     1.0  0.47062  0.57442  0.84514  1.0000
  H   H1367     1.0  0.46890  0.48180  0.89098  1.0000
  H   H1368     1.0  0.13732  0.35470  0.94925  1.0000
  H   H1369     1.0  0.45101  0.46269  0.90862  1.0000
  H   H1370     1.0  0.05379  0.55317  0.96317  1.0000
  H   H1371     1.0  0.44643  0.43953  0.93558  1.0000
  H   H1372     1.0  0.42242  0.57618  0.83635  1.0000
  C   C1119     1.0  0.47039  0.60591  0.83906  1.0000
  C   C1120     1.0  0.40225  0.34962  0.81304  1.0000
  C   C1121     1.0  0.20356  0.33155  0.93469  1.0000
  S   S318      1.0  0.00175  0.37461  0.82525  1.0000
  N   N76       1.0  0.38655  0.32724  0.92745  1.0000
  C   C1122     1.0  0.45844  0.46623  0.87035  1.0000
  S   S319      1.0  0.33922  0.32539  0.78322  1.0000
  H   H1373     1.0  0.13920  0.36761  0.89969  1.0000
  S   S320      1.0  0.47790  0.36953  0.93967  1.0000
  C   C1123     1.0  0.17075  0.46271  0.92915  1.0000
  C   C1124     1.0  0.17592  0.44376  0.95728  1.0000
  H   H1374     1.0  0.19093  0.36352  0.90886  1.0000
  C   C1125     1.0  0.14663  0.50301  0.97349  1.0000
  C   C1126     1.0  0.20122  0.32025  0.92492  1.0000
  H   H1375     1.0  0.14521  0.33549  0.85719  1.0000
  C   C1127     1.0  0.46166  0.40556  0.80808  1.0000
  H   H1376     1.0  0.12763  0.47456  0.96317  1.0000
  C   C1128     1.0  0.28632  0.36979  0.94216  1.0000
  C   C1129     1.0  0.38527  0.34647  0.91910  1.0000
  H   H1377     1.0  0.00268  0.35022  0.88893  1.0000
  N   N77       1.0  0.29577  0.35363  0.95311  1.0000
  C   C1130     1.0  0.46090  0.41994  0.77212  1.0000
  H   H1378     1.0  0.00025  0.53995  0.96968  1.0000
  N   N78       1.0  0.43337  0.59902  0.82002  1.0000
  H   H1379     1.0  0.18286  0.46820  0.92725  1.0000
  H   H1380     1.0  0.23329  0.33801  0.83567  1.0000
  Fe  Fe159     1.0  0.34853  0.33518  0.75396  1.0000
  S   S321      1.0  0.37705  0.32085  0.75343  1.0000
  H   H1381     1.0  0.46202  0.39993  0.82203  1.0000
  C   C1131     1.0  0.16126  0.35830  0.87849  1.0000
  C   C1132     1.0  0.18025  0.35388  0.87393  1.0000
  C   C1133     1.0  0.15351  0.36429  0.89481  1.0000
  H   H1382     1.0  0.48082  0.43383  0.77273  1.0000
  C   C1134     1.0  0.16419  0.36610  0.90555  1.0000
  C   C1135     1.0  0.18277  0.36196  0.90050  1.0000
  H   H1383     1.0  0.15235  0.43685  0.94313  1.0000
  H   H1384     1.0  0.44069  0.45940  0.78358  1.0000
  N   N79       1.0  0.16249  0.45744  0.94827  1.0000
  H   H1385     1.0  0.44178  0.37490  0.78876  1.0000
  C   C1136     1.0  0.14564  0.32166  0.82607  1.0000
  H   H1386     1.0  0.48180  0.54950  0.74782  1.0000
  S   S322      1.0  0.22975  0.31750  0.87657  1.0000
  C   C1137     1.0  0.23456  0.32066  0.81204  1.0000
  H   H1387     1.0  0.16765  0.33194  0.85982  1.0000
  C   C1138     1.0  0.45643  0.57795  0.83642  1.0000
  H   H1388     1.0  0.99735  0.39990  0.85077  1.0000
  C   C1139     1.0  0.00183  0.36035  0.86105  1.0000
  C   C1140     1.0  0.04959  0.54188  0.97301  1.0000
  Fe  Fe160     1.0  0.25279  0.31730  0.88863  1.0000
  Fe  Fe161     1.0  0.38380  0.61798  0.76853  1.0000
  C   C1141     1.0  0.44292  0.38248  0.77475  1.0000
  C   C1142     1.0  0.47781  0.57860  0.73975  1.0000
  C   C1143     1.0  0.15352  0.33739  0.86568  1.0000
  H   H1389     1.0  0.40955  0.35517  0.78430  1.0000
  H   H1390     1.0  0.20529  0.35231  0.88103  1.0000
  H   H1391     1.0  0.41383  0.59639  0.84468  1.0000
  C   C1144     1.0  0.13085  0.36273  0.87275  1.0000
  S   S323      1.0  0.39379  0.63689  0.77831  1.0000
  C   C1145     1.0  0.44687  0.50671  0.73147  1.0000
  H   H1392     1.0  0.39309  0.34088  0.84127  1.0000
  N   N80       1.0  0.43777  0.40209  0.77353  1.0000
  H   H1393     1.0  0.40685  0.59345  0.82589  1.0000
  H   H1394     1.0  0.45093  0.56087  0.75486  1.0000
  H   H1395     1.0  0.45152  0.59560  0.79518  1.0000
  C   C1146     1.0  0.46270  0.64233  0.77763  1.0000
  C   C1147     1.0  0.15027  0.35072  0.80877  1.0000
  H   H1396     1.0  0.14571  0.33362  0.92875  1.0000
  N   N81       1.0  0.15041  0.35643  0.86664  1.0000
  C   C1148     1.0  0.36855  0.40335  0.73290  1.0000
  H   H1397     1.0  0.44412  0.58318  0.75883  1.0000
  C   C1149     1.0  0.43960  0.59076  0.80412  1.0000
  C   C1150     1.0  0.00697  0.32246  0.77478  1.0000
  C   C1151     1.0  0.47751  0.58836  0.84657  1.0000
  Fe  Fe162     1.0  0.46661  0.51844  0.77698  1.0000
  H   H1398     1.0  0.41682  0.48228  0.76018  1.0000
  H   H1399     1.0  0.43397  0.42538  0.75244  1.0000
  C   C1152     1.0  0.39482  0.33395  0.79408  1.0000
  H   H1400     1.0  0.17582  0.35116  0.79075  1.0000
  H   H1401     1.0  0.27539  0.35678  0.84450  1.0000
  C   C1153     1.0  0.38630  0.52636  0.80015  1.0000
  H   H1402     1.0  0.44107  0.47842  0.83210  1.0000
  C   C1154     1.0  0.39765  0.51468  0.81084  1.0000
  C   C1155     1.0  0.43850  0.41061  0.75438  1.0000
  H   H1403     1.0  0.24338  0.35559  0.85040  1.0000
  S   S324      1.0  0.04000  0.34140  0.89108  1.0000
  N   N82       1.0  0.33843  0.37589  0.80338  1.0000
  C   C1156     1.0  0.32332  0.36638  0.80997  1.0000
  C   C1157     1.0  0.33641  0.38736  0.78566  1.0000
  C   C1158     1.0  0.35519  0.36217  0.80119  1.0000
  C   C1159     1.0  0.33937  0.38687  0.81552  1.0000
  C   C1160     1.0  0.32737  0.38756  0.83229  1.0000
  C   C1161     1.0  0.35306  0.39682  0.81095  1.0000
  C   C1162     1.0  0.32930  0.39733  0.84381  1.0000
  C   C1163     1.0  0.35476  0.40664  0.82252  1.0000
  C   C1164     1.0  0.34299  0.40678  0.83899  1.0000
  H   H1404     1.0  0.31019  0.37589  0.81192  1.0000
  H   H1405     1.0  0.32287  0.35851  0.80037  1.0000
  H   H1406     1.0  0.32464  0.35669  0.82278  1.0000
  H   H1407     1.0  0.32446  0.39844  0.78689  1.0000
  H   H1408     1.0  0.33488  0.37964  0.77640  1.0000
  H   H1409     1.0  0.34822  0.39346  0.77879  1.0000
  H   H1410     1.0  0.35763  0.35394  0.81437  1.0000
  H   H1411     1.0  0.35486  0.35292  0.79290  1.0000
  H   H1412     1.0  0.36713  0.36813  0.79461  1.0000
  H   H1413     1.0  0.31672  0.38021  0.83713  1.0000
  H   H1414     1.0  0.36284  0.39675  0.79852  1.0000
  H   H1415     1.0  0.32044  0.39710  0.85684  1.0000
  H   H1416     1.0  0.36556  0.41382  0.81889  1.0000
  H   H1417     1.0  0.34469  0.41393  0.84819  1.0000
  H   H1418     1.0  0.39532  0.33202  0.78092  1.0000
  C   C1165     1.0  0.12715  0.35201  0.94408  1.0000
  H   H1419     1.0  0.42093  0.62533  0.82536  1.0000
  H   H1420     1.0  0.40977  0.40161  0.77802  1.0000
  H   H1421     1.0  0.28500  0.38196  0.94733  1.0000
  N   N83       1.0  0.25418  0.31685  0.81116  1.0000
  C   C1166     1.0  0.41853  0.59093  0.83228  1.0000
  C   C1167     1.0  0.16961  0.48214  0.95807  1.0000
  H   H1422     1.0  0.22946  0.33494  0.80637  1.0000
  H   H1423     1.0  0.29315  0.37187  0.92787  1.0000
  H   H1424     1.0  0.41439  0.48905  0.81622  1.0000
  C   C1168     1.0  0.42595  0.45762  0.84285  1.0000
  H   H1425     1.0  0.15459  0.38117  0.84861  1.0000
  H   H1426     1.0  0.45699  0.37845  0.76769  1.0000
  H   H1427     1.0  0.14544  0.36500  0.80517  1.0000
  H   H1428     1.0  0.17505  0.45104  0.92245  1.0000
  C   C1169     1.0  0.44601  0.35159  0.90944  1.0000
  H   H1429     1.0  0.38869  0.50103  0.77095  1.0000
  H   H1430     1.0  0.44670  0.32779  0.93016  1.0000
  C   C1170     1.0  0.32263  0.36851  0.94318  1.0000
  H   H1431     1.0  0.38249  0.33200  0.95391  1.0000
  C   C1171     1.0  0.40929  0.53742  0.74822  1.0000
  H   H1432     1.0  0.47627  0.56078  0.85087  1.0000
  C   C1172     1.0  0.38311  0.52103  0.78603  1.0000
  C   C1173     1.0  0.45056  0.36836  0.90343  1.0000
  S   S325      1.0  0.45851  0.52440  0.75041  1.0000
  C   C1174     1.0  0.40598  0.49770  0.80734  1.0000
  C   C1175     1.0  0.25962  0.32884  0.81942  1.0000
  C   C1176     1.0  0.27795  0.32951  0.81669  1.0000
  C   C1177     1.0  0.24730  0.33853  0.83191  1.0000
  C   C1178     1.0  0.28347  0.33967  0.82549  1.0000
  C   C1179     1.0  0.25298  0.34865  0.84062  1.0000
  C   C1180     1.0  0.27100  0.34926  0.83740  1.0000
  H   H1433     1.0  0.39135  0.46151  0.80348  1.0000
  H   H1434     1.0  0.41321  0.46682  0.84527  1.0000
  C   C1181     1.0  0.13938  0.34016  0.82158  1.0000
  H   H1435     1.0  0.41298  0.44657  0.80101  1.0000
  C   C1182     1.0  0.01189  0.36479  0.84379  1.0000
  H   H1436     1.0  0.40689  0.46100  0.81650  1.0000
  H   H1437     1.0  0.44335  0.57594  0.80778  1.0000
  H   H1438     1.0  0.45131  0.62351  0.82480  1.0000
  C   C1183     1.0  0.39166  0.50418  0.78219  1.0000
  H   H1439     1.0  0.39827  0.31978  0.90186  1.0000
  S   S326      1.0  0.12510  0.32031  0.91227  1.0000
  Fe  Fe163     1.0  0.10471  0.33374  0.85660  1.0000
  H   H1440     1.0  0.21116  0.31830  0.91296  1.0000
  H   H1441     1.0  0.46261  0.33804  0.94752  1.0000
  H   H1442     1.0  0.16623  0.33013  0.96743  1.0000
  C   C1184     1.0  0.15563  0.36694  0.84836  1.0000
  S   S327      1.0  0.40057  0.45593  0.73862  1.0000
  H   H1443     1.0  0.13736  0.45794  0.94184  1.0000
  H   H1444     1.0  0.42958  0.40588  0.74861  1.0000
  C   C1185     1.0  0.17375  0.32445  0.80512  1.0000
  C   C1186     1.0  0.13845  0.48040  0.96346  1.0000
  H   H1445     1.0  0.18874  0.44808  0.95501  1.0000
  Fe  Fe164     1.0  0.12366  0.38411  0.97202  1.0000
  S   S328      1.0  0.08188  0.32133  0.85795  1.0000
  C   C1187     1.0  0.44850  0.59570  0.82905  1.0000
  C   C1188     1.0  0.36145  0.32488  0.91466  1.0000
  C   C1189     1.0  0.39366  0.33900  0.82812  1.0000
  H   H1446     1.0  0.16894  0.32179  0.90357  1.0000
  C   C1190     1.0  0.47214  0.42469  0.78033  1.0000
  H   H1447     1.0  0.21518  0.33765  0.93035  1.0000
  H   H1448     1.0  0.03095  0.49630  0.96616  1.0000
  C   C1191     1.0  0.45998  0.37395  0.91305  1.0000
  H   H1449     1.0  0.43814  0.48322  0.77983  1.0000
  H   H1450     1.0  0.41421  0.62025  0.80768  1.0000
  H   H1451     1.0  0.41698  0.40078  0.79760  1.0000
  C   C1192     1.0  0.29913  0.33847  0.94423  1.0000
  S   S329      1.0  0.48268  0.32354  0.97563  1.0000
  H   H1452     1.0  0.14684  0.36674  0.83946  1.0000
  C   C1193     1.0  0.33902  0.37025  0.94543  1.0000
  H   H1453     1.0  0.15800  0.37079  0.91790  1.0000
  C   C1194     1.0  0.40284  0.34705  0.79601  1.0000
  H   H1454     1.0  0.12562  0.35457  0.88590  1.0000
  H   H1455     1.0  0.22075  0.36203  0.96487  1.0000
  S   S330      1.0  0.12798  0.41172  0.95882  1.0000
  H   H1456     1.0  0.30576  0.32592  0.95217  1.0000
  H   H1457     1.0  0.12749  0.37702  0.87376  1.0000
  C   C1195     1.0  0.36928  0.32204  0.92967  1.0000
  C   C1196     1.0  0.44707  0.57513  0.74838  1.0000
  H   H1458     1.0  0.41410  0.31909  0.91455  1.0000
  H   H1459     1.0  0.14081  0.44437  0.96335  1.0000
  S   S331      1.0  0.37005  0.63945  0.74888  1.0000
  C   C1197     1.0  0.03534  0.53531  0.97157  1.0000
  H   H1460     1.0  0.48124  0.42139  0.80448  1.0000
  H   H1461     1.0  0.01352  0.34698  0.77541  1.0000
  H   H1462     1.0  0.48679  0.44303  0.85780  1.0000
  Fe  Fe165     1.0  0.39613  0.63400  0.72953  1.0000
  H   H1463     1.0  0.26979  0.34979  0.96914  1.0000
  H   H1464     1.0  0.48507  0.59764  0.78040  1.0000
  H   H1465     1.0  0.00912  0.32047  0.90983  1.0000
  H   H1466     1.0  0.34591  0.38019  0.93606  1.0000
  H   H1467     1.0  0.99684  0.33841  0.83584  1.0000
  H   H1468     1.0  0.02906  0.54174  0.96028  1.0000
  C   C1198     1.0  0.38605  0.32561  0.82623  1.0000
  H   H1469     1.0  0.02472  0.31957  0.93219  1.0000
  C   C1199     1.0  0.00949  0.33472  0.78325  1.0000
  S   S332      1.0  0.28982  0.32343  0.90875  1.0000
  C   C1200     1.0  0.45307  0.64303  0.76481  1.0000
  C   C1201     1.0  0.13359  0.49506  0.97172  1.0000
  C   C1202     1.0  0.19096  0.33512  0.94993  1.0000
  C   C1203     1.0  0.39250  0.32429  0.94447  1.0000
  C   C1204     1.0  0.17609  0.32721  0.95560  1.0000
  H   H1470     1.0  0.22690  0.31710  0.82585  1.0000
  H   H1471     1.0  0.37965  0.31728  0.83799  1.0000
  H   H1472     1.0  0.18371  0.47773  0.95289  1.0000
  Fe  Fe166     1.0  0.10565  0.32059  0.89565  1.0000
  H   H1473     1.0  0.34039  0.32091  0.90435  1.0000
  H   H1474     1.0  0.02146  0.51771  0.95400  1.0000
  C   C1205     1.0  0.32178  0.34398  0.96884  1.0000
  H   H1475     1.0  0.19269  0.34409  0.95734  1.0000
  C   C1206     1.0  0.48679  0.56124  0.74698  1.0000
  C   C1207     1.0  0.26301  0.31833  0.79198  1.0000
  C   C1208     1.0  0.48050  0.41513  0.91035  1.0000
  H   H1476     1.0  0.48841  0.58550  0.85349  1.0000
  H   H1477     1.0  0.19256  0.31705  0.89433  1.0000
  H   H1478     1.0  0.47918  0.60692  0.73485  1.0000
  C   C1209     1.0  0.35712  0.39330  0.73104  1.0000
  C   C1210     1.0  0.34605  0.31864  0.91605  1.0000
  C   C1211     1.0  0.28341  0.34983  0.97069  1.0000
  H   H1479     1.0  0.00916  0.32509  0.76035  1.0000
  C   C1212     1.0  0.34662  0.35915  0.95949  1.0000
  Fe  Fe167     1.0  0.06988  0.33110  0.88349  1.0000
  H   H1480     1.0  0.48847  0.40163  0.91115  1.0000
  C   C1213     1.0  0.44444  0.49133  0.72741  1.0000
  Fe  Fe168     1.0  0.39885  0.43288  0.72820  1.0000
  C   C1214     1.0  0.98965  0.32724  0.83978  1.0000
  H   H1481     1.0  0.22824  0.68277  0.13576  1.0000
  Fe  Fe169     1.0  0.21598  0.77690  0.06322  1.0000
  S   S333      1.0  0.21086  0.77164  0.09310  1.0000
  S   S334      1.0  0.19681  0.79667  0.04723  1.0000
  Fe  Fe170     1.0  0.25409  0.75485  0.06065  1.0000
  S   S335      1.0  0.25188  0.74710  0.09034  1.0000
  S   S336      1.0  0.27975  0.74773  0.04093  1.0000
  Fe  Fe171     1.0  0.22441  0.74330  0.09077  1.0000
  S   S337      1.0  0.21054  0.72183  0.10966  1.0000
  Fe  Fe172     1.0  0.23868  0.77592  0.09001  1.0000
  S   S338      1.0  0.24632  0.79547  0.10172  1.0000
  S   S339      1.0  0.22789  0.74840  0.06095  1.0000
  S   S340      1.0  0.24223  0.78381  0.06029  1.0000
  Fe  Fe173     1.0  0.08692  0.77433  0.00668  1.0000
  S   S341      1.0  0.09190  0.76972  0.03421  1.0000
  S   S342      1.0  0.08019  0.75198  0.99863  1.0000
  Fe  Fe174     1.0  0.09862  0.81006  0.99496  1.0000
  S   S343      1.0  0.10481  0.80786  0.02163  1.0000
  H   H1482     1.0  0.10283  0.74257  0.08024  1.0000
  Fe  Fe175     1.0  0.11722  0.77935  0.02024  1.0000
  S   S344      1.0  0.14365  0.76268  0.02591  1.0000
  Fe  Fe176     1.0  0.07875  0.79872  0.03282  1.0000
  S   S345      1.0  0.06022  0.80947  0.05641  1.0000
  C   C1215     1.0  0.21995  0.82338  0.00012  1.0000
  S   S346      1.0  0.07169  0.80274  0.00618  1.0000
  Fe  Fe177     1.0  0.41983  0.88613  0.02231  1.0000
  S   S347      1.0  0.42246  0.87132  0.05012  1.0000
  S   S348      1.0  0.39630  0.90903  0.02160  1.0000
  Fe  Fe178     1.0  0.36294  0.80869  0.10923  1.0000
  S   S349      1.0  0.33394  0.82113  0.11762  1.0000
  S   S350      1.0  0.37554  0.81232  0.07995  1.0000
  Fe  Fe179     1.0  0.36673  0.78971  0.14723  1.0000
  S   S351      1.0  0.33818  0.80076  0.15860  1.0000
  S   S352      1.0  0.38567  0.77099  0.16401  1.0000
  Fe  Fe180     1.0  0.33178  0.79417  0.13530  1.0000
  S   S353      1.0  0.31295  0.77557  0.13920  1.0000
  Fe  Fe181     1.0  0.34334  0.82645  0.13993  1.0000
  S   S354      1.0  0.33543  0.85192  0.15035  1.0000
  S   S355      1.0  0.36021  0.78137  0.12514  1.0000
  S   S356      1.0  0.37247  0.81571  0.13033  1.0000
  S   S357      1.0  0.04407  0.66052  0.04544  1.0000
  C   C1216     1.0  0.07916  0.66346  0.09427  1.0000
  C   C1217     1.0  0.46178  0.94338  0.14580  1.0000
  C   C1218     1.0  0.35363  0.85926  0.20483  1.0000
  Fe  Fe182     1.0  0.02290  0.68269  0.05562  1.0000
  S   S358      1.0  0.02397  0.71099  0.05524  1.0000
  C   C1219     1.0  0.48110  0.96490  0.13590  1.0000
  C   C1220     1.0  0.17552  0.73490  0.07660  1.0000
  Fe  Fe183     1.0  0.43024  0.91832  0.16344  1.0000
  S   S359      1.0  0.40900  0.93202  0.14772  1.0000
  S   S360      1.0  0.45871  0.92167  0.15640  1.0000
  C   C1221     1.0  0.01231  0.84417  0.06357  1.0000
  H   H1483     1.0  0.46297  0.93051  0.11475  1.0000
  Fe  Fe184     1.0  0.40082  0.90555  0.15507  1.0000
  S   S361      1.0  0.39795  0.89402  0.13299  1.0000
  Fe  Fe185     1.0  0.39153  0.93642  0.17414  1.0000
  S   S362      1.0  0.42375  0.89136  0.16859  1.0000
  H   H1484     1.0  0.38933  0.81351  0.16541  1.0000
  C   C1222     1.0  0.23862  0.67035  0.11363  1.0000
  C   C1223     1.0  0.42699  0.97274  0.02254  1.0000
  C   C1224     1.0  0.33389  0.74505  0.21024  1.0000
  C   C1225     1.0  0.35223  0.86451  0.14468  1.0000
  C   C1226     1.0  0.36639  0.86252  0.13001  1.0000
  C   C1227     1.0  0.38022  0.87186  0.12637  1.0000
  C   C1228     1.0  0.38000  0.88316  0.13744  1.0000
  C   C1229     1.0  0.36568  0.88547  0.15188  1.0000
  C   C1230     1.0  0.35168  0.87640  0.15529  1.0000
  H   H1485     1.0  0.36660  0.85391  0.12136  1.0000
  H   H1486     1.0  0.39120  0.87011  0.11509  1.0000
  H   H1487     1.0  0.36529  0.89431  0.16038  1.0000
  H   H1488     1.0  0.34058  0.87827  0.16644  1.0000
  C   C1231     1.0  0.40958  0.85483  0.05834  1.0000
  C   C1232     1.0  0.40723  0.84516  0.04697  1.0000
  C   C1233     1.0  0.39716  0.83177  0.05382  1.0000
  C   C1234     1.0  0.38902  0.82836  0.07196  1.0000
  C   C1235     1.0  0.39111  0.83831  0.08323  1.0000
  C   C1236     1.0  0.40160  0.85132  0.07650  1.0000
  H   H1489     1.0  0.41361  0.84760  0.03299  1.0000
  H   H1490     1.0  0.39576  0.82400  0.04507  1.0000
  H   H1491     1.0  0.38467  0.83600  0.09712  1.0000
  H   H1492     1.0  0.40336  0.85879  0.08535  1.0000
  C   C1237     1.0  0.03892  0.82245  0.05366  1.0000
  C   C1238     1.0  0.03159  0.82198  0.03958  1.0000
  C   C1239     1.0  0.01469  0.83251  0.03752  1.0000
  H   H1493     1.0  0.07946  0.72096  0.05081  1.0000
  H   H1494     1.0  0.44619  0.94846  0.09094  1.0000
  C   C1240     1.0  0.02923  0.83358  0.06566  1.0000
  H   H1495     1.0  0.03878  0.81328  0.03044  1.0000
  H   H1496     1.0  0.06029  0.88726  0.98706  1.0000
  H   H1497     1.0  0.03489  0.83409  0.07652  1.0000
  C   C1241     1.0  0.06457  0.74062  0.01441  1.0000
  C   C1242     1.0  0.05485  0.74714  0.02966  1.0000
  C   C1243     1.0  0.04249  0.73783  0.04213  1.0000
  C   C1244     1.0  0.04003  0.72183  0.03957  1.0000
  C   C1245     1.0  0.04997  0.71512  0.02448  1.0000
  C   C1246     1.0  0.06209  0.72462  0.01182  1.0000
  H   H1498     1.0  0.05663  0.75950  0.03170  1.0000
  H   H1499     1.0  0.03480  0.74307  0.05378  1.0000
  H   H1500     1.0  0.04802  0.70286  0.02236  1.0000
  H   H1501     1.0  0.06955  0.71959  0.99998  1.0000
  C   C1247     1.0  0.26505  0.78966  0.11185  1.0000
  C   C1248     1.0  0.27306  0.80322  0.11275  1.0000
  C   C1249     1.0  0.28801  0.79907  0.12073  1.0000
  C   C1250     1.0  0.29473  0.78136  0.12832  1.0000
  C   C1251     1.0  0.28671  0.76780  0.12745  1.0000
  C   C1252     1.0  0.27204  0.77190  0.11909  1.0000
  H   H1502     1.0  0.26764  0.81699  0.10727  1.0000
  H   H1503     1.0  0.29400  0.80963  0.12144  1.0000
  H   H1504     1.0  0.29181  0.75407  0.13334  1.0000
  H   H1505     1.0  0.26591  0.76138  0.11857  1.0000
  C   C1253     1.0  0.18255  0.78757  0.04012  1.0000
  C   C1254     1.0  0.18751  0.77000  0.03758  1.0000
  C   C1255     1.0  0.17571  0.76278  0.03239  1.0000
  C   C1256     1.0  0.15876  0.77294  0.03019  1.0000
  C   C1257     1.0  0.15395  0.79066  0.03229  1.0000
  C   C1258     1.0  0.16594  0.79803  0.03706  1.0000
  H   H1506     1.0  0.20045  0.76200  0.03952  1.0000
  H   H1507     1.0  0.17961  0.74917  0.03041  1.0000
  H   H1508     1.0  0.14088  0.79856  0.03064  1.0000
  H   H1509     1.0  0.16211  0.81167  0.03896  1.0000
  C   C1259     1.0  0.28773  0.76738  0.03041  1.0000
  C   C1260     1.0  0.28358  0.78130  0.03951  1.0000
  C   C1261     1.0  0.28625  0.79832  0.03033  1.0000
  C   C1262     1.0  0.29406  0.80125  0.01215  1.0000
  C   C1263     1.0  0.30001  0.78690  0.00336  1.0000
  C   C1264     1.0  0.29681  0.76990  0.01254  1.0000
  H   H1510     1.0  0.27802  0.77896  0.05365  1.0000
  H   H1511     1.0  0.28196  0.80925  0.03731  1.0000
  C   C1265     1.0  0.27041  0.78085  0.98232  1.0000
  H   H1512     1.0  0.30050  0.75901  0.00554  1.0000
  H   H1513     1.0  0.34186  0.86636  0.21264  1.0000
  C   C1266     1.0  0.39659  0.82459  0.15908  1.0000
  C   C1267     1.0  0.21453  0.70174  0.08441  1.0000
  C   C1268     1.0  0.20622  0.70505  0.10146  1.0000
  C   C1269     1.0  0.19416  0.69464  0.11256  1.0000
  Fe  Fe186     1.0  0.41605  0.92470  0.00296  1.0000
  C   C1270     1.0  0.45096  0.96138  0.03906  1.0000
  H   H1514     1.0  0.22395  0.70962  0.07577  1.0000
  H   H1515     1.0  0.18768  0.69722  0.12569  1.0000
  H   H1516     1.0  0.13264  0.69371  0.10587  1.0000
  C   C1271     1.0  0.09265  0.71845  0.05463  1.0000
  N   N84       1.0  0.10646  0.70593  0.04466  1.0000
  C   C1272     1.0  0.40434  0.96722  0.07602  1.0000
  H   H1517     1.0  0.10965  0.72769  0.02156  1.0000
  N   N85       1.0  0.05832  0.86373  0.00772  1.0000
  C   C1273     1.0  0.42918  0.95586  0.01866  1.0000
  C   C1274     1.0  0.45163  0.97305  0.12889  1.0000
  H   H1518     1.0  0.23109  0.81373  0.03055  1.0000
  C   C1275     1.0  0.38579  0.85211  0.19476  1.0000
  C   C1276     1.0  0.39242  0.76608  0.21410  1.0000
  C   C1277     1.0  0.39374  0.76296  0.19710  1.0000
  C   C1278     1.0  0.38328  0.77485  0.18545  1.0000
  C   C1279     1.0  0.37127  0.78977  0.19095  1.0000
  C   C1280     1.0  0.37014  0.79304  0.20783  1.0000
  C   C1281     1.0  0.24720  0.83430  0.98841  1.0000
  H   H1519     1.0  0.40298  0.75134  0.19293  1.0000
  H   H1520     1.0  0.36305  0.79892  0.18212  1.0000
  H   H1521     1.0  0.46694  0.90665  0.11882  1.0000
  C   C1282     1.0  0.44842  0.95611  0.13816  1.0000
  H   H1522     1.0  0.18087  0.67127  0.14754  1.0000
  H   H1523     1.0  0.43577  0.95284  0.13902  1.0000
  N   N86       1.0  0.34836  0.86394  0.04017  1.0000
  C   C1283     1.0  0.36555  0.85822  0.02801  1.0000
  C   C1284     1.0  0.34213  0.88349  0.03467  1.0000
  C   C1285     1.0  0.35210  0.86031  0.05835  1.0000
  C   C1286     1.0  0.33464  0.85477  0.03916  1.0000
  C   C1287     1.0  0.33071  0.85565  0.02241  1.0000
  C   C1288     1.0  0.32429  0.84549  0.05455  1.0000
  C   C1289     1.0  0.31744  0.84764  0.02111  1.0000
  C   C1290     1.0  0.31091  0.83766  0.05309  1.0000
  C   C1291     1.0  0.30752  0.83872  0.03641  1.0000
  H   H1524     1.0  0.36462  0.86230  0.01374  1.0000
  H   H1525     1.0  0.37634  0.86437  0.02900  1.0000
  H   H1526     1.0  0.37020  0.84347  0.03110  1.0000
  H   H1527     1.0  0.33942  0.88733  0.02095  1.0000
  H   H1528     1.0  0.35234  0.89096  0.03455  1.0000
  H   H1529     1.0  0.32948  0.88846  0.04373  1.0000
  H   H1530     1.0  0.35614  0.84573  0.06351  1.0000
  H   H1531     1.0  0.36328  0.86641  0.05848  1.0000
  H   H1532     1.0  0.34029  0.86583  0.06801  1.0000
  H   H1533     1.0  0.33774  0.86274  0.01017  1.0000
  H   H1534     1.0  0.32619  0.84415  0.06788  1.0000
  H   H1535     1.0  0.31873  0.74285  0.17383  1.0000
  C   C1292     1.0  0.22796  0.67154  0.13056  1.0000
  H   H1536     1.0  0.00721  0.89971  0.05332  1.0000
  C   C1293     1.0  0.07043  0.84959  0.01794  1.0000
  H   H1537     1.0  0.31472  0.84842  0.00814  1.0000
  H   H1538     1.0  0.40897  0.81863  0.15031  1.0000
  C   C1294     1.0  0.14949  0.71578  0.04937  1.0000
  C   C1295     1.0  0.03548  0.89076  0.04385  1.0000
  H   H1539     1.0  0.38241  0.94424  0.21008  1.0000
  C   C1296     1.0  0.43835  0.87761  0.10444  1.0000
  H   H1540     1.0  0.16845  0.72690  0.11216  1.0000
  H   H1541     1.0  0.17299  0.73649  0.06308  1.0000
  H   H1542     1.0  0.00902  0.83190  0.02670  1.0000
  H   H1543     1.0  0.06278  0.84059  0.02858  1.0000
  Fe  Fe187     1.0  0.99689  0.65856  0.07561  1.0000
  C   C1297     1.0  0.12382  0.70347  0.04981  1.0000
  C   C1298     1.0  0.26499  0.76638  0.99499  1.0000
  H   H1544     1.0  0.48606  0.93321  0.19693  1.0000
  C   C1299     1.0  0.39826  0.96677  0.09424  1.0000
  H   H1545     1.0  0.30302  0.83086  0.06497  1.0000
  C   C1300     1.0  0.37062  0.86108  0.20503  1.0000
  Fe  Fe188     1.0  0.43298  0.89484  0.98212  1.0000
  Fe  Fe189     1.0  0.02135  0.65147  0.04049  1.0000
  H   H1546     1.0  0.07446  0.67728  0.09549  1.0000
  C   C1301     1.0  0.00491  0.84348  0.04960  1.0000
  H   H1547     1.0  0.21132  0.77701  0.00061  1.0000
  H   H1548     1.0  0.30364  0.76659  0.20189  1.0000
  C   C1302     1.0  0.21684  0.65907  0.13978  1.0000
  H   H1549     1.0  0.06245  0.88047  0.03234  1.0000
  C   C1303     1.0  0.44250  0.94186  0.02479  1.0000
  N   N87       1.0  0.46698  0.91662  0.21069  1.0000
  C   C1304     1.0  0.44303  0.93595  0.08972  1.0000
  H   H1550     1.0  0.44445  0.92888  0.02175  1.0000
  Fe  Fe190     1.0  0.39354  0.90089  0.99757  1.0000
  S   S363      1.0  0.36663  0.90007  0.99357  1.0000
  S   S364      1.0  0.41446  0.95242  0.00707  1.0000
  S   S365      1.0  0.11319  0.78219  0.99266  1.0000
  H   H1551     1.0  0.44011  0.89423  0.12067  1.0000
  H   H1552     1.0  0.15343  0.76566  0.06698  1.0000
  C   C1305     1.0  0.04409  0.87361  0.02004  1.0000
  C   C1306     1.0  0.45301  0.93187  0.21622  1.0000
  H   H1553     1.0  0.17463  0.74793  0.10532  1.0000
  H   H1554     1.0  0.03925  0.89635  0.05313  1.0000
  H   H1555     1.0  0.37209  0.86960  0.21307  1.0000
  H   H1556     1.0  0.99842  0.88702  0.03233  1.0000
  C   C1307     1.0  0.11619  0.71725  0.09347  1.0000
  H   H1557     1.0  0.15722  0.70830  0.10303  1.0000
  N   N88       1.0  0.23889  0.82010  0.00164  1.0000
  H   H1558     1.0  0.45994  0.90942  0.06345  1.0000
  H   H1559     1.0  0.41864  0.84918  0.17152  1.0000
  H   H1560     1.0  0.44201  0.93779  0.07559  1.0000
  C   C1308     1.0  0.44929  0.88598  0.07276  1.0000
  H   H1561     1.0  0.24640  0.68045  0.10653  1.0000
  H   H1562     1.0  0.15171  0.74659  0.11566  1.0000
  H   H1563     1.0  0.33847  0.89092  0.98335  1.0000
  H   H1564     1.0  0.16752  0.76892  0.07952  1.0000
  N   N89       1.0  0.15949  0.74338  0.08837  1.0000
  H   H1565     1.0  0.42402  0.83876  0.15300  1.0000
  H   H1566     1.0  0.33134  0.72488  0.18742  1.0000
  S   S366      1.0  0.01784  0.66719  0.08381  1.0000
  H   H1567     1.0  0.47885  0.93389  0.08606  1.0000
  C   C1309     1.0  0.05135  0.85487  0.99732  1.0000
  C   C1310     1.0  0.47743  0.90644  0.22458  1.0000
  C   C1311     1.0  0.25107  0.76932  0.00952  1.0000
  S   S367      1.0  0.00067  0.67534  0.04789  1.0000
  C   C1312     1.0  0.23934  0.82200  0.01967  1.0000
  H   H1568     1.0  0.24045  0.84787  0.99100  1.0000
  H   H1569     1.0  0.41447  0.82231  0.19440  1.0000
  C   C1313     1.0  0.20443  0.67644  0.16382  1.0000
  H   H1570     1.0  0.99686  0.80641  0.09765  1.0000
  H   H1571     1.0  0.19978  0.68875  0.15417  1.0000
  H   H1572     1.0  0.00010  0.79498  0.07114  1.0000
  C   C1314     1.0  0.34572  0.75373  0.17851  1.0000
  H   H1573     1.0  0.35117  0.76472  0.17990  1.0000
  H   H1574     1.0  0.15523  0.81162  0.99462  1.0000
  H   H1575     1.0  0.14042  0.81222  0.98080  1.0000
  C   C1315     1.0  0.45861  0.90385  0.20653  1.0000
  N   N90       1.0  0.20513  0.66006  0.15760  1.0000
  S   S368      1.0  0.46406  0.96361  0.05299  1.0000
  H   H1576     1.0  0.32120  0.77892  0.19365  1.0000
  H   H1577     1.0  0.11974  0.70568  0.01723  1.0000
  H   H1578     1.0  0.29717  0.83266  0.03527  1.0000
  S   S369      1.0  0.38131  0.91096  0.18034  1.0000
  H   H1579     1.0  0.04307  0.86474  0.98831  1.0000
  H   H1580     1.0  0.17950  0.72034  0.08178  1.0000
  C   C1316     1.0  0.06798  0.65464  0.09012  1.0000
  C   C1317     1.0  0.14442  0.73474  0.09010  1.0000
  C   C1318     1.0  0.21093  0.68784  0.07870  1.0000
  C   C1319     1.0  0.02554  0.87605  0.02036  1.0000
  C   C1320     1.0  0.15747  0.69944  0.05866  1.0000
  H   H1581     1.0  0.08706  0.69133  0.04408  1.0000
  H   H1582     1.0  0.46865  0.89195  0.20280  1.0000
  C   C1321     1.0  0.19079  0.79256  0.98621  1.0000
  H   H1583     1.0  0.24630  0.65639  0.09199  1.0000
  H   H1584     1.0  0.09069  0.71303  0.06928  1.0000
  C   C1322     1.0  0.09994  0.68908  0.04844  1.0000
  H   H1585     1.0  0.47439  0.92638  0.06907  1.0000
  C   C1323     1.0  0.12864  0.74394  0.08351  1.0000
  N   N91       1.0  0.40058  0.83223  0.17253  1.0000
  H   H1586     1.0  0.99005  0.70620  0.08199  1.0000
  H   H1587     1.0  0.36104  0.80475  0.21194  1.0000
  C   C1324     1.0  0.01744  0.89273  0.04395  1.0000
  S   S370      1.0  0.41079  0.91896  0.97863  1.0000
  C   C1325     1.0  0.01251  0.88558  0.03210  1.0000
  H   H1588     1.0  0.44449  0.91996  0.12279  1.0000
  S   S371      1.0  0.37581  0.96437  0.17551  1.0000
  H   H1589     1.0  0.33851  0.84721  0.19398  1.0000
  C   C1326     1.0  0.45439  0.90064  0.07527  1.0000
  H   H1590     1.0  0.40209  0.91252  0.22652  1.0000
  C   C1327     1.0  0.10810  0.71354  0.02521  1.0000
  C   C1328     1.0  0.43783  0.97550  0.03275  1.0000
  C   C1329     1.0  0.11475  0.73526  0.08529  1.0000
  H   H1591     1.0  0.17039  0.69776  0.06193  1.0000
  C   C1330     1.0  0.42720  0.95598  0.21021  1.0000
  H   H1592     1.0  0.18055  0.78952  0.99786  1.0000
  C   C1331     1.0  0.45782  0.91912  0.11360  1.0000
  C   C1332     1.0  0.34194  0.75577  0.21640  1.0000
  C   C1333     1.0  0.45194  0.90406  0.09258  1.0000
  C   C1334     1.0  0.16366  0.74109  0.10614  1.0000
  S   S372      1.0  0.40593  0.87788  0.21881  1.0000
  C   C1335     1.0  0.24797  0.80180  0.99906  1.0000
  C   C1336     1.0  0.44135  0.87444  0.08732  1.0000
  C   C1337     1.0  0.04865  0.88150  0.03198  1.0000
  H   H1593     1.0  0.21757  0.68513  0.06561  1.0000
  C   C1338     1.0  0.14548  0.71633  0.09815  1.0000
  C   C1339     1.0  0.32177  0.73797  0.18748  1.0000
  S   S373      1.0  0.41357  0.92464  0.18926  1.0000
  H   H1594     1.0  0.15619  0.72693  0.04534  1.0000
  H   H1595     1.0  0.41774  0.96300  0.20170  1.0000
  H   H1596     1.0  0.10979  0.67902  0.04138  1.0000
  H   H1597     1.0  0.21261  0.83703  0.00198  1.0000
  H   H1598     1.0  0.09628  0.73166  0.05201  1.0000
  Fe  Fe191     1.0  0.40507  0.89877  0.19336  1.0000
  H   H1599     1.0  0.40162  0.80772  0.19221  1.0000
  H   H1600     1.0  0.00498  0.85278  0.07282  1.0000
  H   H1601     1.0  0.18734  0.74075  0.07514  1.0000
  C   C1340     1.0  0.15589  0.76286  0.08070  1.0000
  H   H1602     1.0  0.36424  0.83187  0.17577  1.0000
  S   S374      1.0  0.19536  0.65930  0.08296  1.0000
  S   S375      1.0  0.43990  0.90216  0.00482  1.0000
  H   H1603     1.0  0.39864  0.85375  0.19572  1.0000
  H   H1604     1.0  0.12618  0.67544  0.06425  1.0000
  H   H1605     1.0  0.34504  0.76821  0.20818  1.0000
  H   H1606     1.0  0.44256  0.93959  0.19179  1.0000
  H   H1607     1.0  0.48504  0.91034  0.08592  1.0000
  H   H1608     1.0  0.10548  0.71045  0.09486  1.0000
  C   C1341     1.0  0.19910  0.67718  0.09001  1.0000
  C   C1342     1.0  0.13154  0.70781  0.09980  1.0000
  H   H1609     1.0  0.43717  0.86326  0.08521  1.0000
  C   C1343     1.0  0.47813  0.94780  0.14459  1.0000
  H   H1610     1.0  0.35659  0.74154  0.17933  1.0000
  H   H1611     1.0  0.18189  0.67244  0.11583  1.0000
  C   C1344     1.0  0.35175  0.84843  0.19439  1.0000
  H   H1612     1.0  0.21252  0.81387  0.01040  1.0000
  C   C1345     1.0  0.18647  0.65978  0.15736  1.0000
  N   N92       1.0  0.45679  0.92006  0.09491  1.0000
  C   C1346     1.0  0.13217  0.68705  0.05961  1.0000
  H   H1613     1.0  0.12670  0.75783  0.07683  1.0000
  C   C1347     1.0  0.19069  0.68073  0.10691  1.0000
  H   H1614     1.0  0.14415  0.77016  0.08910  1.0000
  H   H1615     1.0  0.09717  0.68324  0.06301  1.0000
  C   C1348     1.0  0.41257  0.84483  0.16263  1.0000
  C   C1349     1.0  0.44339  0.89226  0.10711  1.0000
  C   C1350     1.0  0.20851  0.78525  0.98798  1.0000
  C   C1351     1.0  0.14876  0.68518  0.06389  1.0000
  C   C1352     1.0  0.47451  0.92260  0.08354  1.0000
  C   C1353     1.0  0.37557  0.97101  0.19507  1.0000
  H   H1616     1.0  0.09596  0.71378  0.02046  1.0000
  C   C1354     1.0  0.45335  0.94464  0.03488  1.0000
  H   H1617     1.0  0.12717  0.73089  0.03808  1.0000
  H   H1618     1.0  0.46380  0.93382  0.03929  1.0000
  N   N93       1.0  0.39675  0.92284  0.07207  1.0000
  C   C1355     1.0  0.41163  0.92034  0.05639  1.0000
  C   C1356     1.0  0.39797  0.90555  0.08522  1.0000
  C   C1357     1.0  0.37958  0.92696  0.06617  1.0000
  C   C1358     1.0  0.39743  0.93777  0.07977  1.0000
  C   C1359     1.0  0.40365  0.95313  0.06880  1.0000
  C   C1360     1.0  0.39081  0.93799  0.09822  1.0000
  H   H1619     1.0  0.04327  0.84518  0.00630  1.0000
  C   C1361     1.0  0.39132  0.95228  0.10528  1.0000
  C   C1362     1.0  0.36716  0.88528  0.98019  1.0000
  H   H1620     1.0  0.41299  0.90764  0.05217  1.0000
  H   H1621     1.0  0.40949  0.93087  0.04431  1.0000
  H   H1622     1.0  0.42467  0.92021  0.05927  1.0000
  H   H1623     1.0  0.39988  0.89396  0.07890  1.0000
  H   H1624     1.0  0.38559  0.90492  0.09576  1.0000
  H   H1625     1.0  0.40938  0.90312  0.09189  1.0000
  H   H1626     1.0  0.37831  0.93951  0.05577  1.0000
  H   H1627     1.0  0.37840  0.91605  0.06032  1.0000
  H   H1628     1.0  0.36796  0.92880  0.07749  1.0000
  H   H1629     1.0  0.40795  0.95455  0.05451  1.0000
  H   H1630     1.0  0.38508  0.92727  0.10745  1.0000
  H   H1631     1.0  0.23398  0.83598  0.02160  1.0000
  H   H1632     1.0  0.21773  0.67695  0.16573  1.0000
  C   C1363     1.0  0.23857  0.65682  0.10540  1.0000
  H   H1633     1.0  0.08054  0.84119  0.00921  1.0000
  C   C1364     1.0  0.38434  0.84145  0.18347  1.0000
  H   H1634     1.0  0.07962  0.86931  0.98510  1.0000
  C   C1365     1.0  0.37964  0.95832  0.21015  1.0000
  H   H1635     1.0  0.47302  0.92996  0.18305  1.0000
  C   C1366     1.0  0.41026  0.81742  0.18450  1.0000
  S   S376      1.0  0.41532  0.87637  0.99997  1.0000
  H   H1636     1.0  0.30636  0.78903  0.98936  1.0000
  N   N94       1.0  0.32298  0.77725  0.07268  1.0000
  C   C1367     1.0  0.32971  0.77307  0.08948  1.0000
  C   C1368     1.0  0.30418  0.78714  0.07624  1.0000
  C   C1369     1.0  0.32325  0.75999  0.06836  1.0000
  C   C1370     1.0  0.33350  0.78807  0.05744  1.0000
  C   C1371     1.0  0.34724  0.79560  0.05928  1.0000
  C   C1372     1.0  0.32983  0.79170  0.04009  1.0000
  C   C1373     1.0  0.35675  0.80588  0.04457  1.0000
  C   C1374     1.0  0.33925  0.80216  0.02553  1.0000
  C   C1375     1.0  0.35274  0.80921  0.02775  1.0000
  H   H1637     1.0  0.32855  0.78534  0.09446  1.0000
  H   H1638     1.0  0.32182  0.76456  0.10056  1.0000
  H   H1639     1.0  0.34392  0.76576  0.08772  1.0000
  H   H1640     1.0  0.30309  0.79951  0.08096  1.0000
  H   H1641     1.0  0.29554  0.77889  0.08667  1.0000
  H   H1642     1.0  0.29817  0.79114  0.06425  1.0000
  H   H1643     1.0  0.33723  0.75283  0.06400  1.0000
  H   H1644     1.0  0.31663  0.75098  0.08006  1.0000
  H   H1645     1.0  0.31586  0.76169  0.05764  1.0000
  H   H1646     1.0  0.35101  0.79373  0.07191  1.0000
  H   H1647     1.0  0.31954  0.78653  0.03764  1.0000
  H   H1648     1.0  0.36732  0.81127  0.04632  1.0000
  H   H1649     1.0  0.33591  0.80493  0.01249  1.0000
  H   H1650     1.0  0.36002  0.81732  0.01643  1.0000
  H   H1651     1.0  0.45123  0.88365  0.05940  1.0000
  H   H1652     1.0  0.43159  0.86897  0.11570  1.0000
  H   H1653     1.0  0.06242  0.84715  0.98857  1.0000
  H   H1654     1.0  0.15496  0.67259  0.07135  1.0000
  S   S377      1.0  0.29568  0.82305  0.00073  1.0000
  H   H1655     1.0  0.42247  0.80984  0.17689  1.0000
  H   H1656     1.0  0.40512  0.85704  0.15493  1.0000
  H   H1657     1.0  0.27192  0.75285  0.99386  1.0000
  H   H1658     1.0  0.39870  0.97778  0.09976  1.0000
  H   H1659     1.0  0.34307  0.75740  0.16473  1.0000
  H   H1660     1.0  0.38847  0.83501  0.15027  1.0000
  H   H1661     1.0  0.45179  0.90980  0.19512  1.0000
  H   H1662     1.0  0.44849  0.89897  0.21819  1.0000
  H   H1663     1.0  0.38621  0.95213  0.11941  1.0000
  H   H1664     1.0  0.32430  0.71983  0.21872  1.0000
  C   C1376     1.0  0.36681  0.83965  0.18382  1.0000
  C   C1377     1.0  0.44122  0.94227  0.20483  1.0000
  C   C1378     1.0  0.13286  0.71786  0.04513  1.0000
  H   H1665     1.0  0.42960  0.93481  0.09822  1.0000
  H   H1666     1.0  0.07816  0.85498  0.02441  1.0000
  C   C1379     1.0  0.15421  0.80632  0.98330  1.0000
  S   S378      1.0  0.10982  0.66550  0.10271  1.0000
  H   H1667     1.0  0.05475  0.66171  0.08817  1.0000
  H   H1668     1.0  0.19501  0.67710  0.17692  1.0000
  H   H1669     1.0  0.02063  0.87044  0.01198  1.0000
  C   C1380     1.0  0.24255  0.78672  0.01148  1.0000
  H   H1670     1.0  0.40951  0.97863  0.06734  1.0000
  C   C1381     1.0  0.46800  0.97742  0.12777  1.0000
  C   C1382     1.0  0.37593  0.98201  0.22594  1.0000
  C   C1383     1.0  0.06895  0.87624  0.99482  1.0000
  C   C1384     1.0  0.26209  0.79833  0.98425  1.0000
  C   C1385     1.0  0.09619  0.65433  0.09722  1.0000
  H   H1671     1.0  0.31210  0.77281  0.17825  1.0000
  H   H1672     1.0  0.07581  0.88238  0.00153  1.0000
  H   H1673     1.0  0.40065  0.75692  0.22295  1.0000
  C   C1386     1.0  0.38076  0.78124  0.21940  1.0000
  H   H1674     1.0  0.23184  0.78827  0.02300  1.0000
  H   H1675     1.0  0.25330  0.81803  0.02192  1.0000
  H   H1676     1.0  0.24727  0.75801  0.01963  1.0000
  H   H1677     1.0  0.21901  0.82196  0.98679  1.0000
  S   S379      1.0  0.15281  0.65722  0.12068  1.0000
  H   H1678     1.0  0.15507  0.79161  0.98764  1.0000
  H   H1679     1.0  0.48753  0.89486  0.22019  1.0000
  H   H1680     1.0  0.26153  0.83252  0.98894  1.0000
  H   H1681     1.0  0.48860  0.93797  0.15027  1.0000
  C   C1387     1.0  0.37977  0.96381  0.22556  1.0000
  H   H1682     1.0  0.30892  0.73585  0.19676  1.0000
  C   C1388     1.0  0.33032  0.72891  0.22213  1.0000
  N   N95       1.0  0.32939  0.75093  0.19231  1.0000
  C   C1389     1.0  0.31602  0.76803  0.19151  1.0000
  H   H1683     1.0  0.99194  0.72858  0.08060  1.0000
  C   C1390     1.0  0.47971  0.92331  0.19448  1.0000
  H   H1684     1.0  0.17736  0.66025  0.17065  1.0000
  C   C1391     1.0  0.42498  0.96022  0.22675  1.0000
  H   H1685     1.0  0.99081  0.76947  0.08618  1.0000
  H   H1686     1.0  0.98968  0.73522  0.04912  1.0000
  C   C1392     1.0  0.35105  0.88318  0.97750  1.0000
  H   H1687     1.0  0.99479  0.97054  0.34044  1.0000
  C   C1393     1.0  0.34243  0.73483  0.24465  1.0000
  Fe  Fe192     1.0  0.45012  0.88389  0.29182  1.0000
  S   S380      1.0  0.43109  0.86871  0.31228  1.0000
  S   S381      1.0  0.44030  0.90394  0.26875  1.0000
  C   C1394     1.0  0.47630  0.71376  0.28784  1.0000
  S   S382      1.0  0.46290  0.85308  0.33550  1.0000
  H   H1688     1.0  0.02063  0.84011  0.46188  1.0000
  Fe  Fe193     1.0  0.45496  0.84594  0.31336  1.0000
  S   S383      1.0  0.45951  0.81764  0.30979  1.0000
  Fe  Fe194     1.0  0.44110  0.87769  0.33197  1.0000
  S   S384      1.0  0.42188  0.89031  0.35406  1.0000
  S   S385      1.0  0.47335  0.86066  0.29129  1.0000
  S   S386      1.0  0.45880  0.89419  0.31129  1.0000
  Fe  Fe195     1.0  0.39927  0.76248  0.29676  1.0000
  S   S387      1.0  0.41581  0.76631  0.26900  1.0000
  S   S388      1.0  0.39702  0.77852  0.31725  1.0000
  Fe  Fe196     1.0  0.38395  0.73285  0.29147  1.0000
  S   S389      1.0  0.39908  0.73422  0.26306  1.0000
  S   S390      1.0  0.36681  0.71353  0.30884  1.0000
  Fe  Fe197     1.0  0.42212  0.73630  0.27368  1.0000
  S   S391      1.0  0.44947  0.71837  0.27004  1.0000
  Fe  Fe198     1.0  0.39139  0.76412  0.26086  1.0000
  H   H1689     1.0  0.44120  0.76129  0.34433  1.0000
  S   S392      1.0  0.40752  0.73273  0.30213  1.0000
  S   S393      1.0  0.37431  0.76248  0.28847  1.0000
  C   C1395     1.0  0.46396  0.74424  0.27473  1.0000
  H   H1690     1.0  0.38775  0.66728  0.29683  1.0000
  H   H1691     1.0  0.40904  0.97886  0.45173  1.0000
  H   H1692     1.0  0.45262  0.85803  0.37922  1.0000
  H   H1693     1.0  0.38274  0.82224  0.24011  1.0000
  C   C1396     1.0  0.47548  0.75034  0.28146  1.0000
  C   C1397     1.0  0.47530  0.88744  0.38422  1.0000
  H   H1694     1.0  0.45270  0.69892  0.35331  1.0000
  C   C1398     1.0  0.40574  0.96297  0.28331  1.0000
  H   H1695     1.0  0.02630  0.78320  0.45725  1.0000
  H   H1696     1.0  0.41974  0.75732  0.34594  1.0000
  C   C1399     1.0  0.46436  0.72596  0.27786  1.0000
  H   H1697     1.0  0.35247  0.75901  0.23764  1.0000
  H   H1698     1.0  0.39215  0.97681  0.33616  1.0000
  C   C1400     1.0  0.41127  0.94444  0.28689  1.0000
  H   H1699     1.0  0.38107  0.88620  0.26787  1.0000
  H   H1700     1.0  0.48949  0.90221  0.35120  1.0000
  H   H1701     1.0  0.33175  0.71159  0.24798  1.0000
  H   H1702     1.0  0.05803  0.81555  0.43245  1.0000
  C   C1401     1.0  0.44142  0.80811  0.31101  1.0000
  C   C1402     1.0  0.44365  0.79586  0.30023  1.0000
  C   C1403     1.0  0.42986  0.78715  0.30164  1.0000
  C   C1404     1.0  0.41403  0.79013  0.31435  1.0000
  C   C1405     1.0  0.41179  0.80235  0.32519  1.0000
  C   C1406     1.0  0.42539  0.81150  0.32338  1.0000
  H   H1703     1.0  0.45612  0.79310  0.29076  1.0000
  H   H1704     1.0  0.43171  0.77780  0.29319  1.0000
  H   H1705     1.0  0.39952  0.80473  0.33501  1.0000
  H   H1706     1.0  0.42368  0.82078  0.33189  1.0000
  C   C1407     1.0  0.42975  0.89615  0.25617  1.0000
  C   C1408     1.0  0.43296  0.87797  0.25593  1.0000
  C   C1409     1.0  0.03537  0.80509  0.46234  1.0000
  H   H1707     1.0  0.01134  0.80760  0.44098  1.0000
  H   H1708     1.0  0.42812  0.85828  0.24431  1.0000
  C   C1410     1.0  0.41861  0.90854  0.24550  1.0000
  H   H1709     1.0  0.44146  0.86831  0.26423  1.0000
  C   C1411     1.0  0.41643  0.96481  0.30917  1.0000
  H   H1710     1.0  0.47652  0.69961  0.29040  1.0000
  H   H1711     1.0  0.41734  0.80947  0.26643  1.0000
  C   C1412     1.0  0.34567  0.67949  0.28368  1.0000
  C   C1413     1.0  0.35708  0.69078  0.27288  1.0000
  C   C1414     1.0  0.36367  0.70132  0.28044  1.0000
  C   C1415     1.0  0.35873  0.70071  0.29882  1.0000
  C   C1416     1.0  0.34734  0.68940  0.30960  1.0000
  C   C1417     1.0  0.34087  0.67876  0.30207  1.0000
  H   H1712     1.0  0.36093  0.69127  0.25865  1.0000
  H   H1713     1.0  0.37255  0.70990  0.27206  1.0000
  H   H1714     1.0  0.34344  0.68894  0.32382  1.0000
  H   H1715     1.0  0.33196  0.67019  0.31046  1.0000
  C   C1418     1.0  0.43972  0.93328  0.37035  1.0000
  C   C1419     1.0  0.42207  0.93091  0.37656  1.0000
  C   C1420     1.0  0.41647  0.91803  0.37110  1.0000
  C   C1421     1.0  0.42850  0.90753  0.35948  1.0000
  C   C1422     1.0  0.44594  0.91040  0.35290  1.0000
  C   C1423     1.0  0.45143  0.92335  0.35818  1.0000
  H   H1716     1.0  0.41296  0.93849  0.38604  1.0000
  H   H1717     1.0  0.40296  0.91584  0.37628  1.0000
  H   H1718     1.0  0.45546  0.90212  0.34439  1.0000
  H   H1719     1.0  0.46496  0.92541  0.35316  1.0000
  C   C1424     1.0  0.39279  0.84079  0.27031  1.0000
  C   C1425     1.0  0.42688  0.66790  0.31745  1.0000
  H   H1720     1.0  0.37868  0.86386  0.25329  1.0000
  H   H1721     1.0  0.46855  0.90085  0.23709  1.0000
  H   H1722     1.0  0.40744  0.82288  0.29009  1.0000
  H   H1723     1.0  0.40956  0.84601  0.30408  1.0000
  C   C1426     1.0  0.45508  0.86859  0.38408  1.0000
  S   S394      1.0  0.37967  0.78622  0.24003  1.0000
  H   H1724     1.0  0.44338  0.98164  0.30286  1.0000
  C   C1427     1.0  0.04287  0.80912  0.47493  1.0000
  H   H1725     1.0  0.46470  0.67134  0.33738  1.0000
  C   C1428     1.0  0.43894  0.70327  0.35184  1.0000
  H   H1726     1.0  0.39025  0.84273  0.23563  1.0000
  N   N96       1.0  0.44179  0.73572  0.33900  1.0000
  H   H1727     1.0  0.43305  0.89983  0.40878  1.0000
  H   H1728     1.0  0.46815  0.74061  0.33634  1.0000
  C   C1429     1.0  0.48715  0.73821  0.29170  1.0000
  C   C1430     1.0  0.43128  0.72146  0.34539  1.0000
  C   C1431     1.0  0.41297  0.72542  0.34431  1.0000
  H   H1729     1.0  0.41939  0.95590  0.34482  1.0000
  C   C1432     1.0  0.45068  0.93690  0.23278  1.0000
  H   H1730     1.0  0.41392  0.97060  0.23109  1.0000
  H   H1731     1.0  0.05118  0.83366  0.44413  1.0000
  H   H1732     1.0  0.36957  0.65851  0.33686  1.0000
  C   C1433     1.0  0.40810  0.68073  0.29583  1.0000
  C   C1434     1.0  0.01645  0.83371  0.45312  1.0000
  C   C1435     1.0  0.43329  0.75058  0.34861  1.0000
  N   N97       1.0  0.00104  0.97107  0.36528  1.0000
  H   H1733     1.0  0.42877  0.74951  0.31696  1.0000
  C   C1436     1.0  0.41033  0.81677  0.25534  1.0000
  C   C1437     1.0  0.41920  0.93591  0.30148  1.0000
  H   H1734     1.0  0.43502  0.95402  0.25085  1.0000
  H   H1735     1.0  0.40624  0.73891  0.33939  1.0000
  H   H1736     1.0  0.44738  0.73183  0.31214  1.0000
  C   C1438     1.0  0.40830  0.97306  0.29422  1.0000
  H   H1737     1.0  0.42778  0.93822  0.32372  1.0000
  H   H1738     1.0  0.41019  0.80650  0.24808  1.0000
  C   C1439     1.0  0.03242  0.78743  0.46570  1.0000
  C   C1440     1.0  0.44224  0.74277  0.31971  1.0000
  N   N98       1.0  0.41895  0.97583  0.32050  1.0000
  H   H1739     1.0  0.38046  0.80301  0.26904  1.0000
  S   S395      1.0  0.33735  0.66661  0.27394  1.0000
  C   C1441     1.0  0.00392  0.97574  0.34548  1.0000
  S   S396      1.0  0.41980  0.97901  0.41296  1.0000
  C   C1442     1.0  0.42543  0.87231  0.24463  1.0000
  H   H1740     1.0  0.47628  0.80080  0.34091  1.0000
  H   H1741     1.0  0.36885  0.84004  0.25030  1.0000
  C   C1443     1.0  0.41114  0.69427  0.35459  1.0000
  H   H1742     1.0  0.38937  0.71531  0.34702  1.0000
  S   S397      1.0  0.44839  0.94701  0.37871  1.0000
  C   C1444     1.0  0.42173  0.94582  0.31256  1.0000
  H   H1743     1.0  0.47514  0.76451  0.27893  1.0000
  N   N99       1.0  0.39195  0.82651  0.26181  1.0000
  H   H1744     1.0  0.43189  0.74571  0.36329  1.0000
  C   C1445     1.0  0.44113  0.87820  0.39486  1.0000
  C   C1446     1.0  0.02396  0.81243  0.43433  1.0000
  H   H1745     1.0  0.40938  0.93659  0.27841  1.0000
  Fe  Fe199     1.0  0.48000  0.86903  0.31333  1.0000
  H   H1746     1.0  0.00177  0.96767  0.40048  1.0000
  H   H1747     1.0  0.41864  0.82616  0.24613  1.0000
  N   N100      1.0  0.03066  0.81904  0.44678  1.0000
  H   H1748     1.0  0.04383  0.83620  0.42406  1.0000
  H   H1749     1.0  0.00088  0.94663  0.38537  1.0000
  C   C1447     1.0  0.46088  0.89667  0.39564  1.0000
  H   H1750     1.0  0.45088  0.75281  0.31399  1.0000
  H   H1751     1.0  0.42336  0.92144  0.30426  1.0000
  H   H1752     1.0  0.04480  0.82244  0.47374  1.0000
  C   C1448     1.0  0.00417  0.95131  0.37065  1.0000
  C   C1449     1.0  0.38521  0.85914  0.26452  1.0000
  H   H1753     1.0  0.02061  0.82319  0.42276  1.0000
  H   H1754     1.0  0.42788  0.87523  0.39817  1.0000
  H   H1755     1.0  0.45490  0.75369  0.26692  1.0000
  H   H1756     1.0  0.06722  0.95247  0.47010  1.0000
  H   H1757     1.0  0.46140  0.72421  0.35559  1.0000
  H   H1758     1.0  0.38292  0.95388  0.23720  1.0000
  H   H1759     1.0  0.01841  0.94515  0.36581  1.0000
  C   C1450     1.0  0.41462  0.88481  0.23364  1.0000
  H   H1760     1.0  0.42950  0.69193  0.29747  1.0000
  C   C1451     1.0  0.39852  0.66705  0.30302  1.0000
  C   C1452     1.0  0.40144  0.83650  0.28493  1.0000
  H   H1761     1.0  0.99566  0.94580  0.36506  1.0000
  C   C1453     1.0  0.46065  0.72955  0.34130  1.0000
  H   H1762     1.0  0.03406  0.80143  0.42888  1.0000
  H   H1763     1.0  0.40437  0.69119  0.28473  1.0000
  H   H1764     1.0  0.43791  0.66825  0.32304  1.0000
  C   C1454     1.0  0.38645  0.87223  0.27284  1.0000
  H   H1765     1.0  0.43505  0.67612  0.36103  1.0000
  H   H1766     1.0  0.39931  0.96955  0.27209  1.0000
  C   C1455     1.0  0.44408  0.89207  0.40078  1.0000
  H   H1767     1.0  0.34562  0.73098  0.25780  1.0000
  C   C1456     1.0  0.42892  0.68995  0.35636  1.0000
  H   H1768     1.0  0.48717  0.81857  0.32853  1.0000
  C   C1457     1.0  0.42220  0.68121  0.30307  1.0000
  H   H1769     1.0  0.36822  0.82052  0.28080  1.0000
  C   C1458     1.0  0.38190  0.81367  0.27507  1.0000
  H   H1770     1.0  0.05767  0.92616  0.47575  1.0000
  C   C1459     1.0  0.48898  0.80558  0.33817  1.0000
  H   H1771     1.0  0.39655  0.87775  0.29314  1.0000
  H   H1772     1.0  0.46193  0.90799  0.40022  1.0000
  C   C1460     1.0  0.40266  0.84967  0.29309  1.0000
  H   H1773     1.0  0.40356  0.68387  0.35768  1.0000
  H   H1774     1.0  0.38864  0.80670  0.28642  1.0000
  C   C1461     1.0  0.33455  0.72397  0.23908  1.0000
  C   C1462     1.0  0.39523  0.86752  0.28703  1.0000
  C   C1463     1.0  0.41098  0.90288  0.23437  1.0000
  H   H1775     1.0  0.46817  0.71911  0.33346  1.0000
  C   C1464     1.0  0.43684  0.95086  0.23789  1.0000
  C   C1465     1.0  0.38305  0.83328  0.24628  1.0000
  C   C1466     1.0  0.47198  0.87294  0.37902  1.0000
  H   H1776     1.0  0.36738  0.65370  0.31671  1.0000
  C   C1467     1.0  0.40315  0.71198  0.34867  1.0000
  H   H1777     1.0  0.01778  0.96998  0.33906  1.0000
  H   H1778     1.0  0.00429  0.82861  0.46095  1.0000
  C   C1468     1.0  0.42771  0.96517  0.33547  1.0000
  H   H1779     1.0  0.39208  0.97625  0.47179  1.0000
  H   H1780     1.0  0.41586  0.92257  0.24581  1.0000
  Fe  Fe200     1.0  0.43161  0.97302  0.38570  1.0000
  C   C1469     1.0  0.47416  0.66268  0.34522  1.0000
  H   H1781     1.0  0.01243  0.84450  0.44185  1.0000
  H   H1782     1.0  0.48232  0.86499  0.37076  1.0000
  H   H1783     1.0  0.44122  0.95732  0.33063  1.0000
  C   C1470     1.0  0.04662  0.82641  0.43643  1.0000
  H   H1784     1.0  0.45898  0.92991  0.24237  1.0000
  C   C1471     1.0  0.40257  0.65355  0.31800  1.0000
  C   C1472     1.0  0.34619  0.75066  0.23331  1.0000
  H   H1785     1.0  0.48490  0.91488  0.22784  1.0000
  C   C1473     1.0  0.01283  0.97794  0.37251  1.0000
  C   C1474     1.0  0.01126  0.97512  0.39125  1.0000
  C   C1475     1.0  0.48758  0.71990  0.29493  1.0000
  H   H1786     1.0  0.48357  0.92051  0.37602  1.0000
  H   H1787     1.0  0.42981  0.97377  0.34356  1.0000
  C   C1476     1.0  0.41733  0.65419  0.32481  1.0000
  C   C1477     1.0  0.48939  0.66844  0.34571  1.0000
  C   C1478     1.0  0.02166  0.98214  0.39845  1.0000
  H   H1788     1.0  0.02001  0.98012  0.41280  1.0000
  C   C1479     1.0  0.01237  0.66736  0.58379  1.0000
  H   H1789     1.0  0.15718  0.86671  0.63004  1.0000
  H   H1790     1.0  0.34101  0.73220  0.72171  1.0000
  C   C1480     1.0  0.15056  0.94558  0.55260  1.0000
  H   H1791     1.0  0.05165  0.69030  0.62727  1.0000
  Fe  Fe201     1.0  0.06577  0.88203  0.55362  1.0000
  S   S398      1.0  0.09040  0.87470  0.53319  1.0000
  Fe  Fe202     1.0  0.08758  0.88468  0.57959  1.0000
  S   S399      1.0  0.11386  0.87686  0.56134  1.0000
  S   S400      1.0  0.08494  0.88926  0.60725  1.0000
  Fe  Fe203     1.0  0.10038  0.89587  0.54001  1.0000
  S   S401      1.0  0.11591  0.91458  0.51886  1.0000
  Fe  Fe204     1.0  0.10138  0.85669  0.55651  1.0000
  S   S402      1.0  0.11166  0.82726  0.55812  1.0000
  S   S403      1.0  0.07458  0.90492  0.55852  1.0000
  S   S404      1.0  0.07620  0.86284  0.57656  1.0000
  Fe  Fe205     1.0  0.16570  0.73054  0.64272  1.0000
  S   S405      1.0  0.14114  0.73817  0.66353  1.0000
  S   S406      1.0  0.17836  0.70120  0.64464  1.0000
  Fe  Fe206     1.0  0.16471  0.76874  0.62230  1.0000
  S   S407      1.0  0.14029  0.77890  0.64122  1.0000
  S   S408      1.0  0.17350  0.79163  0.60120  1.0000
  Fe  Fe207     1.0  0.15373  0.76087  0.66282  1.0000
  S   S409      1.0  0.15204  0.77485  0.68499  1.0000
  Fe  Fe208     1.0  0.13017  0.75563  0.63995  1.0000
  S   S410      1.0  0.10261  0.76100  0.63429  1.0000
  S   S411      1.0  0.17918  0.75199  0.64390  1.0000
  S   S412      1.0  0.15370  0.74651  0.61928  1.0000
  H   H1792     1.0  0.36250  0.65784  0.70422  1.0000
  H   H1793     1.0  0.14982  0.92359  0.58533  1.0000
  Fe  Fe209     1.0  0.16056  0.91233  0.68180  1.0000
  S   S413      1.0  0.13479  0.91591  0.67312  1.0000
  S   S414      1.0  0.16495  0.89079  0.70608  1.0000
  Fe  Fe210     1.0  0.17266  0.94241  0.65232  1.0000
  S   S415      1.0  0.14788  0.94857  0.64131  1.0000
  Fe  Fe211     1.0  0.13370  0.94513  0.67010  1.0000
  Fe  Fe212     1.0  0.15134  0.91896  0.64533  1.0000
  S   S416      1.0  0.15312  0.90482  0.62348  1.0000
  S   S417      1.0  0.15820  0.94146  0.68092  1.0000
  S   S418      1.0  0.17729  0.91293  0.65424  1.0000
  Fe  Fe213     1.0  0.03899  0.69592  0.58785  1.0000
  S   S419      1.0  0.04992  0.70197  0.55828  1.0000
  Fe  Fe214     1.0  0.07350  0.69718  0.59727  1.0000
  S   S420      1.0  0.08725  0.70376  0.56875  1.0000
  S   S421      1.0  0.08842  0.69181  0.61926  1.0000
  Fe  Fe215     1.0  0.06134  0.72223  0.56460  1.0000
  S   S422      1.0  0.06024  0.75007  0.54840  1.0000
  Fe  Fe216     1.0  0.07487  0.68290  0.56513  1.0000
  C   C1481     1.0  0.11321  0.83123  0.67012  1.0000
  S   S423      1.0  0.04856  0.71773  0.59366  1.0000
  H   H1794     1.0  0.18977  0.94373  0.60516  1.0000
  C   C1482     1.0  0.21682  0.84861  0.70175  1.0000
  H   H1795     1.0  0.21645  0.68053  0.64474  1.0000
  C   C1483     1.0  0.18682  0.77537  0.71432  1.0000
  C   C1484     1.0  0.18526  0.87508  0.70432  1.0000
  C   C1485     1.0  0.19856  0.87631  0.68875  1.0000
  C   C1486     1.0  0.21426  0.86300  0.68740  1.0000
  S   S424      1.0  0.10740  0.96346  0.67771  1.0000
  H   H1796     1.0  0.19686  0.88751  0.67777  1.0000
  H   H1797     1.0  0.22448  0.86394  0.67529  1.0000
  C   C1487     1.0  0.17075  0.76915  0.69494  1.0000
  C   C1488     1.0  0.17234  0.78004  0.70565  1.0000
  C   C1489     1.0  0.22983  0.67509  0.63794  1.0000
  H   H1798     1.0  0.16217  0.79192  0.70749  1.0000
  N   N101      1.0  0.03506  0.69879  0.65086  1.0000
  C   C1490     1.0  0.09879  0.74181  0.62994  1.0000
  C   C1491     1.0  0.08758  0.74347  0.61825  1.0000
  C   C1492     1.0  0.08464  0.72815  0.61459  1.0000
  C   C1493     1.0  0.09255  0.71116  0.62297  1.0000
  C   C1494     1.0  0.10361  0.70953  0.63477  1.0000
  C   C1495     1.0  0.10694  0.72482  0.63805  1.0000
  H   H1799     1.0  0.08141  0.75659  0.61181  1.0000
  H   H1800     1.0  0.07617  0.72952  0.60539  1.0000
  H   H1801     1.0  0.10986  0.69642  0.64118  1.0000
  H   H1802     1.0  0.11569  0.72346  0.64701  1.0000
  C   C1496     1.0  0.11639  0.93501  0.52358  1.0000
  C   C1497     1.0  0.12720  0.94613  0.51130  1.0000
  H   H1803     1.0  0.09710  0.93232  0.54841  1.0000
  H   H1804     1.0  0.13566  0.94177  0.49944  1.0000
  C   C1498     1.0  0.12929  0.81767  0.56951  1.0000
  C   C1499     1.0  0.14165  0.82745  0.56971  1.0000
  C   C1500     1.0  0.15546  0.81938  0.57920  1.0000
  C   C1501     1.0  0.15667  0.80169  0.58878  1.0000
  C   C1502     1.0  0.14410  0.79214  0.58874  1.0000
  C   C1503     1.0  0.13063  0.80000  0.57894  1.0000
  H   H1805     1.0  0.14077  0.84108  0.56231  1.0000
  H   H1806     1.0  0.16516  0.82684  0.57916  1.0000
  H   H1807     1.0  0.14488  0.77854  0.59599  1.0000
  H   H1808     1.0  0.12111  0.79238  0.57887  1.0000
  C   C1504     1.0  0.10384  0.89367  0.61186  1.0000
  C   C1505     1.0  0.10196  0.90134  0.62652  1.0000
  C   C1506     1.0  0.11696  0.90491  0.63033  1.0000
  C   C1507     1.0  0.13389  0.90054  0.61960  1.0000
  C   C1508     1.0  0.13580  0.89243  0.60529  1.0000
  C   C1509     1.0  0.12084  0.88908  0.60140  1.0000
  H   H1809     1.0  0.08883  0.90482  0.63476  1.0000
  H   H1810     1.0  0.11538  0.91115  0.64144  1.0000
  H   H1811     1.0  0.14890  0.88885  0.59705  1.0000
  H   H1812     1.0  0.12258  0.88280  0.59038  1.0000
  C   C1510     1.0  0.01626  0.86756  0.53984  1.0000
  C   C1511     1.0  0.24504  0.65630  0.58807  1.0000
  C   C1512     1.0  0.00174  0.67855  0.59531  1.0000
  C   C1513     1.0  0.03773  0.76003  0.54842  1.0000
  C   C1514     1.0  0.03307  0.77754  0.53903  1.0000
  C   C1515     1.0  0.01505  0.78543  0.53885  1.0000
  H   H1813     1.0  0.04337  0.78499  0.53201  1.0000
  H   H1814     1.0  0.18540  0.66573  0.63814  1.0000
  C   C1516     1.0  0.19206  0.69836  0.59231  1.0000
  C   C1517     1.0  0.18645  0.70500  0.60809  1.0000
  C   C1518     1.0  0.18404  0.69328  0.62466  1.0000
  C   C1519     1.0  0.18710  0.67487  0.62534  1.0000
  H   H1815     1.0  0.05490  0.72436  0.64950  1.0000
  H   H1816     1.0  0.18443  0.71917  0.60742  1.0000
  C   C1520     1.0  0.02369  0.85961  0.51077  1.0000
  H   H1817     1.0  0.02779  0.73721  0.56561  1.0000
  H   H1818     1.0  0.13519  0.94022  0.59736  1.0000
  H   H1819     1.0  0.05775  0.87440  0.51791  1.0000
  C   C1521     1.0  0.12710  0.96293  0.51424  1.0000
  H   H1820     1.0  0.05293  0.79968  0.49924  1.0000
  H   H1821     1.0  0.04723  0.70021  0.67177  1.0000
  C   C1522     1.0  0.10330  0.82974  0.63865  1.0000
  C   C1523     1.0  0.07912  0.83853  0.62285  1.0000
  C   C1524     1.0  0.02433  0.75063  0.55811  1.0000
  C   C1525     1.0  0.26036  0.65997  0.63884  1.0000
  H   H1822     1.0  0.04764  0.93296  0.53053  1.0000
  H   H1823     1.0  0.16197  0.93932  0.60133  1.0000
  C   C1526     1.0  0.23340  0.67593  0.61955  1.0000
  H   H1824     1.0  0.22240  0.68189  0.61282  1.0000
  C   C1527     1.0  0.13992  0.93649  0.58405  1.0000
  H   H1825     1.0  0.27530  0.66630  0.56769  1.0000
  C   C1528     1.0  0.19965  0.75968  0.71247  1.0000
  C   C1529     1.0  0.10508  0.95771  0.54159  1.0000
  H   H1826     1.0  0.01986  0.68118  0.67105  1.0000
  C   C1530     1.0  0.13270  0.72419  0.59382  1.0000
  S   S425      1.0  0.19434  0.95687  0.63588  1.0000
  H   H1827     1.0  0.18633  0.96385  0.67165  1.0000
  H   H1828     1.0  0.23139  0.69050  0.58405  1.0000
  H   H1829     1.0  0.04164  0.67320  0.64318  1.0000
  H   H1830     1.0  0.12151  0.96670  0.56826  1.0000
  H   H1831     1.0  0.20982  0.95929  0.58008  1.0000
  C   C1531     1.0  0.10680  0.81418  0.65205  1.0000
  H   H1832     1.0  0.15548  0.80275  0.65322  1.0000
  H   H1833     1.0  0.19411  0.70752  0.57955  1.0000
  H   H1834     1.0  0.99887  0.85753  0.52963  1.0000
  C   C1532     1.0  0.15234  0.65720  0.59466  1.0000
  H   H1835     1.0  0.01405  0.70411  0.67345  1.0000
  S   S426      1.0  0.06290  0.67479  0.59412  1.0000
  H   H1836     1.0  0.04807  0.76903  0.50405  1.0000
  H   H1837     1.0  0.01011  0.78113  0.58759  1.0000
  H   H1838     1.0  0.10088  0.85867  0.63299  1.0000
  C   C1533     1.0  0.19814  0.74891  0.70163  1.0000
  H   H1839     1.0  0.12383  0.83297  0.60579  1.0000
  N   N102      1.0  0.09812  0.82938  0.62210  1.0000
  C   C1534     1.0  0.10423  0.84616  0.64212  1.0000
  H   H1840     1.0  0.11510  0.80277  0.67718  1.0000
  H   H1841     1.0  0.18262  0.74518  0.68462  1.0000
  H   H1842     1.0  0.11412  0.80328  0.61910  1.0000
  H   H1843     1.0  0.24042  0.66627  0.66187  1.0000
  C   C1535     1.0  0.01175  0.86107  0.52703  1.0000
  H   H1844     1.0  0.10631  0.83806  0.59360  1.0000
  H   H1845     1.0  0.07034  0.83238  0.63507  1.0000
  N   N103      1.0  0.25390  0.66945  0.59077  1.0000
  H   H1846     1.0  0.18517  0.87053  0.66067  1.0000
  H   H1847     1.0  0.03459  0.76128  0.48299  1.0000
  H   H1848     1.0  0.10717  0.85335  0.60591  1.0000
  H   H1849     1.0  0.09090  0.80340  0.62972  1.0000
  H   H1850     1.0  0.14958  0.81767  0.62325  1.0000
  C   C1536     1.0  0.04032  0.86444  0.50755  1.0000
  C   C1537     1.0  0.10015  0.81103  0.61930  1.0000
  H   H1851     1.0  0.04961  0.86341  0.49498  1.0000
  N   N104      1.0  0.06360  0.81536  0.55096  1.0000
  C   C1538     1.0  0.06071  0.82194  0.53241  1.0000
  C   C1539     1.0  0.06322  0.83084  0.55841  1.0000
  C   C1540     1.0  0.08187  0.80394  0.55006  1.0000
  C   C1541     1.0  0.04922  0.80594  0.56191  1.0000
  C   C1542     1.0  0.03100  0.81503  0.56378  1.0000
  C   C1543     1.0  0.05265  0.78760  0.57048  1.0000
  C   C1544     1.0  0.01711  0.80618  0.57309  1.0000
  C   C1545     1.0  0.03865  0.77892  0.57988  1.0000
  C   C1546     1.0  0.02092  0.78812  0.58101  1.0000
  C   C1547     1.0  0.19234  0.96462  0.56165  1.0000
  H   H1852     1.0  0.04777  0.83158  0.53172  1.0000
  H   H1853     1.0  0.07131  0.82906  0.52369  1.0000
  H   H1854     1.0  0.06519  0.82648  0.57241  1.0000
  H   H1855     1.0  0.05043  0.84084  0.55839  1.0000
  H   H1856     1.0  0.07401  0.83814  0.55057  1.0000
  H   H1857     1.0  0.08333  0.79223  0.54409  1.0000
  H   H1858     1.0  0.09232  0.81143  0.54163  1.0000
  H   H1859     1.0  0.08534  0.79914  0.56349  1.0000
  H   H1860     1.0  0.02732  0.82899  0.55767  1.0000
  H   H1861     1.0  0.06599  0.77942  0.56963  1.0000
  C   C1548     1.0  0.17619  0.96250  0.55918  1.0000
  H   H1862     1.0  0.04162  0.76471  0.58549  1.0000
  H   H1863     1.0  0.48101  0.95990  0.60349  1.0000
  C   C1549     1.0  0.04068  0.74736  0.63484  1.0000
  C   C1550     1.0  0.02683  0.75480  0.62562  1.0000
  H   H1864     1.0  0.02463  0.76886  0.61938  1.0000
  H   H1865     1.0  0.18240  0.83312  0.67761  1.0000
  Fe  Fe217     1.0  0.99348  0.83994  0.50108  1.0000
  H   H1866     1.0  0.13083  0.92438  0.72689  1.0000
  H   H1867     1.0  0.19823  0.94916  0.69943  1.0000
  H   H1868     1.0  0.13791  0.86355  0.67549  1.0000
  H   H1869     1.0  0.12791  0.93401  0.58096  1.0000
  H   H1870     1.0  0.28073  0.67402  0.58468  1.0000
  H   H1871     1.0  0.01434  0.90784  0.51503  1.0000
  C   C1551     1.0  0.18793  0.86082  0.71872  1.0000
  H   H1872     1.0  0.27753  0.65479  0.61467  1.0000
  H   H1873     1.0  0.15051  0.68165  0.55294  1.0000
  C   C1552     1.0  0.16475  0.95282  0.57305  1.0000
  H   H1874     1.0  0.07431  0.83781  0.61111  1.0000
  H   H1875     1.0  0.16273  0.81861  0.67167  1.0000
  C   C1553     1.0  0.04367  0.72922  0.64292  1.0000
  C   C1554     1.0  0.13460  0.96768  0.57034  1.0000
  C   C1555     1.0  0.08721  0.92683  0.49036  1.0000
  H   H1876     1.0  0.00550  0.74978  0.61666  1.0000
  H   H1877     1.0  0.02236  0.91872  0.53778  1.0000
  C   C1556     1.0  0.05524  0.93137  0.50212  1.0000
  C   C1557     1.0  0.20374  0.84771  0.71750  1.0000
  C   C1558     1.0  0.15257  0.82516  0.63140  1.0000
  H   H1878     1.0  0.15935  0.83831  0.68940  1.0000
  C   C1559     1.0  0.15300  0.84318  0.62507  1.0000
  H   H1879     1.0  0.07697  0.85297  0.62300  1.0000
  H   H1880     1.0  0.20798  0.73671  0.70022  1.0000
  C   C1560     1.0  0.10924  0.84683  0.65755  1.0000
  H   H1881     1.0  0.10994  0.85959  0.65972  1.0000
  H   H1882     1.0  0.11720  0.83172  0.68204  1.0000
  N   N105      1.0  0.14776  0.95057  0.57013  1.0000
  C   C1561     1.0  0.00171  0.77582  0.54812  1.0000
  H   H1883     1.0  0.04935  0.75564  0.63560  1.0000
  H   H1884     1.0  0.06291  0.69421  0.65207  1.0000
  H   H1885     1.0  0.09642  0.96218  0.55331  1.0000
  C   C1562     1.0  0.24328  0.66710  0.64758  1.0000
  Fe  Fe218     1.0  0.23572  0.80873  0.72329  1.0000
  C   C1563     1.0  0.15633  0.67184  0.56384  1.0000
  H   H1886     1.0  0.99602  0.75124  0.56552  1.0000
  C   C1564     1.0  0.48720  0.97052  0.59451  1.0000
  H   H1887     1.0  0.06060  0.81071  0.52645  1.0000
  C   C1565     1.0  0.04971  0.69268  0.66100  1.0000
  C   C1566     1.0  0.27321  0.66502  0.58238  1.0000
  H   H1888     1.0  0.00703  0.69759  0.65668  1.0000
  H   H1889     1.0  0.12955  0.73730  0.59705  1.0000
  H   H1890     1.0  0.11677  0.66902  0.59309  1.0000
  C   C1567     1.0  0.17000  0.94636  0.58982  1.0000
  H   H1891     1.0  0.37798  0.68037  0.70606  1.0000
  H   H1892     1.0  0.13548  0.97138  0.50470  1.0000
  H   H1893     1.0  0.16224  0.93430  0.55084  1.0000
  C   C1568     1.0  0.35429  0.69594  0.71991  1.0000
  C   C1569     1.0  0.02543  0.91466  0.51133  1.0000
  C   C1570     1.0  0.01882  0.72594  0.63232  1.0000
  H   H1894     1.0  0.16912  0.67532  0.56385  1.0000
  H   H1895     1.0  0.05731  0.66447  0.54864  1.0000
  H   H1896     1.0  0.08899  0.91413  0.50050  1.0000
  H   H1897     1.0  0.01150  0.79903  0.53178  1.0000
  C   C1571     1.0  0.11196  0.81495  0.66740  1.0000
  C   C1572     1.0  0.18381  0.75371  0.69276  1.0000
  N   N106      1.0  0.22992  0.79710  0.67011  1.0000
  C   C1573     1.0  0.21723  0.80350  0.68561  1.0000
  C   C1574     1.0  0.23689  0.77758  0.67546  1.0000
  C   C1575     1.0  0.24538  0.80601  0.66563  1.0000
  C   C1576     1.0  0.22042  0.80075  0.65530  1.0000
  C   C1577     1.0  0.22377  0.81393  0.63948  1.0000
  C   C1578     1.0  0.20694  0.79131  0.65666  1.0000
  C   C1579     1.0  0.21458  0.81691  0.62572  1.0000
  C   C1580     1.0  0.19805  0.79424  0.64274  1.0000
  C   C1581     1.0  0.20186  0.80698  0.62728  1.0000
  H   H1898     1.0  0.20513  0.79765  0.68960  1.0000
  H   H1899     1.0  0.22348  0.79994  0.69745  1.0000
  H   H1900     1.0  0.21281  0.81830  0.68267  1.0000
  H   H1901     1.0  0.22608  0.76998  0.68177  1.0000
  H   H1902     1.0  0.24526  0.77448  0.68564  1.0000
  H   H1903     1.0  0.24520  0.77190  0.66376  1.0000
  H   H1904     1.0  0.24109  0.82084  0.66317  1.0000
  H   H1905     1.0  0.25252  0.80253  0.67689  1.0000
  H   H1906     1.0  0.25534  0.80206  0.65379  1.0000
  H   H1907     1.0  0.23353  0.82201  0.63732  1.0000
  H   H1908     1.0  0.20318  0.78149  0.66848  1.0000
  H   H1909     1.0  0.21745  0.82684  0.61363  1.0000
  H   H1910     1.0  0.18809  0.78658  0.64391  1.0000
  H   H1911     1.0  0.19492  0.80910  0.61650  1.0000
  N   N107      1.0  0.14397  0.67182  0.58147  1.0000
  C   C1582     1.0  0.19810  0.97366  0.64430  1.0000
  C   C1583     1.0  0.10997  0.98237  0.72012  1.0000
  C   C1584     1.0  0.04464  0.77898  0.49247  1.0000
  C   C1585     1.0  0.14029  0.68967  0.58591  1.0000
  C   C1586     1.0  0.14581  0.69261  0.60045  1.0000
  C   C1587     1.0  0.13113  0.70487  0.57534  1.0000
  C   C1588     1.0  0.14202  0.70964  0.60426  1.0000
  C   C1589     1.0  0.12727  0.72182  0.57937  1.0000
  H   H1912     1.0  0.15264  0.95692  0.54111  1.0000
  H   H1913     1.0  0.14237  0.74552  0.72704  1.0000
  H   H1914     1.0  0.12123  0.67613  0.56922  1.0000
  H   H1915     1.0  0.01026  0.71812  0.63057  1.0000
  H   H1916     1.0  0.17280  0.96854  0.54627  1.0000
  C   C1590     1.0  0.18696  0.94492  0.70930  1.0000
  H   H1917     1.0  0.27076  0.65334  0.64639  1.0000
  H   H1918     1.0  0.19780  0.91697  0.70987  1.0000
  H   H1919     1.0  0.13211  0.97193  0.58325  1.0000
  C   C1591     1.0  0.06840  0.95579  0.48248  1.0000
  H   H1920     1.0  0.15306  0.68203  0.60916  1.0000
  H   H1921     1.0  0.12681  0.70373  0.56390  1.0000
  H   H1922     1.0  0.15259  0.87717  0.67628  1.0000
  H   H1923     1.0  0.11992  0.73317  0.57134  1.0000
  H   H1924     1.0  0.15968  0.65851  0.56018  1.0000
  H   H1925     1.0  0.09965  0.93212  0.48756  1.0000
  C   C1592     1.0  0.10546  0.94078  0.53883  1.0000
  H   H1926     1.0  0.00677  0.86896  0.55224  1.0000
  C   C1593     1.0  0.10223  0.97375  0.69615  1.0000
  S   S427      1.0  0.03763  0.88087  0.55304  1.0000
  C   C1594     1.0  0.10935  0.83885  0.60627  1.0000
  C   C1595     1.0  0.11595  0.96881  0.52935  1.0000
  H   H1927     1.0  0.19246  0.85329  0.64780  1.0000
  H   H1928     1.0  0.25078  0.69811  0.58464  1.0000
  H   H1929     1.0  0.10567  0.80121  0.65100  1.0000
  C   C1596     1.0  0.15600  0.81674  0.64827  1.0000
  C   C1597     1.0  0.01828  0.69529  0.66355  1.0000
  H   H1930     1.0  0.17730  0.87372  0.64089  1.0000
  C   C1598     1.0  0.19270  0.66820  0.60952  1.0000
  C   C1599     1.0  0.03932  0.68774  0.63721  1.0000
  H   H1931     1.0  0.31427  0.72696  0.71352  1.0000
  H   H1932     1.0  0.19540  0.65397  0.61018  1.0000
  C   C1600     1.0  0.19534  0.67997  0.59297  1.0000
  H   H1933     1.0  0.00329  0.81325  0.57375  1.0000
  H   H1934     1.0  0.12857  0.96614  0.70225  1.0000
  S   S428      1.0  0.01046  0.69408  0.60108  1.0000
  C   C1601     1.0  0.03264  0.71796  0.64209  1.0000
  C   C1602     1.0  0.04500  0.87057  0.52055  1.0000
  H   H1935     1.0  0.23732  0.97482  0.51596  1.0000
  C   C1603     1.0  0.03288  0.87231  0.53669  1.0000
  C   C1604     1.0  0.25067  0.66898  0.61015  1.0000
  S   S429      1.0  0.23620  0.83170  0.69965  1.0000
  H   H1936     1.0  0.09712  0.81120  0.60628  1.0000
  S   S430      1.0  0.20400  0.67217  0.57293  1.0000
  H   H1937     1.0  0.17434  0.85228  0.68765  1.0000
  H   H1938     1.0  0.15018  0.84979  0.61198  1.0000
  H   H1939     1.0  0.14598  0.87887  0.65590  1.0000
  H   H1940     1.0  0.08655  0.95184  0.50752  1.0000
  H   H1941     1.0  0.14616  0.71150  0.61556  1.0000
  N   N108      1.0  0.16551  0.85498  0.66326  1.0000
  C   C1605     1.0  0.18076  0.86342  0.65269  1.0000
  C   C1606     1.0  0.14983  0.86923  0.66792  1.0000
  C   C1607     1.0  0.17063  0.84409  0.68019  1.0000
  C   C1608     1.0  0.16102  0.84451  0.65261  1.0000
  C   C1609     1.0  0.16019  0.82614  0.65880  1.0000
  C   C1610     1.0  0.15708  0.85275  0.63551  1.0000
  C   C1611     1.0  0.11495  0.97325  0.70587  1.0000
  S   S431      1.0  0.01822  0.85191  0.49422  1.0000
  S   S432      1.0  0.99937  0.81108  0.49903  1.0000
  H   H1942     1.0  0.18779  0.78364  0.72275  1.0000
  H   H1943     1.0  0.13873  0.94135  0.55115  1.0000
  H   H1944     1.0  0.02624  0.66814  0.57828  1.0000
  C   C1612     1.0  0.00498  0.65513  0.57936  1.0000
  C   C1613     1.0  0.01601  0.74408  0.62422  1.0000
  S   S433      1.0  0.25112  0.78141  0.71956  1.0000
  C   C1614     1.0  0.04746  0.79621  0.48970  1.0000
  C   C1615     1.0  0.04469  0.92898  0.51975  1.0000
  H   H1945     1.0  0.07764  0.93396  0.52288  1.0000
  H   H1946     1.0  0.99693  0.72349  0.55522  1.0000
  H   H1947     1.0  0.36202  0.70509  0.72053  1.0000
  S   S434      1.0  0.09412  0.66251  0.55076  1.0000
  H   H1948     1.0  0.14373  0.65651  0.60829  1.0000
  H   H1949     1.0  0.25015  0.68879  0.56638  1.0000
  H   H1950     1.0  0.16577  0.65893  0.59504  1.0000
  C   C1616     1.0  0.36374  0.68170  0.71157  1.0000
  C   C1617     1.0  0.33691  0.67009  0.71822  1.0000
  C   C1618     1.0  0.26410  0.66091  0.62041  1.0000
  C   C1619     1.0  0.12706  0.66747  0.58064  1.0000
  C   C1620     1.0  0.24628  0.68749  0.58113  1.0000
  C   C1621     1.0  0.19729  0.95770  0.57813  1.0000
  H   H1951     1.0  0.02845  0.69053  0.62974  1.0000
  C   C1622     1.0  0.18604  0.94880  0.59223  1.0000
  H   H1952     1.0  0.20103  0.97162  0.55063  1.0000
  H   H1953     1.0  0.24543  0.65744  0.57368  1.0000
  H   H1954     1.0  0.05122  0.67825  0.66743  1.0000
  C   C1623     1.0  0.00632  0.75857  0.55807  1.0000
  H   H1955     1.0  0.33032  0.65988  0.71769  1.0000
  N   N109      1.0  0.07105  0.93976  0.49693  1.0000
  C   C1624     1.0  0.18677  0.92680  0.71529  1.0000
  H   H1956     1.0  0.23072  0.65814  0.59494  1.0000
  C   C1625     1.0  0.35505  0.66889  0.71062  1.0000
  C   C1626     1.0  0.05017  0.92500  0.48935  1.0000
  C   C1627     1.0  0.17250  0.95758  0.71578  1.0000
  C   C1628     1.0  0.02997  0.92084  0.52414  1.0000
  H   H1957     1.0  0.27945  0.65091  0.58761  1.0000
  S   S435      1.0  0.21735  0.75278  0.72400  1.0000
  C   C1629     1.0  0.06601  0.65346  0.54293  1.0000
  H   H1958     1.0  0.06321  0.95560  0.51728  1.0000
  C   C1630     1.0  0.07464  0.94554  0.51185  1.0000
  H   H1959     1.0  0.12916  0.65355  0.57876  1.0000
  C   C1631     1.0  0.19278  0.97411  0.66249  1.0000
  H   H1960     1.0  0.05603  0.96557  0.48675  1.0000
  H   H1961     1.0  0.07987  0.96271  0.47865  1.0000
  C   C1632     1.0  0.03553  0.91670  0.49397  1.0000
  H   H1962     1.0  0.17258  0.97169  0.71092  1.0000
  H   H1963     1.0  0.13928  0.97866  0.55956  1.0000
  H   H1964     1.0  0.46656  0.97928  0.57984  1.0000
  C   C1633     1.0  0.03707  0.77463  0.48055  1.0000
  C   C1634     1.0  0.47904  0.98178  0.58077  1.0000
  H   H1965     1.0  0.03211  0.91154  0.48416  1.0000
  C   C1635     1.0  0.32734  0.68423  0.72668  1.0000
  C   C1636     1.0  0.08446  0.64993  0.54215  1.0000
  H   H1966     1.0  0.11975  0.98251  0.72734  1.0000
  H   H1967     1.0  0.13355  0.64986  0.51669  1.0000
  H   H1968     1.0  0.08667  0.92338  0.47783  1.0000
  H   H1969     1.0  0.12757  0.80632  0.92422  1.0000
  H   H1970     1.0  0.41201  0.77809  0.86983  1.0000
  H   H1971     1.0  0.21889  0.78156  0.83451  1.0000
  C   C1637     1.0  0.45096  0.65824  0.75126  1.0000
  C   C1638     1.0  0.11636  0.81908  0.94683  1.0000
  Fe  Fe219     1.0  0.34015  0.77024  0.84437  1.0000
  S   S436      1.0  0.34617  0.79504  0.82486  1.0000
  S   S437      1.0  0.31857  0.77382  0.86878  1.0000
  Fe  Fe220     1.0  0.36546  0.74570  0.82045  1.0000
  S   S438      1.0  0.38122  0.71779  0.81894  1.0000
  Fe  Fe221     1.0  0.37473  0.78021  0.82095  1.0000
  S   S439      1.0  0.40075  0.78868  0.81722  1.0000
  Fe  Fe222     1.0  0.34325  0.78110  0.80480  1.0000
  H   H1972     1.0  0.25975  0.77074  0.78884  1.0000
  S   S440      1.0  0.36900  0.75659  0.84242  1.0000
  S   S441      1.0  0.33583  0.75688  0.82455  1.0000
  Fe  Fe223     1.0  0.47953  0.83842  0.86311  1.0000
  C   C1639     1.0  0.11496  0.83404  0.95377  1.0000
  H   H1973     1.0  0.19212  0.88765  0.82971  1.0000
  Fe  Fe224     1.0  0.44456  0.82549  0.86990  1.0000
  S   S442      1.0  0.45335  0.80175  0.89048  1.0000
  S   S443      1.0  0.41554  0.83040  0.86834  1.0000
  Fe  Fe225     1.0  0.46250  0.82117  0.90043  1.0000
  S   S444      1.0  0.45379  0.82015  0.93001  1.0000
  H   H1974     1.0  0.17261  0.90708  0.73197  1.0000
  C   C1640     1.0  0.12579  0.92154  0.87938  1.0000
  S   S445      1.0  0.45248  0.84513  0.88072  1.0000
  S   S446      1.0  0.47059  0.82122  0.84997  1.0000
  Fe  Fe226     1.0  0.20291  0.85224  0.89647  1.0000
  S   S447      1.0  0.19930  0.82970  0.88643  1.0000
  S   S448      1.0  0.21571  0.84358  0.92060  1.0000
  Fe  Fe227     1.0  0.18235  0.88046  0.87019  1.0000
  S   S449      1.0  0.17671  0.85988  0.85872  1.0000
  S   S450      1.0  0.17576  0.91041  0.85965  1.0000
  Fe  Fe228     1.0  0.17098  0.84501  0.88725  1.0000
  S   S451      1.0  0.14925  0.82903  0.89835  1.0000
  Fe  Fe229     1.0  0.20544  0.84662  0.85910  1.0000
  S   S452      1.0  0.22596  0.83767  0.83567  1.0000
  S   S453      1.0  0.17416  0.86672  0.89885  1.0000
  S   S454      1.0  0.21155  0.86799  0.86899  1.0000
  H   H1975     1.0  0.17212  0.79592  0.77223  1.0000
  S   S455      1.0  0.24420  0.80662  0.74882  1.0000
  H   H1976     1.0  0.13653  0.91190  0.77462  1.0000
  H   H1977     1.0  0.29882  0.81274  0.76505  1.0000
  S   S456      1.0  0.20976  0.80008  0.73639  1.0000
  H   H1978     1.0  0.30175  0.78389  0.83622  1.0000
  C   C1641     1.0  0.31785  0.76921  0.77905  1.0000
  Fe  Fe230     1.0  0.21927  0.79581  0.76183  1.0000
  S   S457      1.0  0.19913  0.80331  0.78611  1.0000
  S   S458      1.0  0.23263  0.76719  0.76128  1.0000
  C   C1642     1.0  0.12652  0.81789  0.92958  1.0000
  C   C1643     1.0  0.16082  0.76304  0.75929  1.0000
  H   H1979     1.0  0.25673  0.80863  0.84893  1.0000
  H   H1980     1.0  0.15139  0.79729  0.76679  1.0000
  C   C1644     1.0  0.16561  0.79015  0.76477  1.0000
  C   C1645     1.0  0.40574  0.72819  0.76673  1.0000
  H   H1981     1.0  0.40656  0.75671  0.77515  1.0000
  H   H1982     1.0  0.32734  0.73713  0.74241  1.0000
  H   H1983     1.0  0.41829  0.77765  0.78402  1.0000
  C   C1646     1.0  0.26242  0.78697  0.82411  1.0000
  C   C1647     1.0  0.13424  0.91676  0.73995  1.0000
  S   S459      1.0  0.36736  0.68571  0.75971  1.0000
  S   S460      1.0  0.13389  0.94698  0.79669  1.0000
  C   C1648     1.0  0.33571  0.69769  0.72769  1.0000
  C   C1649     1.0  0.11161  0.95631  0.86135  1.0000
  C   C1650     1.0  0.12352  0.84785  0.94335  1.0000
  H   H1984     1.0  0.45495  0.72204  0.85923  1.0000
  H   H1985     1.0  0.40450  0.75952  0.85387  1.0000
  C   C1651     1.0  0.08636  0.98140  0.86210  1.0000
  H   H1986     1.0  0.33869  0.86974  0.96504  1.0000
  H   H1987     1.0  0.15786  0.90402  0.76146  1.0000
  H   H1988     1.0  0.17918  0.88217  0.81709  1.0000
  H   H1989     1.0  0.34706  0.71993  0.74270  1.0000
  C   C1652     1.0  0.48108  0.74766  0.82969  1.0000
  H   H1990     1.0  0.29993  0.71372  0.73001  1.0000
  H   H1991     1.0  0.15129  0.83684  0.96087  1.0000
  H   H1992     1.0  0.10959  0.80847  0.95468  1.0000
  S   S461      1.0  0.47955  0.68923  0.76047  1.0000
  Fe  Fe231     1.0  0.30851  0.84191  0.93410  1.0000
  S   S462      1.0  0.30323  0.81555  0.95102  1.0000
  S   S463      1.0  0.29226  0.85888  0.91383  1.0000
  Fe  Fe232     1.0  0.34228  0.83870  0.94783  1.0000
  S   S464      1.0  0.33950  0.81233  0.96594  1.0000
  S   S465      1.0  0.36802  0.84714  0.94535  1.0000
  Fe  Fe233     1.0  0.33287  0.80587  0.94288  1.0000
  S   S466      1.0  0.34791  0.78109  0.93288  1.0000
  H   H1993     1.0  0.15105  0.80845  0.95104  1.0000
  S   S467      1.0  0.33770  0.83136  0.92419  1.0000
  S   S468      1.0  0.31356  0.85202  0.95599  1.0000
  C   C1653     1.0  0.46897  0.67159  0.76274  1.0000
  C   C1654     1.0  0.29227  0.77993  0.83048  1.0000
  H   H1994     1.0  0.45915  0.72135  0.77106  1.0000
  C   C1655     1.0  0.22259  0.78835  0.97355  1.0000
  C   C1656     1.0  0.30829  0.76118  0.77177  1.0000
  C   C1657     1.0  0.26863  0.79740  0.84843  1.0000
  C   C1658     1.0  0.23813  0.77511  0.81121  1.0000
  H   H1995     1.0  0.30929  0.69621  0.75767  1.0000
  H   H1996     1.0  0.45097  0.71519  0.83403  1.0000
  C   C1659     1.0  0.27929  0.81013  0.81770  1.0000
  H   H1997     1.0  0.12110  0.95070  0.74191  1.0000
  H   H1998     1.0  0.47630  0.90094  0.92363  1.0000
  H   H1999     1.0  0.18428  0.74170  0.75319  1.0000
  C   C1660     1.0  0.36740  0.86143  0.95926  1.0000
  S   S469      1.0  0.45201  0.88950  0.95644  1.0000
  H   H2000     1.0  0.17778  0.85992  0.73089  1.0000
  N   N110      1.0  0.14178  0.92753  0.74781  1.0000
  C   C1661     1.0  0.45910  0.67239  0.75010  1.0000
  H   H2001     1.0  0.22996  0.80159  0.94614  1.0000
  C   C1662     1.0  0.17088  0.74830  0.75138  1.0000
  C   C1663     1.0  0.23263  0.78102  0.82726  1.0000
  H   H2002     1.0  0.43428  0.70374  0.83416  1.0000
  H   H2003     1.0  0.17173  0.79375  0.75036  1.0000
  H   H2004     1.0  0.29965  0.77802  0.81689  1.0000
  C   C1664     1.0  0.13572  0.83138  0.91945  1.0000
  C   C1665     1.0  0.13410  0.84640  0.92636  1.0000
  S   S470      1.0  0.37254  0.76873  0.79870  1.0000
  H   H2005     1.0  0.14075  0.85705  0.91850  1.0000
  H   H2006     1.0  0.28516  0.80802  0.80384  1.0000
  C   C1666     1.0  0.16355  0.92045  0.84256  1.0000
  C   C1667     1.0  0.15525  0.91060  0.83608  1.0000
  C   C1668     1.0  0.14610  0.91895  0.82209  1.0000
  C   C1669     1.0  0.14490  0.93727  0.81470  1.0000
  C   C1670     1.0  0.15293  0.94721  0.82138  1.0000
  C   C1671     1.0  0.16230  0.93878  0.83520  1.0000
  H   H2007     1.0  0.15579  0.89658  0.84191  1.0000
  H   H2008     1.0  0.13978  0.91122  0.81708  1.0000
  H   H2009     1.0  0.15221  0.96128  0.81569  1.0000
  H   H2010     1.0  0.16868  0.94648  0.84019  1.0000
  C   C1672     1.0  0.21795  0.82892  0.82171  1.0000
  C   C1673     1.0  0.22896  0.82575  0.80541  1.0000
  C   C1674     1.0  0.22319  0.81811  0.79435  1.0000
  C   C1675     1.0  0.20634  0.81365  0.79946  1.0000
  C   C1676     1.0  0.19511  0.81728  0.81556  1.0000
  C   C1677     1.0  0.20090  0.82487  0.82670  1.0000
  H   H2011     1.0  0.24210  0.82894  0.80138  1.0000
  H   H2012     1.0  0.23199  0.81538  0.78208  1.0000
  H   H2013     1.0  0.18203  0.81390  0.81962  1.0000
  H   H2014     1.0  0.19232  0.82724  0.83929  1.0000
  C   C1678     1.0  0.23678  0.84831  0.91863  1.0000
  C   C1679     1.0  0.24615  0.84030  0.93245  1.0000
  C   C1680     1.0  0.26315  0.84350  0.93113  1.0000
  C   C1681     1.0  0.27084  0.85481  0.91600  1.0000
  C   C1682     1.0  0.26137  0.86299  0.90228  1.0000
  C   C1683     1.0  0.24439  0.85972  0.90357  1.0000
  H   H2015     1.0  0.24026  0.83156  0.94416  1.0000
  H   H2016     1.0  0.27021  0.83739  0.94186  1.0000
  H   H2017     1.0  0.26720  0.87182  0.89060  1.0000
  H   H2018     1.0  0.23721  0.86604  0.89291  1.0000
  H   H2019     1.0  0.28977  0.76674  0.83863  1.0000
  H   H2020     1.0  0.44057  0.76939  0.88013  1.0000
  N   N111      1.0  0.27531  0.79348  0.83021  1.0000
  C   C1684     1.0  0.35115  0.87116  0.96718  1.0000
  C   C1685     1.0  0.25554  0.77509  0.80148  1.0000
  C   C1686     1.0  0.45145  0.84012  0.93703  1.0000
  C   C1687     1.0  0.44586  0.84053  0.95524  1.0000
  C   C1688     1.0  0.44529  0.85591  0.96127  1.0000
  C   C1689     1.0  0.45035  0.87091  0.94910  1.0000
  C   C1690     1.0  0.45531  0.87068  0.93083  1.0000
  C   C1691     1.0  0.45581  0.85535  0.92479  1.0000
  H   H2021     1.0  0.44246  0.82878  0.96477  1.0000
  H   H2022     1.0  0.15408  0.92391  0.77004  1.0000
  H   H2023     1.0  0.45900  0.88225  0.92129  1.0000
  H   H2024     1.0  0.46028  0.85513  0.91076  1.0000
  C   C1692     1.0  0.20035  0.86098  0.77166  1.0000
  C   C1693     1.0  0.16540  0.83058  0.96196  1.0000
  Fe  Fe234     1.0  0.31042  0.82482  0.97229  1.0000
  H   H2025     1.0  0.17339  0.80872  0.93938  1.0000
  C   C1694     1.0  0.47114  0.76407  0.83374  1.0000
  H   H2026     1.0  0.48928  0.89484  0.90306  1.0000
  H   H2027     1.0  0.16823  0.78908  0.95545  1.0000
  C   C1695     1.0  0.43740  0.75800  0.92098  1.0000
  H   H2028     1.0  0.45931  0.77059  0.82829  1.0000
  H   H2029     1.0  0.46824  0.78440  0.84843  1.0000
  H   H2030     1.0  0.27894  0.80142  0.85297  1.0000
  H   H2031     1.0  0.16866  0.83617  0.97195  1.0000
  C   C1696     1.0  0.14724  0.75005  0.73635  1.0000
  H   H2032     1.0  0.28919  0.81533  0.82162  1.0000
  C   C1697     1.0  0.24449  0.78697  0.83365  1.0000
  H   H2033     1.0  0.32787  0.76102  0.78646  1.0000
  C   C1698     1.0  0.42709  0.76528  0.78106  1.0000
  H   H2034     1.0  0.40285  0.74043  0.75635  1.0000
  C   C1699     1.0  0.40443  0.79960  0.83224  1.0000
  C   C1700     1.0  0.42194  0.80121  0.83119  1.0000
  C   C1701     1.0  0.42545  0.81025  0.84254  1.0000
  C   C1702     1.0  0.41141  0.81811  0.85476  1.0000
  C   C1703     1.0  0.39387  0.81634  0.85600  1.0000
  C   C1704     1.0  0.39040  0.80693  0.84486  1.0000
  H   H2035     1.0  0.43282  0.79551  0.82148  1.0000
  H   H2036     1.0  0.43899  0.81149  0.84152  1.0000
  H   H2037     1.0  0.38298  0.82232  0.86551  1.0000
  H   H2038     1.0  0.37688  0.80568  0.84576  1.0000
  C   C1705     1.0  0.32685  0.77533  0.88673  1.0000
  C   C1706     1.0  0.34513  0.77431  0.88500  1.0000
  C   C1707     1.0  0.35158  0.77581  0.89932  1.0000
  C   C1708     1.0  0.33968  0.77892  0.91522  1.0000
  C   C1709     1.0  0.32133  0.78035  0.91686  1.0000
  C   C1710     1.0  0.31496  0.77825  0.90272  1.0000
  H   H2039     1.0  0.35433  0.77238  0.87264  1.0000
  H   H2040     1.0  0.36576  0.77482  0.89797  1.0000
  H   H2041     1.0  0.31212  0.78271  0.92917  1.0000
  H   H2042     1.0  0.30080  0.77907  0.90409  1.0000
  H   H2043     1.0  0.44059  0.70231  0.85464  1.0000
  H   H2044     1.0  0.26510  0.78542  0.85841  1.0000
  H   H2045     1.0  0.48918  0.83801  0.96825  1.0000
  H   H2046     1.0  0.44970  0.71455  0.74920  1.0000
  S   S471      1.0  0.47509  0.69086  0.80989  1.0000
  H   H2047     1.0  0.47022  0.74322  0.77954  1.0000
  H   H2048     1.0  0.19930  0.81433  0.94257  1.0000
  C   C1711     1.0  0.45629  0.74593  0.77857  1.0000
  C   C1712     1.0  0.13430  0.93554  0.87706  1.0000
  H   H2049     1.0  0.22873  0.77101  0.80607  1.0000
  C   C1713     1.0  0.37089  0.69415  0.77670  1.0000
  C   C1714     1.0  0.36073  0.71077  0.78003  1.0000
  C   C1715     1.0  0.36356  0.71796  0.79326  1.0000
  C   C1716     1.0  0.37649  0.70847  0.80329  1.0000
  C   C1717     1.0  0.38658  0.69182  0.80004  1.0000
  C   C1718     1.0  0.38388  0.68473  0.78668  1.0000
  H   H2050     1.0  0.35062  0.71814  0.77244  1.0000
  H   H2051     1.0  0.35580  0.73087  0.79564  1.0000
  H   H2052     1.0  0.39665  0.68449  0.80772  1.0000
  H   H2053     1.0  0.39191  0.67204  0.78406  1.0000
  H   H2054     1.0  0.18118  0.91288  0.79615  1.0000
  H   H2055     1.0  0.45806  0.68380  0.73915  1.0000
  H   H2056     1.0  0.38771  0.91666  0.94872  1.0000
  C   C1719     1.0  0.16516  0.80395  0.95264  1.0000
  H   H2057     1.0  0.23627  0.78243  0.97487  1.0000
  H   H2058     1.0  0.40104  0.71749  0.76355  1.0000
  C   C1720     1.0  0.29176  0.79030  0.75992  1.0000
  H   H2059     1.0  0.19463  0.85907  0.79955  1.0000
  H   H2060     1.0  0.44368  0.65882  0.74124  1.0000
  C   C1721     1.0  0.31444  0.78783  0.77663  1.0000
  H   H2061     1.0  0.23912  0.79193  0.84584  1.0000
  H   H2062     1.0  0.40297  0.71411  0.84727  1.0000
  H   H2063     1.0  0.17230  0.73120  0.73363  1.0000
  C   C1722     1.0  0.21903  0.79900  0.95737  1.0000
  H   H2064     1.0  0.20281  0.91888  0.78870  1.0000
  N   N112      1.0  0.32521  0.71260  0.73662  1.0000
  S   S472      1.0  0.10305  0.83571  0.97555  1.0000
  C   C1723     1.0  0.43163  0.73653  0.77240  1.0000
  Fe  Fe235     1.0  0.25708  0.77817  0.74652  1.0000
  C   C1724     1.0  0.29516  0.77172  0.76227  1.0000
  S   S473      1.0  0.47397  0.73807  0.81582  1.0000
  H   H2065     1.0  0.31093  0.74678  0.77370  1.0000
  H   H2066     1.0  0.12228  0.85956  0.94856  1.0000
  S   S474      1.0  0.32564  0.79840  0.78600  1.0000
  H   H2067     1.0  0.45171  0.75355  0.92024  1.0000
  H   H2068     1.0  0.20769  0.86540  0.74302  1.0000
  Fe  Fe236     1.0  0.22562  0.77265  0.73442  1.0000
  C   C1725     1.0  0.12745  0.95268  0.86814  1.0000
  N   N113      1.0  0.42506  0.72298  0.76740  1.0000
  C   C1726     1.0  0.11007  0.92469  0.87319  1.0000
  C   C1727     1.0  0.20635  0.87066  0.75473  1.0000
  C   C1728     1.0  0.31838  0.70543  0.75575  1.0000
  H   H2069     1.0  0.43035  0.71008  0.74513  1.0000
  C   C1729     1.0  0.20138  0.80629  0.95545  1.0000
  H   H2070     1.0  0.28184  0.79853  0.75244  1.0000
  C   C1730     1.0  0.30975  0.72218  0.72812  1.0000
  H   H2071     1.0  0.10349  0.91372  0.87502  1.0000
  H   H2072     1.0  0.28153  0.77850  0.97124  1.0000
  C   C1731     1.0  0.30145  0.79834  0.76699  1.0000
  C   C1732     1.0  0.19469  0.91027  0.79926  1.0000
  H   H2073     1.0  0.12185  0.91285  0.74885  1.0000
  C   C1733     1.0  0.13681  0.76411  0.74433  1.0000
  Fe  Fe237     1.0  0.48006  0.79911  0.87174  1.0000
  C   C1734     1.0  0.44493  0.76172  0.78244  1.0000
  H   H2074     1.0  0.14671  0.93291  0.88167  1.0000
  H   H2075     1.0  0.11580  0.93712  0.76351  1.0000
  H   H2076     1.0  0.13155  0.95077  0.75973  1.0000
  H   H2077     1.0  0.41889  0.90264  0.93674  1.0000
  C   C1735     1.0  0.10295  0.94183  0.86445  1.0000
  C   C1736     1.0  0.38351  0.86352  0.96194  1.0000
  N   N114      1.0  0.39998  0.79793  0.93156  1.0000
  C   C1737     1.0  0.41155  0.80818  0.93505  1.0000
  C   C1738     1.0  0.39095  0.80941  0.91706  1.0000
  C   C1739     1.0  0.38622  0.79452  0.94807  1.0000
  C   C1740     1.0  0.40987  0.78074  0.92648  1.0000
  C   C1741     1.0  0.40065  0.76956  0.92249  1.0000
  C   C1742     1.0  0.42861  0.77447  0.92554  1.0000
  C   C1743     1.0  0.40955  0.75311  0.91799  1.0000
  C   C1744     1.0  0.33568  0.72602  0.73575  1.0000
  C   C1745     1.0  0.42788  0.74729  0.91733  1.0000
  H   H2078     1.0  0.42177  0.81197  0.92292  1.0000
  H   H2079     1.0  0.40364  0.82078  0.93929  1.0000
  H   H2080     1.0  0.41853  0.80056  0.94609  1.0000
  H   H2081     1.0  0.40072  0.81135  0.90411  1.0000
  H   H2082     1.0  0.38417  0.82284  0.92000  1.0000
  H   H2083     1.0  0.38035  0.80367  0.91506  1.0000
  H   H2084     1.0  0.37583  0.78845  0.94614  1.0000
  H   H2085     1.0  0.39236  0.78530  0.95910  1.0000
  H   H2086     1.0  0.37897  0.80711  0.95270  1.0000
  H   H2087     1.0  0.38640  0.77341  0.92296  1.0000
  H   H2088     1.0  0.43683  0.78206  0.92820  1.0000
  H   H2089     1.0  0.40214  0.74486  0.91503  1.0000
  H   H2090     1.0  0.39615  0.85615  0.95575  1.0000
  H   H2091     1.0  0.09069  0.94360  0.85998  1.0000
  N   N115      1.0  0.10406  0.97422  0.85161  1.0000
  H   H2092     1.0  0.13156  0.90817  0.88579  1.0000
  H   H2093     1.0  0.43475  0.73455  0.91379  1.0000
  S   S475      1.0  0.28315  0.76138  0.75353  1.0000
  H   H2094     1.0  0.43336  0.74432  0.81986  1.0000
  H   H2095     1.0  0.31071  0.71632  0.76298  1.0000
  H   H2096     1.0  0.46155  0.74112  0.87504  1.0000
  H   H2097     1.0  0.41876  0.73068  0.81884  1.0000
  C   C1746     1.0  0.26750  0.78095  0.80777  1.0000
  H   H2098     1.0  0.47803  0.65602  0.78657  1.0000
  Fe  Fe238     1.0  0.12481  0.97697  0.78768  1.0000
  H   H2099     1.0  0.40976  0.74997  0.82824  1.0000
  C   C1747     1.0  0.16412  0.74201  0.74007  1.0000
  H   H2100     1.0  0.32961  0.69784  0.76254  1.0000
  H   H2101     1.0  0.39618  0.73272  0.85792  1.0000
  C   C1748     1.0  0.42047  0.75298  0.77604  1.0000
  C   C1749     1.0  0.42772  0.70588  0.78058  1.0000
  S   S476      1.0  0.40793  0.65414  0.73575  1.0000
  C   C1750     1.0  0.10164  0.97295  0.83407  1.0000
  H   H2102     1.0  0.26690  0.82074  0.81725  1.0000
  H   H2103     1.0  0.40927  0.71256  0.86802  1.0000
  N   N116      1.0  0.20319  0.89094  0.80137  1.0000
  C   C1751     1.0  0.22179  0.88842  0.80357  1.0000
  H   H2104     1.0  0.30211  0.73406  0.73389  1.0000
  C   C1752     1.0  0.19308  0.88161  0.81816  1.0000
  C   C1753     1.0  0.20360  0.88410  0.78551  1.0000
  C   C1754     1.0  0.19899  0.86750  0.78687  1.0000
  C   C1755     1.0  0.20991  0.89347  0.76803  1.0000
  H   H2105     1.0  0.42043  0.70768  0.79427  1.0000
  C   C1756     1.0  0.21107  0.88689  0.75291  1.0000
  H   H2106     1.0  0.13507  0.96271  0.86645  1.0000
  H   H2107     1.0  0.23005  0.89572  0.79176  1.0000
  H   H2108     1.0  0.22215  0.89320  0.81550  1.0000
  H   H2109     1.0  0.22849  0.87399  0.80545  1.0000
  C   C1757     1.0  0.12699  0.94224  0.75338  1.0000
  C   C1758     1.0  0.47615  0.77186  0.84520  1.0000
  H   H2110     1.0  0.07650  0.97294  0.86406  1.0000
  H   H2111     1.0  0.19980  0.86739  0.82194  1.0000
  C   C1759     1.0  0.14787  0.91630  0.76414  1.0000
  H   H2112     1.0  0.39733  0.73065  0.77983  1.0000
  H   H2113     1.0  0.19707  0.84812  0.77306  1.0000
  H   H2114     1.0  0.21443  0.90574  0.76589  1.0000
  H   H2115     1.0  0.44208  0.70026  0.78102  1.0000
  H   H2116     1.0  0.21605  0.89419  0.73969  1.0000
  H   H2117     1.0  0.19290  0.91526  0.81168  1.0000
  N   N117      1.0  0.31132  0.83373  0.86996  1.0000
  C   C1760     1.0  0.31088  0.85322  0.86513  1.0000
  C   C1761     1.0  0.32120  0.82605  0.88472  1.0000
  C   C1762     1.0  0.32170  0.82555  0.85454  1.0000
  C   C1763     1.0  0.29281  0.83061  0.87456  1.0000
  C   C1764     1.0  0.28145  0.83776  0.86202  1.0000
  C   C1765     1.0  0.28549  0.82061  0.89133  1.0000
  C   C1766     1.0  0.26377  0.83544  0.86619  1.0000
  C   C1767     1.0  0.26788  0.81817  0.89526  1.0000
  C   C1768     1.0  0.25701  0.82567  0.88279  1.0000
  H   H2118     1.0  0.30231  0.85990  0.87613  1.0000
  H   H2119     1.0  0.32447  0.85612  0.86263  1.0000
  H   H2120     1.0  0.30555  0.85987  0.85288  1.0000
  H   H2121     1.0  0.31421  0.83162  0.89681  1.0000
  H   H2122     1.0  0.33491  0.82891  0.88102  1.0000
  H   H2123     1.0  0.32297  0.81131  0.88840  1.0000
  H   H2124     1.0  0.31614  0.83162  0.84231  1.0000
  H   H2125     1.0  0.33592  0.82698  0.85105  1.0000
  H   H2126     1.0  0.32178  0.81098  0.85760  1.0000
  H   H2127     1.0  0.28610  0.84543  0.84898  1.0000
  H   H2128     1.0  0.29296  0.81482  0.90181  1.0000
  H   H2129     1.0  0.25515  0.84142  0.85661  1.0000
  H   H2130     1.0  0.26242  0.81092  0.90830  1.0000
  H   H2131     1.0  0.24316  0.82426  0.88619  1.0000
  H   H2132     1.0  0.44993  0.77115  0.78664  1.0000
  H   H2133     1.0  0.12365  0.77027  0.74142  1.0000
  C   C1769     1.0  0.47048  0.65668  0.77673  1.0000
  H   H2134     1.0  0.24632  0.83455  0.97456  1.0000
  H   H2135     1.0  0.39589  0.87708  0.97414  1.0000
  C   C1770     1.0  0.43520  0.71995  0.74949  1.0000
  H   H2136     1.0  0.43402  0.73261  0.73930  1.0000
  H   H2137     1.0  0.42277  0.69539  0.77735  1.0000
  H   H2138     1.0  0.11450  0.96691  0.82599  1.0000
  Fe  Fe239     1.0  0.38269  0.65792  0.75668  1.0000
  C   C1771     1.0  0.18669  0.80321  0.96976  1.0000
  N   N118      1.0  0.16774  0.77046  0.77088  1.0000
  C   C1772     1.0  0.15753  0.76651  0.78947  1.0000
  C   C1773     1.0  0.18702  0.76300  0.77103  1.0000
  C   C1774     1.0  0.14335  0.77042  0.75581  1.0000
  H   H2139     1.0  0.15872  0.75184  0.79454  1.0000
  H   H2140     1.0  0.16248  0.77176  0.79865  1.0000
  H   H2141     1.0  0.14303  0.77262  0.79061  1.0000
  H   H2142     1.0  0.18958  0.74845  0.77700  1.0000
  H   H2143     1.0  0.19211  0.76945  0.77911  1.0000
  H   H2144     1.0  0.19536  0.76508  0.75728  1.0000
  H   H2145     1.0  0.13466  0.78122  0.76181  1.0000
  H   H2146     1.0  0.14373  0.90415  0.73745  1.0000
  H   H2147     1.0  0.28072  0.78097  0.79957  1.0000
  N   N119      1.0  0.40144  0.87319  0.90211  1.0000
  C   C1775     1.0  0.41061  0.85534  0.91053  1.0000
  C   C1776     1.0  0.38536  0.87081  0.89731  1.0000
  C   C1777     1.0  0.41341  0.87991  0.88524  1.0000
  C   C1778     1.0  0.39733  0.88559  0.91448  1.0000
  C   C1779     1.0  0.41139  0.88930  0.92010  1.0000
  C   C1780     1.0  0.37957  0.89385  0.92166  1.0000
  C   C1781     1.0  0.40794  0.90046  0.93222  1.0000
  C   C1782     1.0  0.37627  0.90515  0.93365  1.0000
  C   C1783     1.0  0.39040  0.90841  0.93894  1.0000
  H   H2148     1.0  0.40244  0.85047  0.92375  1.0000
  H   H2149     1.0  0.41308  0.84529  0.90213  1.0000
  H   H2150     1.0  0.42382  0.85548  0.91287  1.0000
  H   H2151     1.0  0.37611  0.86494  0.90926  1.0000
  H   H2152     1.0  0.38900  0.86148  0.88791  1.0000
  H   H2153     1.0  0.37792  0.88371  0.89063  1.0000
  H   H2154     1.0  0.42662  0.88042  0.88733  1.0000
  H   H2155     1.0  0.41628  0.87114  0.87542  1.0000
  H   H2156     1.0  0.40727  0.89363  0.87889  1.0000
  H   H2157     1.0  0.42517  0.88330  0.91543  1.0000
  H   H2158     1.0  0.36795  0.89141  0.91870  1.0000
  N   N120      1.0  0.16813  0.81081  0.96714  1.0000
  H   H2159     1.0  0.36262  0.91088  0.93942  1.0000
  C   C1784     1.0  0.44978  0.73346  0.77373  1.0000
  N   N121      1.0  0.42414  0.72768  0.84501  1.0000
  C   C1785     1.0  0.40745  0.72150  0.85496  1.0000
  C   C1786     1.0  0.42138  0.73860  0.82726  1.0000
  C   C1787     1.0  0.43814  0.71153  0.84190  1.0000
  C   C1788     1.0  0.42874  0.73862  0.85511  1.0000
  C   C1789     1.0  0.41690  0.75481  0.85860  1.0000
  C   C1790     1.0  0.44486  0.73380  0.86163  1.0000
  C   C1791     1.0  0.42107  0.76559  0.86774  1.0000
  C   C1792     1.0  0.44886  0.74469  0.87081  1.0000
  C   C1793     1.0  0.43711  0.76066  0.87362  1.0000
  H   H2160     1.0  0.14706  0.96271  0.73265  1.0000
  H   H2161     1.0  0.17381  0.83520  0.94873  1.0000
  H   H2162     1.0  0.31337  0.68443  0.73259  1.0000
  H   H2163     1.0  0.26724  0.80887  0.97416  1.0000
  C   C1794     1.0  0.38338  0.87533  0.97248  1.0000
  H   H2164     1.0  0.09173  0.96482  0.83524  1.0000
  C   C1795     1.0  0.15717  0.93380  0.73471  1.0000
  H   H2165     1.0  0.44168  0.85584  0.97539  1.0000
  H   H2166     1.0  0.20588  0.83708  0.72887  1.0000
  C   C1796     1.0  0.15780  0.95220  0.72830  1.0000
  H   H2167     1.0  0.08747  0.98230  0.87554  1.0000
  C   C1797     1.0  0.17219  0.92128  0.72789  1.0000
  Fe  Fe240     1.0  0.72261  0.13204  0.05558  1.0000
  S   S477      1.0  0.71753  0.10726  0.07556  1.0000
  S   S478      1.0  0.73939  0.13017  0.02829  1.0000
  Fe  Fe241     1.0  0.70329  0.15638  0.08199  1.0000
  S   S479      1.0  0.69746  0.13327  0.10439  1.0000
  S   S480      1.0  0.69155  0.18549  0.08279  1.0000
  Fe  Fe242     1.0  0.72573  0.11958  0.09396  1.0000
  S   S481      1.0  0.74669  0.10070  0.10842  1.0000
  Fe  Fe243     1.0  0.68999  0.12335  0.08373  1.0000
  S   S482      1.0  0.66266  0.11681  0.08958  1.0000
  S   S483      1.0  0.73223  0.14367  0.07339  1.0000
  S   S484      1.0  0.69438  0.14711  0.06188  1.0000
  Fe  Fe244     1.0  0.60996  0.07477  0.00307  1.0000
  S   S485      1.0  0.61589  0.05336  0.02680  1.0000
  C   C1798     1.0  0.67642  0.29041  0.22010  1.0000
  Fe  Fe245     1.0  0.59113  0.10268  0.02573  1.0000
  S   S486      1.0  0.59613  0.08379  0.05120  1.0000
  S   S487      1.0  0.57508  0.13067  0.02458  1.0000
  Fe  Fe246     1.0  0.62354  0.07472  0.03545  1.0000
  S   S488      1.0  0.65065  0.06955  0.04221  1.0000
  Fe  Fe247     1.0  0.58777  0.06448  0.04016  1.0000
  S   S489      1.0  0.56752  0.04967  0.05966  1.0000
  S   S490      1.0  0.61924  0.09549  0.01091  1.0000
  S   S491      1.0  0.58110  0.08405  0.01553  1.0000
  Fe  Fe248     1.0  0.65371  0.23858  0.15590  1.0000
  S   S492      1.0  0.63269  0.24075  0.18094  1.0000
  S   S493      1.0  0.67363  0.21240  0.15532  1.0000
  Fe  Fe249     1.0  0.63906  0.27616  0.13755  1.0000
  S   S494      1.0  0.61690  0.28119  0.16092  1.0000
  S   S495      1.0  0.64206  0.29841  0.11369  1.0000
  Fe  Fe250     1.0  0.63809  0.26818  0.17707  1.0000
  H   H2168     1.0  0.60970  0.21740  0.14468  1.0000
  Fe  Fe251     1.0  0.61380  0.25353  0.16223  1.0000
  S   S496      1.0  0.58748  0.24559  0.16586  1.0000
  S   S497      1.0  0.66062  0.26504  0.15342  1.0000
  S   S498      1.0  0.63447  0.24945  0.13749  1.0000
  H   H2169     1.0  0.65879  0.24306  0.06950  1.0000
  C   C1799     1.0  0.89251  0.03070  0.17549  1.0000
  H   H2170     1.0  0.53625  0.03533  0.07736  1.0000
  C   C1800     1.0  0.67006  0.06234  0.00011  1.0000
  C   C1801     1.0  0.89764  0.01377  0.07680  1.0000
  H   H2171     1.0  0.64748  0.24044  0.05377  1.0000
  C   C1802     1.0  0.87405  0.00995  0.19381  1.0000
  C   C1803     1.0  0.67609  0.14862  0.01926  1.0000
  C   C1804     1.0  0.88040  0.01752  0.14162  1.0000
  Fe  Fe252     1.0  0.82433  0.11574  0.14325  1.0000
  S   S499      1.0  0.84864  0.12734  0.12942  1.0000
  S   S500      1.0  0.79713  0.13119  0.13804  1.0000
  Fe  Fe253     1.0  0.84557  0.08427  0.16568  1.0000
  S   S501      1.0  0.87150  0.09345  0.15375  1.0000
  S   S502      1.0  0.84168  0.05902  0.18605  1.0000
  Fe  Fe254     1.0  0.85526  0.12074  0.15670  1.0000
  S   S503      1.0  0.86310  0.14148  0.16658  1.0000
  Fe  Fe255     1.0  0.86249  0.09903  0.12780  1.0000
  S   S504      1.0  0.88217  0.09006  0.10393  1.0000
  S   S505      1.0  0.82988  0.11117  0.17064  1.0000
  S   S506      1.0  0.83766  0.08790  0.13956  1.0000
  Fe  Fe256     1.0  0.86572  0.05455  0.02860  1.0000
  S   S507      1.0  0.86366  0.02571  0.03659  1.0000
  S   S508      1.0  0.84892  0.07251  0.04748  1.0000
  H   H2172     1.0  0.55604  0.27284  0.00290  1.0000
  S   S509      1.0  0.88340  0.02243  0.99522  1.0000
  Fe  Fe257     1.0  0.85545  0.03055  0.01036  1.0000
  S   S510      1.0  0.83107  0.02227  0.00802  1.0000
  H   H2173     1.0  0.63280  0.12872  0.04324  1.0000
  S   S511      1.0  0.85596  0.05959  0.00333  1.0000
  S   S512      1.0  0.89471  0.04932  0.01448  1.0000
  Fe  Fe258     1.0  0.56496  0.19583  0.07963  1.0000
  S   S513      1.0  0.55749  0.20418  0.10605  1.0000
  S   S514      1.0  0.58879  0.17333  0.07517  1.0000
  Fe  Fe259     1.0  0.53492  0.22387  0.06504  1.0000
  S   S515      1.0  0.52544  0.23478  0.08999  1.0000
  S   S516      1.0  0.51693  0.23474  0.04525  1.0000
  Fe  Fe260     1.0  0.55453  0.23199  0.08934  1.0000
  S   S517      1.0  0.56658  0.25385  0.09194  1.0000
  Fe  Fe261     1.0  0.52913  0.20600  0.10405  1.0000
  S   S518      1.0  0.56386  0.22354  0.06291  1.0000
  S   S519      1.0  0.53687  0.19521  0.07911  1.0000
  H   H2174     1.0  0.64231  0.01248  0.00565  1.0000
  S   S520      1.0  0.70590  0.09650  0.98382  1.0000
  C   C1805     1.0  0.60529  0.30652  0.11914  1.0000
  H   H2175     1.0  0.77593  0.03775  0.02254  1.0000
  C   C1806     1.0  0.54841  0.30540  0.15091  1.0000
  H   H2176     1.0  0.91106  0.19236  0.18621  1.0000
  H   H2177     1.0  0.78669  0.07782  0.21020  1.0000
  C   C1807     1.0  0.87300  0.08496  0.08832  1.0000
  C   C1808     1.0  0.85447  0.08766  0.09031  1.0000
  C   C1809     1.0  0.84731  0.08328  0.07797  1.0000
  C   C1810     1.0  0.85858  0.07644  0.06338  1.0000
  C   C1811     1.0  0.87714  0.07346  0.06147  1.0000
  C   C1812     1.0  0.88434  0.07770  0.07396  1.0000
  H   H2178     1.0  0.84560  0.09345  0.10116  1.0000
  H   H2179     1.0  0.83296  0.08554  0.07961  1.0000
  H   H2180     1.0  0.88594  0.06817  0.05025  1.0000
  H   H2181     1.0  0.89870  0.07550  0.07241  1.0000
  C   C1813     1.0  0.86078  0.04161  0.18598  1.0000
  C   C1814     1.0  0.85909  0.02417  0.19489  1.0000
  C   C1815     1.0  0.69189  0.27691  0.19469  1.0000
  C   C1816     1.0  0.87759  0.04484  0.17657  1.0000
  H   H2182     1.0  0.84614  0.02157  0.20231  1.0000
  H   H2183     1.0  0.54137  0.12173  0.05512  1.0000
  H   H2184     1.0  0.87915  0.05820  0.17000  1.0000
  H   H2185     1.0  0.63749  0.22068  0.10268  1.0000
  H   H2186     1.0  0.57890  0.13766  0.10329  1.0000
  C   C1817     1.0  0.87306  0.14858  0.19433  1.0000
  C   C1818     1.0  0.87157  0.13524  0.18636  1.0000
  C   C1819     1.0  0.87772  0.11730  0.19372  1.0000
  C   C1820     1.0  0.88578  0.11277  0.20861  1.0000
  S   S521      1.0  0.91529  0.99945  0.02930  1.0000
  H   H2187     1.0  0.86834  0.16247  0.18866  1.0000
  H   H2188     1.0  0.87672  0.10694  0.18764  1.0000
  H   H2189     1.0  0.94775  0.99435  0.99898  1.0000
  H   H2190     1.0  0.80041  0.09441  0.16125  1.0000
  C   C1821     1.0  0.52619  0.03447  0.03840  1.0000
  C   C1822     1.0  0.57105  0.30721  0.17269  1.0000
  C   C1823     1.0  0.50739  0.26614  0.02264  1.0000
  H   H2191     1.0  0.73462  0.12943  0.15557  1.0000
  H   H2192     1.0  0.76826  0.06808  0.17454  1.0000
  H   H2193     1.0  0.70215  0.24987  0.16886  1.0000
  N   N122      1.0  0.67894  0.05490  0.98387  1.0000
  C   C1824     1.0  0.52822  0.28329  0.00182  1.0000
  H   H2194     1.0  0.65502  0.12744  0.04520  1.0000
  H   H2195     1.0  0.63851  0.31222  0.16633  1.0000
  C   C1825     1.0  0.52157  0.25373  0.02918  1.0000
  C   C1826     1.0  0.53911  0.25631  0.02232  1.0000
  C   C1827     1.0  0.54246  0.27101  0.00847  1.0000
  H   H2196     1.0  0.77000  0.11574  0.19740  1.0000
  H   H2197     1.0  0.52040  0.07556  0.02372  1.0000
  H   H2198     1.0  0.55012  0.24669  0.02728  1.0000
  C   C1828     1.0  0.82095  0.03647  0.99066  1.0000
  H   H2199     1.0  0.57664  0.31306  0.12252  1.0000
  H   H2200     1.0  0.92106  0.99402  0.99183  1.0000
  N   N123      1.0  0.65137  0.13391  0.01809  1.0000
  H   H2201     1.0  0.89374  0.00934  0.14364  1.0000
  H   H2202     1.0  0.60570  0.29292  0.12631  1.0000
  Fe  Fe262     1.0  0.89182  0.02054  0.02075  1.0000
  C   C1829     1.0  0.58132  0.24804  0.14547  1.0000
  C   C1830     1.0  0.58928  0.25873  0.13005  1.0000
  C   C1831     1.0  0.58455  0.26054  0.11372  1.0000
  C   C1832     1.0  0.57205  0.25137  0.11265  1.0000
  C   C1833     1.0  0.56394  0.24073  0.12808  1.0000
  C   C1834     1.0  0.56848  0.23918  0.14452  1.0000
  H   H2203     1.0  0.59896  0.26577  0.13075  1.0000
  H   H2204     1.0  0.59064  0.26905  0.10195  1.0000
  H   H2205     1.0  0.55411  0.23377  0.12740  1.0000
  H   H2206     1.0  0.56225  0.23090  0.15646  1.0000
  C   C1835     1.0  0.55182  0.04382  0.05120  1.0000
  C   C1836     1.0  0.55338  0.04587  0.03284  1.0000
  C   C1837     1.0  0.54064  0.04111  0.02646  1.0000
  C   C1838     1.0  0.53744  0.03707  0.06314  1.0000
  H   H2207     1.0  0.56456  0.05085  0.02359  1.0000
  C   C1839     1.0  0.52755  0.29210  0.05189  1.0000
  H   H2208     1.0  0.57119  0.08821  0.09783  1.0000
  C   C1840     1.0  0.57989  0.14260  0.03796  1.0000
  C   C1841     1.0  0.59320  0.13503  0.04800  1.0000
  C   C1842     1.0  0.59641  0.14476  0.05897  1.0000
  C   C1843     1.0  0.58618  0.16195  0.06002  1.0000
  C   C1844     1.0  0.57317  0.16960  0.04968  1.0000
  C   C1845     1.0  0.57003  0.15994  0.03869  1.0000
  H   H2209     1.0  0.60081  0.12162  0.04754  1.0000
  H   H2210     1.0  0.60631  0.13872  0.06715  1.0000
  H   H2211     1.0  0.56544  0.18296  0.05018  1.0000
  H   H2212     1.0  0.55983  0.16589  0.03083  1.0000
  C   C1846     1.0  0.76132  0.10961  0.11535  1.0000
  C   C1847     1.0  0.75771  0.12770  0.11594  1.0000
  C   C1848     1.0  0.76898  0.13418  0.12273  1.0000
  C   C1849     1.0  0.78410  0.12272  0.12854  1.0000
  C   C1850     1.0  0.78813  0.10479  0.12718  1.0000
  C   C1851     1.0  0.77659  0.09820  0.12089  1.0000
  H   H2213     1.0  0.74596  0.13658  0.11171  1.0000
  H   H2214     1.0  0.76587  0.14809  0.12363  1.0000
  H   H2215     1.0  0.79993  0.09592  0.13123  1.0000
  H   H2216     1.0  0.77944  0.08419  0.12041  1.0000
  C   C1852     1.0  0.68687  0.19256  0.10312  1.0000
  C   C1853     1.0  0.67898  0.21051  0.10353  1.0000
  C   C1854     1.0  0.67481  0.21664  0.11952  1.0000
  C   C1855     1.0  0.67863  0.20486  0.13519  1.0000
  C   C1856     1.0  0.68662  0.18690  0.13479  1.0000
  C   C1857     1.0  0.69067  0.18072  0.11879  1.0000
  H   H2217     1.0  0.67640  0.21977  0.09137  1.0000
  H   H2218     1.0  0.66913  0.23059  0.11961  1.0000
  H   H2219     1.0  0.68968  0.17775  0.14687  1.0000
  H   H2220     1.0  0.69690  0.16688  0.11854  1.0000
  C   C1858     1.0  0.65947  0.10325  0.07678  1.0000
  C   C1859     1.0  0.67404  0.09382  0.06628  1.0000
  C   C1860     1.0  0.67115  0.08318  0.05606  1.0000
  C   C1861     1.0  0.65370  0.08235  0.05586  1.0000
  C   C1862     1.0  0.63910  0.09205  0.06610  1.0000
  C   C1863     1.0  0.64201  0.10229  0.07674  1.0000
  H   H2221     1.0  0.68753  0.09454  0.06621  1.0000
  H   H2222     1.0  0.68247  0.07574  0.04809  1.0000
  H   H2223     1.0  0.62562  0.09147  0.06601  1.0000
  H   H2224     1.0  0.63069  0.10964  0.08479  1.0000
  C   C1864     1.0  0.73007  0.12066  0.01613  1.0000
  C   C1865     1.0  0.73784  0.12055  0.99815  1.0000
  C   C1866     1.0  0.63323  0.27267  0.07936  1.0000
  C   C1867     1.0  0.71536  0.10568  0.99620  1.0000
  C   C1868     1.0  0.70785  0.10542  0.01431  1.0000
  C   C1869     1.0  0.71512  0.11298  0.02426  1.0000
  H   H2225     1.0  0.71212  0.15867  0.98717  1.0000
  H   H2226     1.0  0.91931  0.99600  0.08810  1.0000
  H   H2227     1.0  0.69655  0.09920  0.02072  1.0000
  H   H2228     1.0  0.70910  0.11292  0.03818  1.0000
  C   C1870     1.0  0.57620  0.11186  0.10140  1.0000
  H   H2229     1.0  0.51984  0.10597  0.10205  1.0000
  C   C1871     1.0  0.56730  0.29090  0.17301  1.0000
  H   H2230     1.0  0.81974  0.06952  0.02600  1.0000
  H   H2231     1.0  0.67102  0.14929  0.03314  1.0000
  H   H2232     1.0  0.62406  0.13897  0.01489  1.0000
  C   C1872     1.0  0.69573  0.23538  0.21521  1.0000
  H   H2233     1.0  0.63387  0.15837  0.00859  1.0000
  N   N124      1.0  0.79606  0.11227  0.05815  1.0000
  C   C1873     1.0  0.79414  0.09465  0.06983  1.0000
  C   C1874     1.0  0.77822  0.12457  0.05990  1.0000
  C   C1875     1.0  0.80170  0.10986  0.03936  1.0000
  C   C1876     1.0  0.80898  0.11929  0.06368  1.0000
  C   C1877     1.0  0.82660  0.11991  0.05349  1.0000
  C   C1878     1.0  0.80444  0.12484  0.08024  1.0000
  C   C1879     1.0  0.83868  0.12596  0.05949  1.0000
  C   C1880     1.0  0.81660  0.13087  0.08610  1.0000
  C   C1881     1.0  0.83370  0.13140  0.07577  1.0000
  H   H2234     1.0  0.78943  0.09554  0.08413  1.0000
  H   H2235     1.0  0.78423  0.08902  0.06645  1.0000
  H   H2236     1.0  0.80717  0.08486  0.06861  1.0000
  H   H2237     1.0  0.76875  0.12062  0.05412  1.0000
  H   H2238     1.0  0.77933  0.13851  0.05296  1.0000
  H   H2239     1.0  0.77145  0.12472  0.07406  1.0000
  H   H2240     1.0  0.80409  0.12256  0.02998  1.0000
  H   H2241     1.0  0.81409  0.09931  0.03744  1.0000
  H   H2242     1.0  0.79133  0.10554  0.03521  1.0000
  H   H2243     1.0  0.83166  0.11520  0.04114  1.0000
  H   H2244     1.0  0.79154  0.12425  0.08898  1.0000
  H   H2245     1.0  0.85222  0.12579  0.05179  1.0000
  H   H2246     1.0  0.81285  0.13488  0.09889  1.0000
  H   H2247     1.0  0.84325  0.13564  0.08058  1.0000
  N   N125      1.0  0.76228  0.06439  0.02571  1.0000
  C   C1882     1.0  0.75033  0.06723  0.01309  1.0000
  C   C1883     1.0  0.76670  0.04484  0.03294  1.0000
  C   C1884     1.0  0.75219  0.07359  0.04051  1.0000
  C   C1885     1.0  0.77884  0.07135  0.01732  1.0000
  C   C1886     1.0  0.79302  0.06721  0.02660  1.0000
  C   C1887     1.0  0.57159  0.13043  0.09879  1.0000
  H   H2248     1.0  0.52649  0.13158  0.02586  1.0000
  H   H2249     1.0  0.66601  0.31088  0.17062  1.0000
  H   H2250     1.0  0.69838  0.15991  0.01867  1.0000
  H   H2251     1.0  0.74497  0.08164  0.00845  1.0000
  H   H2252     1.0  0.75749  0.06126  0.00124  1.0000
  H   H2253     1.0  0.73834  0.06122  0.01938  1.0000
  H   H2254     1.0  0.57334  0.27879  0.18132  1.0000
  H   H2255     1.0  0.75454  0.03892  0.03774  1.0000
  C   C1888     1.0  0.95383  0.99955  0.98479  1.0000
  H   H2256     1.0  0.74904  0.08836  0.03560  1.0000
  H   H2257     1.0  0.73925  0.06931  0.04689  1.0000
  H   H2258     1.0  0.75990  0.07098  0.05115  1.0000
  C   C1889     1.0  0.54235  0.31449  0.05596  1.0000
  H   H2259     1.0  0.65859  0.11282  0.00304  1.0000
  H   H2260     1.0  0.72551  0.23866  0.18714  1.0000
  C   C1890     1.0  0.69223  0.22956  0.20113  1.0000
  H   H2261     1.0  0.65546  0.99820  0.97956  1.0000
  C   C1891     1.0  0.51181  0.16612  0.11368  1.0000
  H   H2262     1.0  0.51849  0.28982  0.04438  1.0000
  C   C1892     1.0  0.78118  0.08286  0.00018  1.0000
  H   H2263     1.0  0.52172  0.10585  0.01797  1.0000
  H   H2264     1.0  0.64000  0.14239  0.99443  1.0000
  H   H2265     1.0  0.65244  0.03782  0.00827  1.0000
  H   H2266     1.0  0.76303  0.08492  0.21048  1.0000
  H   H2267     1.0  0.90868  0.03275  0.12748  1.0000
  N   N126      1.0  0.92817  0.16606  0.19121  1.0000
  C   C1893     1.0  0.94432  0.17330  0.18142  1.0000
  C   C1894     1.0  0.91380  0.18083  0.19727  1.0000
  C   C1895     1.0  0.93271  0.15305  0.20743  1.0000
  C   C1896     1.0  0.92223  0.15816  0.17927  1.0000
  C   C1897     1.0  0.92221  0.13963  0.18247  1.0000
  C   C1898     1.0  0.91622  0.16914  0.16381  1.0000
  C   C1899     1.0  0.91619  0.13275  0.17106  1.0000
  C   C1900     1.0  0.90998  0.16213  0.15266  1.0000
  C   C1901     1.0  0.90989  0.14399  0.15633  1.0000
  H   H2268     1.0  0.94166  0.18417  0.16975  1.0000
  H   H2269     1.0  0.86458  0.05824  0.11805  1.0000
  H   H2270     1.0  0.95533  0.16266  0.17637  1.0000
  H   H2271     1.0  0.53906  0.28953  0.11883  1.0000
  H   H2272     1.0  0.79216  0.05888  0.03981  1.0000
  H   H2273     1.0  0.90103  0.17617  0.20354  1.0000
  C   C1902     1.0  0.62758  0.29121  0.07482  1.0000
  H   H2274     1.0  0.87257  0.99644  0.20026  1.0000
  H   H2275     1.0  0.94412  0.14199  0.20405  1.0000
  H   H2276     1.0  0.92618  0.13019  0.19401  1.0000
  H   H2277     1.0  0.91601  0.18330  0.16039  1.0000
  H   H2278     1.0  0.91566  0.11871  0.17409  1.0000
  H   H2279     1.0  0.90483  0.17082  0.14128  1.0000
  H   H2280     1.0  0.90445  0.13869  0.14803  1.0000
  N   N127      1.0  0.54225  0.10247  0.08002  1.0000
  C   C1903     1.0  0.54560  0.10717  0.06026  1.0000
  C   C1904     1.0  0.54699  0.08269  0.08538  1.0000
  C   C1905     1.0  0.55261  0.11177  0.08642  1.0000
  S   S522      1.0  0.53216  0.30175  0.98464  1.0000
  C   C1906     1.0  0.54875  0.13071  0.08345  1.0000
  H   H2281     1.0  0.54859  0.27638  0.13714  1.0000
  H   H2282     1.0  0.90183  0.00910  0.06434  1.0000
  C   C1907     1.0  0.90213  0.01257  0.10620  1.0000
  H   H2283     1.0  0.56010  0.10357  0.05440  1.0000
  C   C1908     1.0  0.65513  0.11484  0.01698  1.0000
  C   C1909     1.0  0.50322  0.13324  0.04715  1.0000
  H   H2284     1.0  0.56120  0.07733  0.07954  1.0000
  H   H2285     1.0  0.51606  0.14151  0.10493  1.0000
  C   C1910     1.0  0.67242  0.03925  0.98309  1.0000
  H   H2286     1.0  0.78631  0.11903  0.17666  1.0000
  H   H2287     1.0  0.51357  0.02722  0.06604  1.0000
  C   C1911     1.0  0.64862  0.23639  0.06804  1.0000
  C   C1912     1.0  0.65295  0.01743  0.99535  1.0000
  N   N128      1.0  0.77995  0.09279  0.18503  1.0000
  C   C1913     1.0  0.77628  0.07999  0.20224  1.0000
  C   C1914     1.0  0.76536  0.09608  0.17529  1.0000
  C   C1915     1.0  0.51204  0.11095  0.02882  1.0000
  C   C1916     1.0  0.75538  0.11347  0.16951  1.0000
  C   C1917     1.0  0.70678  0.20523  0.18567  1.0000
  C   C1918     1.0  0.74171  0.11603  0.16033  1.0000
  C   C1919     1.0  0.73774  0.10153  0.15640  1.0000
  H   H2288     1.0  0.88178  0.15434  0.21556  1.0000
  H   H2289     1.0  0.53855  0.10001  0.05479  1.0000
  H   H2290     1.0  0.52589  0.16640  0.11070  1.0000
  H   H2291     1.0  0.50420  0.06830  0.01679  1.0000
  H   H2292     1.0  0.72763  0.10366  0.14864  1.0000
  C   C1920     1.0  0.63674  0.14385  0.00856  1.0000
  H   H2293     1.0  0.64059  0.14894  0.03908  1.0000
  H   H2294     1.0  0.90543  0.03329  0.16791  1.0000
  H   H2295     1.0  0.51126  0.29764  0.14264  1.0000
  N   N129      1.0  0.70647  0.22393  0.18613  1.0000
  C   C1921     1.0  0.69962  0.15428  0.99328  1.0000
  S   S523      1.0  0.90903  0.99564  0.17999  1.0000
  C   C1922     1.0  0.49697  0.10321  0.03816  1.0000
  C   C1923     1.0  0.55609  0.28996  0.16239  1.0000
  C   C1924     1.0  0.49110  0.07323  0.04962  1.0000
  C   C1925     1.0  0.62125  0.31257  0.11144  1.0000
  N   N130      1.0  0.49309  0.08780  0.03356  1.0000
  H   H2296     1.0  0.77632  0.06656  0.20035  1.0000
  C   C1926     1.0  0.60492  0.28752  0.06161  1.0000
  H   H2297     1.0  0.67234  0.05233  0.01250  1.0000
  H   H2298     1.0  0.66648  0.10704  0.02338  1.0000
  C   C1927     1.0  0.88077  0.14401  0.20948  1.0000
  H   H2299     1.0  0.60505  0.23466  0.08619  1.0000
  H   H2300     1.0  0.62089  0.23994  0.10814  1.0000
  H   H2301     1.0  0.55101  0.30583  0.02365  1.0000
  H   H2302     1.0  0.54881  0.28767  0.07256  1.0000
  H   H2303     1.0  0.77322  0.04145  0.04456  1.0000
  H   H2304     1.0  0.79331  0.10624  0.19659  1.0000
  C   C1928     1.0  0.67596  0.14096  0.99162  1.0000
  C   C1929     1.0  0.81085  0.08437  0.00192  1.0000
  H   H2305     1.0  0.50872  0.08994  0.00660  1.0000
  C   C1930     1.0  0.61343  0.29863  0.06601  1.0000
  H   H2306     1.0  0.49836  0.20661  0.06962  1.0000
  C   C1931     1.0  0.62458  0.26089  0.07549  1.0000
  C   C1932     1.0  0.61026  0.26893  0.06631  1.0000
  C   C1933     1.0  0.70280  0.23564  0.16899  1.0000
  C   C1934     1.0  0.66035  0.23529  0.21553  1.0000
  H   H2307     1.0  0.87983  0.06844  0.22326  1.0000
  C   C1935     1.0  0.69167  0.14735  0.98356  1.0000
  H   H2308     1.0  0.67037  0.22535  0.19158  1.0000
  C   C1936     1.0  0.55061  0.30130  0.06902  1.0000
  H   H2309     1.0  0.60282  0.26119  0.06275  1.0000
  C   C1937     1.0  0.50625  0.15205  0.11038  1.0000
  H   H2310     1.0  0.79868  0.09742  0.97932  1.0000
  H   H2311     1.0  0.92100  0.14719  0.21549  1.0000
  H   H2312     1.0  0.50320  0.06919  0.05560  1.0000
  N   N131      1.0  0.63685  0.16309  0.10948  1.0000
  C   C1938     1.0  0.65413  0.16523  0.09705  1.0000
  C   C1939     1.0  0.64000  0.14663  0.12336  1.0000
  C   C1940     1.0  0.62492  0.16047  0.09905  1.0000
  C   C1941     1.0  0.62945  0.17863  0.11822  1.0000
  C   C1942     1.0  0.61191  0.18914  0.11790  1.0000
  C   C1943     1.0  0.63964  0.18318  0.12813  1.0000
  C   C1944     1.0  0.60500  0.20301  0.12727  1.0000
  C   C1945     1.0  0.63259  0.19708  0.13744  1.0000
  C   C1946     1.0  0.61523  0.20686  0.13715  1.0000
  H   H2313     1.0  0.66470  0.16496  0.10405  1.0000
  H   H2314     1.0  0.65958  0.15424  0.08953  1.0000
  H   H2315     1.0  0.65270  0.17807  0.08712  1.0000
  H   H2316     1.0  0.64485  0.13445  0.11751  1.0000
  H   H2317     1.0  0.62747  0.14495  0.13344  1.0000
  H   H2318     1.0  0.65032  0.14668  0.13055  1.0000
  H   H2319     1.0  0.62211  0.17230  0.08820  1.0000
  H   H2320     1.0  0.63104  0.14880  0.09248  1.0000
  H   H2321     1.0  0.61195  0.15773  0.10766  1.0000
  H   H2322     1.0  0.60309  0.18673  0.11077  1.0000
  H   H2323     1.0  0.65307  0.17580  0.12903  1.0000
  H   H2324     1.0  0.59146  0.21061  0.12715  1.0000
  H   H2325     1.0  0.64057  0.20016  0.14510  1.0000
  S   S524      1.0  0.50985  0.02974  0.02992  1.0000
  C   C1947     1.0  0.80396  0.03526  0.98938  1.0000
  C   C1948     1.0  0.80885  0.07345  0.01888  1.0000
  H   H2326     1.0  0.55371  0.27691  0.16317  1.0000
  N   N132      1.0  0.53703  0.30394  0.13936  1.0000
  H   H2327     1.0  0.67519  0.27080  0.18044  1.0000
  H   H2328     1.0  0.73504  0.22045  0.17590  1.0000
  H   H2329     1.0  0.53862  0.13868  0.07611  1.0000
  C   C1949     1.0  0.88676  0.02633  0.10924  1.0000
  H   H2330     1.0  0.70879  0.19607  0.19858  1.0000
  H   H2331     1.0  0.91735  0.18621  0.20730  1.0000
  N   N133      1.0  0.63109  0.24127  0.07998  1.0000
  C   C1950     1.0  0.87722  0.03374  0.09517  1.0000
  H   H2332     1.0  0.61766  0.23298  0.06388  1.0000
  C   C1951     1.0  0.64471  0.13489  0.03722  1.0000
  C   C1952     1.0  0.67545  0.27633  0.19141  1.0000
  H   H2333     1.0  0.52875  0.31164  0.01950  1.0000
  H   H2334     1.0  0.86038  0.04970  0.14137  1.0000
  H   H2335     1.0  0.67532  0.07404  0.00034  1.0000
  H   H2336     1.0  0.64346  0.10855  0.02396  1.0000
  H   H2337     1.0  0.65506  0.30859  0.14623  1.0000
  H   H2338     1.0  0.70367  0.06079  0.98523  1.0000
  C   C1953     1.0  0.56687  0.10257  0.09539  1.0000
  H   H2339     1.0  0.51293  0.30872  0.15917  1.0000
  C   C1954     1.0  0.93034  0.02588  0.98169  1.0000
  C   C1955     1.0  0.51496  0.12582  0.03324  1.0000
  C   C1956     1.0  0.51069  0.28097  0.00911  1.0000
  H   H2340     1.0  0.79747  0.02503  0.99862  1.0000
  C   C1957     1.0  0.54655  0.29005  0.12873  1.0000
  H   H2341     1.0  0.72856  0.21585  0.19972  1.0000
  H   H2342     1.0  0.87524  0.03344  0.06863  1.0000
  C   C1958     1.0  0.79710  0.08504  0.17415  1.0000
  H   H2343     1.0  0.86572  0.04465  0.09595  1.0000
  N   N134      1.0  0.88165  0.03282  0.12616  1.0000
  H   H2344     1.0  0.49965  0.29049  0.00413  1.0000
  C   C1959     1.0  0.88740  0.12609  0.21649  1.0000
  H   H2345     1.0  0.91033  0.00671  0.11609  1.0000
  Fe  Fe263     1.0  0.88456  0.05141  0.98980  1.0000
  H   H2346     1.0  0.74458  0.07321  0.15807  1.0000
  H   H2347     1.0  0.70426  0.27188  0.18612  1.0000
  H   H2348     1.0  0.87232  0.00864  0.14007  1.0000
  H   H2349     1.0  0.74945  0.12642  0.99184  1.0000
  H   H2350     1.0  0.59407  0.29334  0.05451  1.0000
  H   H2351     1.0  0.58714  0.10463  0.10803  1.0000
  C   C1960     1.0  0.78238  0.10920  0.18911  1.0000
  H   H2352     1.0  0.65419  0.22172  0.07093  1.0000
  H   H2353     1.0  0.75822  0.12540  0.17138  1.0000
  H   H2354     1.0  0.92406  0.02237  0.99606  1.0000
  C   C1961     1.0  0.55787  0.13980  0.08987  1.0000
  S   S525      1.0  0.73973  0.31099  0.22513  1.0000
  C   C1962     1.0  0.52035  0.29874  0.15076  1.0000
  C   C1963     1.0  0.88262  0.02744  0.07926  1.0000
  S   S526      1.0  0.63863  0.28144  0.19901  1.0000
  H   H2355     1.0  0.71326  0.23185  0.15737  1.0000
  H   H2356     1.0  0.89166  0.04832  0.13867  1.0000
  C   C1964     1.0  0.90742  0.00638  0.09023  1.0000
  H   H2357     1.0  0.54193  0.04260  0.01225  1.0000
  H   H2358     1.0  0.89757  0.05286  0.11481  1.0000
  H   H2359     1.0  0.87391  0.02200  0.15440  1.0000
  C   C1965     1.0  0.89071  0.01321  0.18382  1.0000
  C   C1966     1.0  0.65942  0.28262  0.20252  1.0000
  H   H2360     1.0  0.57029  0.06280  0.98734  1.0000
  H   H2361     1.0  0.64653  0.23573  0.21549  1.0000
  H   H2362     1.0  0.52139  0.28863  0.06632  1.0000
  H   H2363     1.0  0.69411  0.20378  0.18306  1.0000
  C   C1967     1.0  0.89551  0.04201  0.12684  1.0000
  H   H2364     1.0  0.60917  0.31305  0.06250  1.0000
  C   C1968     1.0  0.53750  0.31436  0.02703  1.0000
  H   H2365     1.0  0.51465  0.10064  0.08350  1.0000
  C   C1969     1.0  0.52462  0.03243  0.05676  1.0000
  H   H2366     1.0  0.54469  0.07818  0.10015  1.0000
  H   H2367     1.0  0.85316  0.03975  0.12727  1.0000
  C   C1970     1.0  0.52280  0.10812  0.08720  1.0000
  H   H2368     1.0  0.65537  0.06710  0.00092  1.0000
  C   C1971     1.0  0.65884  0.03216  0.99662  1.0000
  H   H2369     1.0  0.51749  0.12248  0.08215  1.0000
  C   C1972     1.0  0.69183  0.15496  0.01105  1.0000
  C   C1973     1.0  0.86414  0.04562  0.12821  1.0000
  H   H2370     1.0  0.64426  0.24065  0.10106  1.0000
  H   H2371     1.0  0.53893  0.07603  0.08050  1.0000
  H   H2372     1.0  0.71760  0.20034  0.17481  1.0000
  H   H2373     1.0  0.57999  0.30779  0.18074  1.0000
  H   H2374     1.0  0.49044  0.21618  0.04311  1.0000
  C   C1974     1.0  0.63348  0.23547  0.09874  1.0000
  H   H2375     1.0  0.64755  0.29484  0.22536  1.0000
  H   H2376     1.0  0.50549  0.14477  0.05054  1.0000
  H   H2377     1.0  0.79691  0.07218  0.17110  1.0000
  N   N135      1.0  0.53018  0.31084  0.04655  1.0000
  H   H2378     1.0  0.55459  0.15428  0.08754  1.0000
  H   H2379     1.0  0.94939  0.17901  0.19017  1.0000
  C   C1975     1.0  0.61872  0.23093  0.07802  1.0000
  C   C1976     1.0  0.74739  0.08436  0.16168  1.0000
  C   C1977     1.0  0.66771  0.14129  0.00976  1.0000
  S   S527      1.0  0.71353  0.28291  0.21330  1.0000
  C   C1978     1.0  0.72466  0.22476  0.18735  1.0000
  H   H2380     1.0  0.77117  0.08695  0.99207  1.0000
  H   H2381     1.0  0.93684  0.15945  0.21627  1.0000
  H   H2382     1.0  0.62338  0.21628  0.08248  1.0000
  C   C1979     1.0  0.76097  0.08161  0.17102  1.0000
  C   C1980     1.0  0.69246  0.28366  0.20919  1.0000
  H   H2383     1.0  0.68992  0.23486  0.16638  1.0000
  S   S528      1.0  0.50591  0.19752  0.12508  1.0000
  H   H2384     1.0  0.80840  0.08225  0.18110  1.0000
  C   C1981     1.0  0.56169  0.30541  0.07792  1.0000
  H   H2385     1.0  0.70147  0.03803  0.99450  1.0000
  H   H2386     1.0  0.89099  0.09890  0.21387  1.0000
  C   C1982     1.0  0.49922  0.17948  0.12138  1.0000
  H   H2387     1.0  0.49382  0.26436  0.02817  1.0000
  H   H2388     1.0  0.63431  0.29991  0.07809  1.0000
  C   C1983     1.0  0.65993  0.28990  0.21674  1.0000
  H   H2389     1.0  0.64454  0.26777  0.08583  1.0000
  C   C1984     1.0  0.73045  0.11316  0.98818  1.0000
  H   H2390     1.0  0.54040  0.28238  0.04895  1.0000
  C   C1985     1.0  0.67410  0.22953  0.20183  1.0000
  H   H2391     1.0  0.60775  0.04090  0.98952  1.0000
  H   H2392     1.0  0.52311  0.28556  0.15997  1.0000
  C   C1986     1.0  0.82959  0.04923  0.97824  1.0000
  C   C1987     1.0  0.69842  0.04970  0.98360  1.0000
  H   H2393     1.0  0.84296  0.04981  0.97863  1.0000
  H   H2394     1.0  0.56804  0.29507  0.08762  1.0000
  H   H2395     1.0  0.96292  0.00787  0.98538  1.0000
  C   C1988     1.0  0.89688  0.04236  0.22448  1.0000
  H   H2396     1.0  0.70896  0.23630  0.21574  1.0000
  C   C1989     1.0  0.79699  0.08918  0.99267  1.0000
  H   H2397     1.0  0.82327  0.08890  0.99579  1.0000
  C   C1990     1.0  0.66036  0.00934  0.98070  1.0000
  H   H2398     1.0  0.55998  0.29254  0.12129  1.0000
  H   H2399     1.0  0.96212  0.98792  0.97898  1.0000
  H   H2400     1.0  0.89142  0.03894  0.21486  1.0000
  H   H2401     1.0  0.93936  0.03494  0.98064  1.0000
  C   C1991     1.0  0.50728  0.08018  0.01953  1.0000
  H   H2402     1.0  0.67062  0.13527  0.98363  1.0000
  H   H2403     1.0  0.68974  0.31543  0.18207  1.0000
  C   C1992     1.0  0.91007  0.07300  0.26785  1.0000
  H   H2404     1.0  0.80523  0.21768  0.35207  1.0000
  C   C1993     1.0  0.83920  0.29145  0.40779  1.0000
  C   C1994     1.0  0.96003  0.16136  0.26256  1.0000
  Fe  Fe264     1.0  0.98447  0.01356  0.31354  1.0000
  C   C1995     1.0  0.92790  0.25247  0.37530  1.0000
  C   C1996     1.0  0.95354  0.98928  0.25932  1.0000
  Fe  Fe265     1.0  0.84869  0.27380  0.34803  1.0000
  S   S529      1.0  0.83240  0.30171  0.34398  1.0000
  S   S530      1.0  0.85522  0.25677  0.37387  1.0000
  Fe  Fe266     1.0  0.85823  0.27299  0.30845  1.0000
  S   S531      1.0  0.84312  0.30113  0.30094  1.0000
  S   S532      1.0  0.87444  0.25847  0.28657  1.0000
  H   H2405     1.0  0.75880  0.30089  0.31582  1.0000
  Fe  Fe267     1.0  0.82190  0.29297  0.32451  1.0000
  C   C1997     1.0  0.74686  0.29974  0.36061  1.0000
  S   S533      1.0  0.87210  0.27979  0.32632  1.0000
  S   S534      1.0  0.83613  0.26434  0.33074  1.0000
  Fe  Fe268     1.0  0.96259  0.98433  0.32653  1.0000
  S   S535      1.0  0.72373  0.28233  0.26022  1.0000
  Fe  Fe269     1.0  0.96422  0.00643  0.28882  1.0000
  Fe  Fe270     1.0  0.81886  0.31401  0.44476  1.0000
  Fe  Fe271     1.0  0.71671  0.29677  0.23364  1.0000
  S   S536      1.0  0.89467  0.16947  0.24436  1.0000
  S   S537      1.0  0.96288  0.00665  0.26073  1.0000
  C   C1998     1.0  0.79736  0.28722  0.39419  1.0000
  H   H2406     1.0  0.82076  0.22116  0.25700  1.0000
  C   C1999     1.0  0.97657  0.13875  0.32871  1.0000
  C   C2000     1.0  0.95861  0.11652  0.33587  1.0000
  H   H2407     1.0  0.54010  0.03078  0.45985  1.0000
  C   C2001     1.0  0.98563  0.25042  0.32287  1.0000
  H   H2408     1.0  0.90430  0.03975  0.28510  1.0000
  H   H2409     1.0  0.95137  0.15244  0.26381  1.0000
  C   C2002     1.0  0.69142  0.31442  0.31201  1.0000
  S   S538      1.0  0.96317  0.00741  0.33789  1.0000
  S   S539      1.0  0.91829  0.04196  0.32791  1.0000
  S   S540      1.0  0.86114  0.18257  0.28878  1.0000
  S   S541      1.0  0.88951  0.13587  0.27923  1.0000
  S   S542      1.0  0.91156  0.16560  0.27959  1.0000
  C   C2003     1.0  0.92999  0.27918  0.30880  1.0000
  C   C2004     1.0  0.93646  0.26138  0.33714  1.0000
  H   H2410     1.0  0.87855  0.23449  0.34613  1.0000
  Fe  Fe272     1.0  0.91701  0.13611  0.28193  1.0000
  H   H2411     1.0  0.82778  0.24869  0.25757  1.0000
  Fe  Fe273     1.0  0.88516  0.16579  0.27417  1.0000
  H   H2412     1.0  0.64389  0.31573  0.25251  1.0000
  S   S543      1.0  0.97180  0.27021  0.37504  1.0000
  H   H2413     1.0  0.77905  0.28235  0.36220  1.0000
  H   H2414     1.0  0.97478  0.10661  0.30054  1.0000
  H   H2415     1.0  0.81886  0.19919  0.30341  1.0000
  H   H2416     1.0  0.97101  0.08772  0.38422  1.0000
  C   C2005     1.0  0.98110  0.26885  0.32243  1.0000
  S   S544      1.0  0.77381  0.28824  0.25560  1.0000
  C   C2006     1.0  0.97648  0.27519  0.33840  1.0000
  C   C2007     1.0  0.96964  0.18935  0.24940  1.0000
  H   H2417     1.0  0.92385  0.25035  0.39012  1.0000
  C   C2008     1.0  0.92214  0.06361  0.32162  1.0000
  C   C2009     1.0  0.93846  0.06673  0.32251  1.0000
  C   C2010     1.0  0.94173  0.08406  0.31688  1.0000
  C   C2011     1.0  0.92911  0.09806  0.30957  1.0000
  C   C2012     1.0  0.91277  0.09493  0.30876  1.0000
  C   C2013     1.0  0.90916  0.07773  0.31507  1.0000
  H   H2418     1.0  0.90280  0.10575  0.30356  1.0000
  H   H2419     1.0  0.89648  0.07531  0.31452  1.0000
  S   S545      1.0  0.98544  0.98916  0.30344  1.0000
  H   H2420     1.0  0.86732  0.31353  0.43995  1.0000
  S   S546      1.0  0.96517  0.03138  0.29668  1.0000
  H   H2421     1.0  0.79004  0.25520  0.28062  1.0000
  C   C2014     1.0  0.91829  0.04155  0.27924  1.0000
  C   C2015     1.0  0.79486  0.28037  0.38071  1.0000
  H   H2422     1.0  0.80861  0.28088  0.40061  1.0000
  H   H2423     1.0  0.82202  0.25737  0.27739  1.0000
  C   C2016     1.0  0.80309  0.23831  0.32851  1.0000
  H   H2424     1.0  0.65343  0.24615  0.23920  1.0000
  H   H2425     1.0  0.94468  0.05956  0.26406  1.0000
  C   C2017     1.0  0.81410  0.21056  0.30978  1.0000
  H   H2426     1.0  0.62006  0.30024  0.45083  1.0000
  C   C2018     1.0  0.89816  0.26889  0.37323  1.0000
  C   C2019     1.0  0.77066  0.31017  0.39134  1.0000
  H   H2427     1.0  0.61413  0.00304  0.47445  1.0000
  H   H2428     1.0  0.93561  0.28522  0.36695  1.0000
  H   H2429     1.0  0.91318  0.29742  0.36671  1.0000
  H   H2430     1.0  0.98007  0.15115  0.32058  1.0000
  H   H2431     1.0  0.92836  0.02475  0.24957  1.0000
  C   C2020     1.0  0.78728  0.29646  0.30525  1.0000
  C   C2021     1.0  0.80084  0.29271  0.29057  1.0000
  C   C2022     1.0  0.98258  0.10088  0.28872  1.0000
  C   C2023     1.0  0.77865  0.29210  0.27455  1.0000
  C   C2024     1.0  0.76508  0.29577  0.28924  1.0000
  H   H2432     1.0  0.74521  0.28661  0.36950  1.0000
  H   H2433     1.0  0.97973  0.06793  0.30124  1.0000
  H   H2434     1.0  0.96839  0.20215  0.24021  1.0000
  S   S547      1.0  0.94183  0.18405  0.23758  1.0000
  H   H2435     1.0  0.80453  0.26900  0.37639  1.0000
  C   C2025     1.0  0.87095  0.23718  0.28768  1.0000
  C   C2026     1.0  0.86001  0.22865  0.30254  1.0000
  C   C2027     1.0  0.85738  0.21167  0.30300  1.0000
  C   C2028     1.0  0.86552  0.20324  0.28856  1.0000
  C   C2029     1.0  0.87661  0.21167  0.27377  1.0000
  C   C2030     1.0  0.87923  0.22866  0.27330  1.0000
  H   H2436     1.0  0.85374  0.23499  0.31376  1.0000
  H   H2437     1.0  0.88293  0.20523  0.26256  1.0000
  H   H2438     1.0  0.88759  0.23527  0.26171  1.0000
  C   C2031     1.0  0.85120  0.26652  0.39250  1.0000
  C   C2032     1.0  0.85584  0.25560  0.40825  1.0000
  C   C2033     1.0  0.85218  0.26248  0.42369  1.0000
  H   H2439     1.0  0.75723  0.29746  0.34845  1.0000
  H   H2440     1.0  0.80703  0.28794  0.26383  1.0000
  C   C2034     1.0  0.84325  0.28460  0.39213  1.0000
  H   H2441     1.0  0.86206  0.24165  0.40860  1.0000
  H   H2442     1.0  0.85568  0.25382  0.43583  1.0000
  H   H2443     1.0  0.80458  0.26926  0.46976  1.0000
  H   H2444     1.0  0.83979  0.29314  0.37997  1.0000
  C   C2035     1.0  0.94037  0.26484  0.31845  1.0000
  H   H2445     1.0  0.98709  0.11185  0.27784  1.0000
  H   H2446     1.0  0.89462  0.26547  0.38809  1.0000
  H   H2447     1.0  0.78765  0.30787  0.40948  1.0000
  H   H2448     1.0  0.90098  0.29621  0.34272  1.0000
  C   C2036     1.0  0.62215  0.30591  0.47534  1.0000
  S   S548      1.0  0.93427  0.11921  0.30110  1.0000
  H   H2449     1.0  0.98118  0.27821  0.30978  1.0000
  H   H2450     1.0  0.92325  0.04490  0.28964  1.0000
  C   C2037     1.0  0.84358  0.28030  0.42363  1.0000
  H   H2451     1.0  0.81466  0.29150  0.29094  1.0000
  C   C2038     1.0  0.92189  0.27234  0.34672  1.0000
  S   S549      1.0  0.89864  0.11975  0.23445  1.0000
  C   C2039     1.0  0.78003  0.28813  0.37274  1.0000
  Fe  Fe274     1.0  0.90106  0.13931  0.24972  1.0000
  H   H2452     1.0  0.91836  0.28264  0.38676  1.0000
  C   C2040     1.0  0.78545  0.30226  0.39929  1.0000
  H   H2453     1.0  0.94787  0.11186  0.33344  1.0000
  H   H2454     1.0  0.92598  0.24070  0.37136  1.0000
  Fe  Fe275     1.0  0.70588  0.30645  0.27020  1.0000
  H   H2455     1.0  0.95287  0.21583  0.29943  1.0000
  H   H2456     1.0  0.73332  0.30467  0.39533  1.0000
  H   H2457     1.0  0.73417  0.30589  0.35570  1.0000
  C   C2041     1.0  0.89036  0.05896  0.22926  1.0000
  H   H2458     1.0  0.84923  0.20497  0.31466  1.0000
  H   H2459     1.0  0.94841  0.05581  0.32779  1.0000
  Fe  Fe276     1.0  0.94401  0.02320  0.32027  1.0000
  S   S550      1.0  0.83843  0.28793  0.44372  1.0000
  N   N136      1.0  0.91746  0.26940  0.36646  1.0000
  H   H2460     1.0  0.87620  0.20859  0.33555  1.0000
  H   H2461     1.0  0.89933  0.19690  0.31195  1.0000
  N   N137      1.0  0.91915  0.05560  0.26264  1.0000
  C   C2042     1.0  0.98120  0.11297  0.35345  1.0000
  C   C2043     1.0  0.98517  0.23842  0.33928  1.0000
  H   H2462     1.0  0.94215  0.23157  0.28226  1.0000
  C   C2044     1.0  0.91119  0.05128  0.24967  1.0000
  Fe  Fe277     1.0  0.92167  0.16668  0.25042  1.0000
  H   H2463     1.0  0.95405  0.08661  0.31804  1.0000
  H   H2464     1.0  0.90771  0.30157  0.31030  1.0000
  C   C2045     1.0  0.96751  0.10681  0.34961  1.0000
  H   H2465     1.0  0.95399  0.99830  0.23112  1.0000
  C   C2046     1.0  0.54527  0.01870  0.46876  1.0000
  C   C2047     1.0  0.96321  0.13235  0.32534  1.0000
  H   H2466     1.0  0.89440  0.25882  0.36814  1.0000
  C   C2048     1.0  0.80660  0.22065  0.33770  1.0000
  H   H2467     1.0  0.98794  0.03064  0.34540  1.0000
  C   C2049     1.0  0.82600  0.24478  0.27236  1.0000
  H   H2468     1.0  0.90472  0.24862  0.33292  1.0000
  C   C2050     1.0  0.88789  0.21451  0.33001  1.0000
  C   C2051     1.0  0.76939  0.29799  0.30455  1.0000
  C   C2052     1.0  0.91754  0.23040  0.31512  1.0000
  C   C2053     1.0  0.68185  0.24109  0.22885  1.0000
  C   C2054     1.0  0.95834  0.17785  0.25060  1.0000
  H   H2469     1.0  0.81494  0.19308  0.33552  1.0000
  H   H2470     1.0  0.91673  0.22495  0.27395  1.0000
  H   H2471     1.0  0.98797  0.22422  0.33985  1.0000
  H   H2472     1.0  0.95627  0.13972  0.31465  1.0000
  N   N138      1.0  0.81284  0.23303  0.28029  1.0000
  H   H2473     1.0  0.91613  0.07565  0.27788  1.0000
  C   C2055     1.0  0.81924  0.21723  0.27177  1.0000
  C   C2056     1.0  0.79535  0.24261  0.27559  1.0000
  C   C2057     1.0  0.81075  0.22845  0.29997  1.0000
  H   H2474     1.0  0.97459  0.14315  0.28166  1.0000
  C   C2058     1.0  0.91186  0.28701  0.33642  1.0000
  H   H2475     1.0  0.94246  0.25255  0.37214  1.0000
  C   C2059     1.0  0.62541  0.30811  0.45667  1.0000
  H   H2476     1.0  0.94286  0.18656  0.31295  1.0000
  C   C2060     1.0  0.81199  0.20682  0.32838  1.0000
  H   H2477     1.0  0.94618  0.04342  0.25139  1.0000
  C   C2061     1.0  0.91763  0.03456  0.24433  1.0000
  H   H2478     1.0  0.83263  0.20965  0.27437  1.0000
  C   C2062     1.0  0.56317  0.01474  0.47035  1.0000
  H   H2479     1.0  0.80972  0.20800  0.27661  1.0000
  C   C2063     1.0  0.80503  0.24218  0.30997  1.0000
  H   H2480     1.0  0.79629  0.24649  0.26087  1.0000
  H   H2481     1.0  0.78506  0.23426  0.28136  1.0000
  H   H2482     1.0  0.93940  0.06669  0.24214  1.0000
  C   C2064     1.0  0.97324  0.15608  0.27276  1.0000
  H   H2483     1.0  0.89565  0.07334  0.27399  1.0000
  H   H2484     1.0  0.97318  0.28939  0.33798  1.0000
  H   H2485     1.0  0.68474  0.24616  0.23904  1.0000
  N   N139      1.0  0.75124  0.31144  0.37013  1.0000
  H   H2486     1.0  0.83934  0.23795  0.27549  1.0000
  C   C2065     1.0  0.92127  0.28430  0.37198  1.0000
  C   C2066     1.0  0.93751  0.18894  0.30067  1.0000
  C   C2067     1.0  0.91576  0.29028  0.31778  1.0000
  H   H2487     1.0  0.92668  0.02835  0.27703  1.0000
  C   C2068     1.0  0.97657  0.26308  0.35477  1.0000
  C   C2069     1.0  0.93817  0.05637  0.25471  1.0000
  H   H2488     1.0  0.93309  0.28184  0.29433  1.0000
  C   C2070     1.0  0.76713  0.30299  0.37823  1.0000
  C   C2071     1.0  0.92265  0.21062  0.27868  1.0000
  C   C2072     1.0  0.70910  0.31556  0.31060  1.0000
  Fe  Fe278     1.0  0.74510  0.29847  0.25255  1.0000
  C   C2073     1.0  0.91051  0.03019  0.23199  1.0000
  H   H2489     1.0  0.93274  0.20582  0.26730  1.0000
  C   C2074     1.0  0.98533  0.12935  0.34265  1.0000
  H   H2490     1.0  0.95173  0.25649  0.31141  1.0000
  C   C2075     1.0  0.91663  0.21551  0.30873  1.0000
  N   N140      1.0  0.93057  0.20828  0.29437  1.0000
  C   C2076     1.0  0.88917  0.22912  0.33594  1.0000
  H   H2491     1.0  0.91182  0.20308  0.28172  1.0000
  H   H2492     1.0  0.79893  0.24912  0.33573  1.0000
  H   H2493     1.0  0.80206  0.25608  0.30350  1.0000
  H   H2494     1.0  0.95652  0.21113  0.27776  1.0000
  H   H2495     1.0  0.59527  0.02111  0.47392  1.0000
  H   H2496     1.0  0.92710  0.18087  0.30367  1.0000
  H   H2497     1.0  0.98452  0.07451  0.31940  1.0000
  C   C2077     1.0  0.94616  0.21715  0.28828  1.0000
  S   S551      1.0  0.92898  0.13702  0.25302  1.0000
  H   H2498     1.0  0.67674  0.29568  0.23129  1.0000
  H   H2499     1.0  0.92844  0.23733  0.30982  1.0000
  H   H2500     1.0  0.83268  0.30527  0.40760  1.0000
  S   S552      1.0  0.79240  0.29986  0.32430  1.0000
  H   H2501     1.0  0.94525  0.25023  0.34372  1.0000
  C   C2078     1.0  0.90129  0.20786  0.31651  1.0000
  H   H2502     1.0  0.88917  0.28195  0.36935  1.0000
  H   H2503     1.0  0.94849  0.18327  0.29038  1.0000
  C   C2079     1.0  0.98613  0.11475  0.38175  1.0000
  C   C2080     1.0  0.90396  0.23704  0.32851  1.0000
  C   C2081     1.0  0.60011  0.00698  0.47234  1.0000
  Fe  Fe279     1.0  0.96300  0.29956  0.37520  1.0000
  H   H2504     1.0  0.97292  0.09617  0.28388  1.0000
  S   S553      1.0  0.93971  0.30721  0.39668  1.0000
  H   H2505     1.0  0.90096  0.30528  0.43979  1.0000
  C   C2082     1.0  0.79651  0.29066  0.27522  1.0000
  Fe  Fe280     1.0  0.85510  0.30709  0.32091  1.0000
  H   H2506     1.0  0.89179  0.07665  0.24455  1.0000
  H   H2507     1.0  0.75131  0.29656  0.28896  1.0000
  C   C2083     1.0  0.89737  0.06348  0.24162  1.0000
  S   S554      1.0  0.94148  0.99985  0.31108  1.0000
  H   H2508     1.0  0.96320  0.09467  0.35718  1.0000
  C   C2084     1.0  0.98082  0.24472  0.35515  1.0000
  H   H2509     1.0  0.71960  0.30999  0.30063  1.0000
  H   H2510     1.0  0.98851  0.07679  0.36825  1.0000
  H   H2511     1.0  0.91118  0.08443  0.25624  1.0000
  H   H2512     1.0  0.60074  0.00632  0.45832  1.0000
  H   H2513     1.0  0.97940  0.99345  0.36970  1.0000
  S   S555      1.0  0.98720  0.19226  0.31644  1.0000
  H   H2514     1.0  0.98081  0.23529  0.36778  1.0000
  S   S556      1.0  0.68565  0.30606  0.29622  1.0000
  C   C2085     1.0  0.66420  0.24113  0.22896  1.0000
  C   C2086     1.0  0.98459  0.16743  0.27154  1.0000
  S   S557      1.0  0.97963  0.31536  0.38126  1.0000
  C   C2087     1.0  0.95051  0.98834  0.24293  1.0000
  C   C2088     1.0  0.98543  0.08603  0.37762  1.0000
  C   C2089     1.0  0.98263  0.18424  0.26005  1.0000
  H   H2515     1.0  0.91567  0.01730  0.22817  1.0000
  H   H2516     1.0  0.57121  0.02416  0.46217  1.0000
  H   H2517     1.0  0.97150  0.11756  0.38748  1.0000
  H   H2518     1.0  0.81412  0.29150  0.47672  1.0000
  H   H2519     1.0  0.65069  0.31550  0.28137  1.0000
  H   H2520     1.0  0.83367  0.26050  0.47720  1.0000
  Fe  Fe281     1.0  0.59930  0.99776  0.59092  1.0000
  S   S558      1.0  0.62220  0.00706  0.57027  1.0000
  C   C2090     1.0  0.78666  0.25394  0.52179  1.0000
  Fe  Fe282     1.0  0.57240  0.01613  0.56678  1.0000
  Fe  Fe283     1.0  0.61037  0.99915  0.55132  1.0000
  Fe  Fe284     1.0  0.60303  0.03339  0.56550  1.0000
  S   S559      1.0  0.60651  0.06138  0.56365  1.0000
  H   H2521     1.0  0.49931  0.23390  0.56904  1.0000
  S   S560      1.0  0.58095  0.02463  0.58762  1.0000
  Fe  Fe285     1.0  0.65605  0.09999  0.61037  1.0000
  S   S561      1.0  0.63218  0.10851  0.63115  1.0000
  S   S562      1.0  0.66124  0.07289  0.60351  1.0000
  Fe  Fe286     1.0  0.66984  0.13418  0.60442  1.0000
  S   S563      1.0  0.64734  0.14500  0.62511  1.0000
  S   S564      1.0  0.68787  0.15197  0.58544  1.0000
  Fe  Fe287     1.0  0.65187  0.11711  0.64153  1.0000
  S   S565      1.0  0.64878  0.11080  0.67153  1.0000
  Fe  Fe288     1.0  0.63001  0.13544  0.61280  1.0000
  S   S566      1.0  0.60613  0.15577  0.60485  1.0000
  S   S567      1.0  0.67604  0.10683  0.62185  1.0000
  S   S568      1.0  0.65219  0.12617  0.59106  1.0000
  H   H2522     1.0  0.54322  0.02315  0.50546  1.0000
  H   H2523     1.0  0.58836  0.06523  0.52592  1.0000
  C   C2091     1.0  0.51937  0.04012  0.51709  1.0000
  H   H2524     1.0  0.79901  0.22076  0.71942  1.0000
  Fe  Fe289     1.0  0.60747  0.29582  0.52506  1.0000
  S   S569      1.0  0.71602  0.08707  0.70817  1.0000
  C   C2092     1.0  0.56912  0.08859  0.51740  1.0000
  H   H2525     1.0  0.68841  0.01242  0.70094  1.0000
  H   H2526     1.0  0.65173  0.07846  0.66236  1.0000
  S   S570      1.0  0.61840  0.27079  0.54340  1.0000
  Fe  Fe290     1.0  0.59615  0.26004  0.53983  1.0000
  S   S571      1.0  0.59945  0.23126  0.53855  1.0000
  Fe  Fe291     1.0  0.71896  0.23246  0.59834  1.0000
  S   S572      1.0  0.70215  0.25121  0.57955  1.0000
  S   S573      1.0  0.71276  0.20625  0.61546  1.0000
  Fe  Fe292     1.0  0.74143  0.25983  0.59577  1.0000
  S   S574      1.0  0.72556  0.28107  0.57767  1.0000
  S   S575      1.0  0.76810  0.26266  0.59939  1.0000
  Fe  Fe293     1.0  0.70132  0.27134  0.59513  1.0000
  S   S576      1.0  0.67549  0.28930  0.60513  1.0000
  Fe  Fe294     1.0  0.72788  0.25926  0.56345  1.0000
  S   S577      1.0  0.73471  0.26421  0.53323  1.0000
  S   S578      1.0  0.71682  0.25232  0.61492  1.0000
  S   S579      1.0  0.74486  0.23828  0.58067  1.0000
  C   C2093     1.0  0.77938  0.28468  0.64253  1.0000
  H   H2527     1.0  0.79632  0.29521  0.49550  1.0000
  S   S580      1.0  0.58857  0.98819  0.57233  1.0000
  C   C2094     1.0  0.82373  0.30394  0.71647  1.0000
  H   H2528     1.0  0.73448  0.99402  0.71601  1.0000
  H   H2529     1.0  0.82777  0.24254  0.49533  1.0000
  H   H2530     1.0  0.58093  0.98776  0.51394  1.0000
  C   C2095     1.0  0.65759  0.31390  0.54073  1.0000
  C   C2096     1.0  0.78000  0.24899  0.54010  1.0000
  Fe  Fe295     1.0  0.52545  0.15040  0.57531  1.0000
  S   S581      1.0  0.53716  0.16151  0.54691  1.0000
  S   S582      1.0  0.54286  0.12894  0.59188  1.0000
  Fe  Fe296     1.0  0.51857  0.18725  0.55186  1.0000
  S   S583      1.0  0.52473  0.21474  0.54087  1.0000
  Fe  Fe297     1.0  0.51372  0.15523  0.54053  1.0000
  S   S584      1.0  0.51857  0.13954  0.51921  1.0000
  S   S585      1.0  0.50871  0.17675  0.58110  1.0000
  S   S586      1.0  0.50333  0.14224  0.56857  1.0000
  C   C2097     1.0  0.74562  0.28219  0.52287  1.0000
  C   C2098     1.0  0.74828  0.28829  0.50429  1.0000
  C   C2099     1.0  0.51738  0.27636  0.57632  1.0000
  H   H2531     1.0  0.78467  0.27257  0.48659  1.0000
  N   N141      1.0  0.81219  0.24702  0.69093  1.0000
  C   C2100     1.0  0.75166  0.29054  0.53301  1.0000
  H   H2532     1.0  0.74382  0.28179  0.49631  1.0000
  S   S587      1.0  0.50850  0.04309  0.49931  1.0000
  H   H2533     1.0  0.82389  0.23523  0.66780  1.0000
  H   H2534     1.0  0.75064  0.28541  0.54711  1.0000
  H   H2535     1.0  0.54884  0.05316  0.57826  1.0000
  H   H2536     1.0  0.81924  0.29007  0.49760  1.0000
  C   C2101     1.0  0.51072  0.04758  0.53203  1.0000
  C   C2102     1.0  0.53504  0.03134  0.54725  1.0000
  C   C2103     1.0  0.65561  0.28766  0.60012  1.0000
  C   C2104     1.0  0.65546  0.28192  0.58483  1.0000
  C   C2105     1.0  0.63915  0.28072  0.58155  1.0000
  C   C2106     1.0  0.53638  0.02890  0.51697  1.0000
  H   H2537     1.0  0.66784  0.27871  0.57542  1.0000
  H   H2538     1.0  0.63901  0.27650  0.56968  1.0000
  C   C2107     1.0  0.57909  0.22610  0.53868  1.0000
  C   C2108     1.0  0.57575  0.20890  0.54652  1.0000
  C   C2109     1.0  0.55917  0.20504  0.54712  1.0000
  C   C2110     1.0  0.54620  0.21822  0.53934  1.0000
  C   C2111     1.0  0.54991  0.23511  0.53092  1.0000
  C   C2112     1.0  0.56611  0.23918  0.53093  1.0000
  H   H2539     1.0  0.58576  0.19872  0.55251  1.0000
  H   H2540     1.0  0.55636  0.19197  0.55369  1.0000
  H   H2541     1.0  0.54019  0.24513  0.52436  1.0000
  H   H2542     1.0  0.56870  0.25235  0.52460  1.0000
  C   C2113     1.0  0.79870  0.26481  0.48418  1.0000
  C   C2114     1.0  0.67478  0.30373  0.53463  1.0000
  H   H2543     1.0  0.82713  0.30374  0.58077  1.0000
  H   H2544     1.0  0.53097  0.98373  0.49907  1.0000
  H   H2545     1.0  0.65107  0.28989  0.52517  1.0000
  C   C2115     1.0  0.69628  0.05435  0.69057  1.0000
  C   C2116     1.0  0.51124  0.98656  0.58541  1.0000
  C   C2117     1.0  0.87232  0.27416  0.69005  1.0000
  C   C2118     1.0  0.87931  0.26143  0.70383  1.0000
  H   H2546     1.0  0.86608  0.30216  0.67825  1.0000
  C   C2119     1.0  0.85030  0.21587  0.71187  1.0000
  H   H2547     1.0  0.59055  0.14544  0.56217  1.0000
  C   C2120     1.0  0.79330  0.27637  0.63055  1.0000
  C   C2121     1.0  0.78952  0.26909  0.61791  1.0000
  C   C2122     1.0  0.77178  0.27015  0.61700  1.0000
  C   C2123     1.0  0.75777  0.27812  0.62921  1.0000
  S   S588      1.0  0.58718  0.28394  0.51933  1.0000
  H   H2548     1.0  0.80702  0.27550  0.63098  1.0000
  H   H2549     1.0  0.66748  0.27552  0.51246  1.0000
  H   H2550     1.0  0.74404  0.27903  0.62860  1.0000
  H   H2551     1.0  0.53056  0.10955  0.57324  1.0000
  C   C2124     1.0  0.54003  0.99229  0.49097  1.0000
  H   H2552     1.0  0.66044  0.99286  0.61264  1.0000
  C   C2125     1.0  0.70934  0.98547  0.72348  1.0000
  H   H2553     1.0  0.61845  0.12418  0.52432  1.0000
  H   H2554     1.0  0.51276  0.10815  0.51178  1.0000
  C   C2126     1.0  0.69516  0.16671  0.59390  1.0000
  C   C2127     1.0  0.69399  0.16453  0.61221  1.0000
  C   C2128     1.0  0.70002  0.17642  0.61857  1.0000
  C   C2129     1.0  0.70673  0.19088  0.60673  1.0000
  C   C2130     1.0  0.70781  0.19313  0.58843  1.0000
  C   C2131     1.0  0.70227  0.18091  0.58202  1.0000
  H   H2555     1.0  0.68867  0.15353  0.62144  1.0000
  H   H2556     1.0  0.69920  0.17459  0.63275  1.0000
  H   H2557     1.0  0.71311  0.20414  0.57923  1.0000
  H   H2558     1.0  0.70343  0.18250  0.56782  1.0000
  C   C2132     1.0  0.66769  0.10444  0.68133  1.0000
  C   C2133     1.0  0.68496  0.10465  0.67104  1.0000
  C   C2134     1.0  0.69970  0.09958  0.67942  1.0000
  C   C2135     1.0  0.69725  0.09408  0.69806  1.0000
  C   C2136     1.0  0.67999  0.09377  0.70829  1.0000
  C   C2137     1.0  0.66527  0.09897  0.69994  1.0000
  H   H2559     1.0  0.68694  0.10896  0.65668  1.0000
  H   H2560     1.0  0.71303  0.09989  0.67142  1.0000
  C   C2138     1.0  0.78230  0.30831  0.58537  1.0000
  H   H2561     1.0  0.65191  0.09890  0.70796  1.0000
  C   C2139     1.0  0.58896  0.14794  0.60094  1.0000
  C   C2140     1.0  0.58897  0.12968  0.60471  1.0000
  C   C2141     1.0  0.57472  0.12389  0.60197  1.0000
  C   C2142     1.0  0.56060  0.13633  0.59523  1.0000
  C   C2143     1.0  0.56091  0.15453  0.59092  1.0000
  C   C2144     1.0  0.57500  0.16033  0.59390  1.0000
  H   H2562     1.0  0.59975  0.12007  0.61010  1.0000
  H   H2563     1.0  0.57458  0.10978  0.60522  1.0000
  H   H2564     1.0  0.55010  0.16418  0.58562  1.0000
  H   H2565     1.0  0.57497  0.17446  0.59092  1.0000
  C   C2145     1.0  0.62127  0.06399  0.57563  1.0000
  C   C2146     1.0  0.61937  0.08066  0.57976  1.0000
  C   C2147     1.0  0.63149  0.08348  0.58843  1.0000
  C   C2148     1.0  0.64575  0.06966  0.59281  1.0000
  C   C2149     1.0  0.64751  0.05289  0.58894  1.0000
  C   C2150     1.0  0.63521  0.05000  0.58052  1.0000
  H   H2566     1.0  0.60847  0.09141  0.57633  1.0000
  H   H2567     1.0  0.62990  0.09638  0.59158  1.0000
  H   H2568     1.0  0.65858  0.04218  0.59222  1.0000
  H   H2569     1.0  0.63685  0.03714  0.57730  1.0000
  C   C2151     1.0  0.80235  0.26073  0.54647  1.0000
  H   H2570     1.0  0.63272  0.03768  0.70506  1.0000
  N   N142      1.0  0.54301  0.08200  0.57318  1.0000
  H   H2571     1.0  0.67210  0.03294  0.70086  1.0000
  H   H2572     1.0  0.69934  0.27327  0.52662  1.0000
  C   C2152     1.0  0.82761  0.25713  0.49172  1.0000
  C   C2153     1.0  0.69626  0.28425  0.51512  1.0000
  C   C2154     1.0  0.81327  0.21994  0.71671  1.0000
  H   H2573     1.0  0.63947  0.29683  0.62370  1.0000
  H   H2574     1.0  0.63447  0.99282  0.60098  1.0000
  H   H2575     1.0  0.52311  0.24009  0.58888  1.0000
  H   H2576     1.0  0.64485  0.06543  0.69459  1.0000
  C   C2155     1.0  0.88409  0.28503  0.71534  1.0000
  N   N143      1.0  0.65606  0.23272  0.63219  1.0000
  C   C2156     1.0  0.66720  0.22207  0.64531  1.0000
  C   C2157     1.0  0.64647  0.22108  0.62792  1.0000
  C   C2158     1.0  0.62748  0.22417  0.63086  1.0000
  C   C2159     1.0  0.65624  0.20590  0.62074  1.0000
  C   C2160     1.0  0.61900  0.21231  0.62741  1.0000
  C   C2161     1.0  0.64768  0.19412  0.61740  1.0000
  C   C2162     1.0  0.62907  0.19719  0.62093  1.0000
  H   H2577     1.0  0.65892  0.21546  0.65764  1.0000
  H   H2578     1.0  0.81343  0.25850  0.66280  1.0000
  H   H2579     1.0  0.67789  0.21140  0.63991  1.0000
  H   H2580     1.0  0.67843  0.22985  0.60984  1.0000
  H   H2581     1.0  0.61884  0.23559  0.63589  1.0000
  H   H2582     1.0  0.67065  0.20295  0.61781  1.0000
  H   H2583     1.0  0.60450  0.21478  0.62992  1.0000
  H   H2584     1.0  0.62246  0.18781  0.61867  1.0000
  C   C2163     1.0  0.80154  0.26244  0.51524  1.0000
  H   H2585     1.0  0.54784  0.11130  0.51282  1.0000
  C   C2164     1.0  0.55583  0.08192  0.58398  1.0000
  C   C2165     1.0  0.75938  0.30546  0.52488  1.0000
  H   H2586     1.0  0.57311  0.06102  0.55719  1.0000
  H   H2587     1.0  0.82075  0.27176  0.52423  1.0000
  H   H2588     1.0  0.51628  0.09635  0.57048  1.0000
  C   C2166     1.0  0.54485  0.09873  0.54074  1.0000
  H   H2589     1.0  0.80372  0.27554  0.68814  1.0000
  C   C2167     1.0  0.53728  0.06465  0.57899  1.0000
  H   H2590     1.0  0.72701  0.03304  0.67652  1.0000
  S   S589      1.0  0.58821  0.30826  0.54703  1.0000
  C   C2168     1.0  0.58524  0.16293  0.52781  1.0000
  C   C2169     1.0  0.56771  0.15449  0.50564  1.0000
  H   H2591     1.0  0.56051  0.09472  0.58000  1.0000
  H   H2592     1.0  0.56787  0.07095  0.58266  1.0000
  C   C2170     1.0  0.62313  0.28458  0.59393  1.0000
  H   H2593     1.0  0.57499  0.11240  0.54664  1.0000
  H   H2594     1.0  0.80829  0.26335  0.55616  1.0000
  C   C2171     1.0  0.64908  0.98792  0.62162  1.0000
  N   N144      1.0  0.69865  0.03628  0.68698  1.0000
  C   C2172     1.0  0.71734  0.02684  0.68782  1.0000
  H   H2595     1.0  0.54044  0.24747  0.57066  1.0000
  C   C2173     1.0  0.80974  0.28690  0.49133  1.0000
  C   C2174     1.0  0.69521  0.03657  0.66939  1.0000
  C   C2175     1.0  0.69622  0.02032  0.66435  1.0000
  C   C2176     1.0  0.69152  0.05265  0.65658  1.0000
  C   C2177     1.0  0.69370  0.02016  0.64758  1.0000
  C   C2178     1.0  0.68913  0.05229  0.63979  1.0000
  C   C2179     1.0  0.69032  0.03611  0.63527  1.0000
  N   N145      1.0  0.58862  0.99516  0.48522  1.0000
  H   H2596     1.0  0.74886  0.08034  0.72241  1.0000
  H   H2597     1.0  0.71970  0.01249  0.68726  1.0000
  H   H2598     1.0  0.69858  0.05373  0.70404  1.0000
  H   H2599     1.0  0.53187  0.27688  0.57251  1.0000
  H   H2600     1.0  0.75072  0.29155  0.65136  1.0000
  H   H2601     1.0  0.67663  0.30273  0.49142  1.0000
  C   C2180     1.0  0.52636  0.24558  0.57428  1.0000
  H   H2602     1.0  0.77385  0.11507  0.69266  1.0000
  H   H2603     1.0  0.69927  0.00753  0.67326  1.0000
  H   H2604     1.0  0.69047  0.06569  0.65910  1.0000
  H   H2605     1.0  0.69452  0.00754  0.64407  1.0000
  H   H2606     1.0  0.68637  0.06467  0.63015  1.0000
  H   H2607     1.0  0.68862  0.03600  0.62215  1.0000
  H   H2608     1.0  0.49556  0.99378  0.53413  1.0000
  C   C2181     1.0  0.79350  0.24559  0.69215  1.0000
  S   S590      1.0  0.82314  0.30417  0.67353  1.0000
  H   H2609     1.0  0.79314  0.23277  0.68906  1.0000
  C   C2182     1.0  0.56744  0.07239  0.54798  1.0000
  C   C2183     1.0  0.84079  0.22963  0.70072  1.0000
  C   C2184     1.0  0.62340  0.29037  0.60907  1.0000
  C   C2185     1.0  0.55785  0.98827  0.49280  1.0000
  N   N146      1.0  0.80914  0.26767  0.49596  1.0000
  N   N147      1.0  0.63133  0.03570  0.64657  1.0000
  C   C2186     1.0  0.62261  0.02013  0.65445  1.0000
  C   C2187     1.0  0.61931  0.04948  0.63592  1.0000
  C   C2188     1.0  0.64830  0.02970  0.63438  1.0000
  C   C2189     1.0  0.63520  0.04333  0.66003  1.0000
  C   C2190     1.0  0.63199  0.03568  0.67864  1.0000
  C   C2191     1.0  0.64267  0.05882  0.65460  1.0000
  C   C2192     1.0  0.63550  0.04358  0.69093  1.0000
  C   C2193     1.0  0.64616  0.06653  0.66696  1.0000
  H   H2610     1.0  0.81488  0.28814  0.57959  1.0000
  H   H2611     1.0  0.60966  0.02371  0.66375  1.0000
  H   H2612     1.0  0.61966  0.01492  0.64397  1.0000
  H   H2613     1.0  0.63148  0.00878  0.66168  1.0000
  H   H2614     1.0  0.62555  0.06096  0.62812  1.0000
  H   H2615     1.0  0.60665  0.05491  0.64467  1.0000
  H   H2616     1.0  0.61586  0.04403  0.62590  1.0000
  H   H2617     1.0  0.65790  0.01972  0.64191  1.0000
  H   H2618     1.0  0.64612  0.02350  0.62424  1.0000
  H   H2619     1.0  0.65499  0.04090  0.62686  1.0000
  H   H2620     1.0  0.62675  0.02365  0.68406  1.0000
  H   H2621     1.0  0.64591  0.06515  0.64069  1.0000
  Fe  Fe298     1.0  0.84137  0.31405  0.62304  1.0000
  H   H2622     1.0  0.51439  0.25784  0.54333  1.0000
  C   C2194     1.0  0.50043  0.11810  0.51188  1.0000
  C   C2195     1.0  0.88496  0.26688  0.71664  1.0000
  C   C2196     1.0  0.57615  0.07457  0.53003  1.0000
  H   H2623     1.0  0.57569  0.09007  0.50344  1.0000
  H   H2624     1.0  0.56722  0.12970  0.55928  1.0000
  Fe  Fe299     1.0  0.84862  0.29057  0.65816  1.0000
  H   H2625     1.0  0.83669  0.25965  0.49898  1.0000
  H   H2626     1.0  0.76849  0.24273  0.54474  1.0000
  H   H2627     1.0  0.70196  0.29507  0.54028  1.0000
  H   H2628     1.0  0.87703  0.31168  0.70004  1.0000
  S   S591      1.0  0.83565  0.28714  0.63755  1.0000
  H   H2629     1.0  0.51348  0.27383  0.59114  1.0000
  C   C2197     1.0  0.63949  0.29222  0.61197  1.0000
  H   H2630     1.0  0.78310  0.09157  0.69810  1.0000
  H   H2631     1.0  0.82511  0.26645  0.69429  1.0000
  C   C2198     1.0  0.58821  0.99718  0.50341  1.0000
  C   C2199     1.0  0.82202  0.23195  0.70256  1.0000
  H   H2632     1.0  0.68249  0.06231  0.69008  1.0000
  H   H2633     1.0  0.80041  0.26282  0.60859  1.0000
  C   C2200     1.0  0.82143  0.24823  0.67187  1.0000
  Fe  Fe300     1.0  0.81062  0.30265  0.65179  1.0000
  H   H2634     1.0  0.84835  0.23846  0.69068  1.0000
  C   C2201     1.0  0.81147  0.26385  0.69621  1.0000
  C   C2202     1.0  0.63430  0.98800  0.61498  1.0000
  S   S592      1.0  0.60268  0.28111  0.59193  1.0000
  N   N148      1.0  0.63436  0.19241  0.56830  1.0000
  C   C2203     1.0  0.63796  0.19360  0.54877  1.0000
  C   C2204     1.0  0.64303  0.17430  0.57675  1.0000
  C   C2205     1.0  0.61474  0.19421  0.57523  1.0000
  C   C2206     1.0  0.64167  0.20633  0.57173  1.0000
  C   C2207     1.0  0.66046  0.20506  0.56831  1.0000
  C   C2208     1.0  0.63057  0.22205  0.57726  1.0000
  C   C2209     1.0  0.66765  0.21864  0.57026  1.0000
  C   C2210     1.0  0.63791  0.23547  0.57929  1.0000
  C   C2211     1.0  0.65640  0.23387  0.57559  1.0000
  H   H2635     1.0  0.65257  0.19086  0.54295  1.0000
  H   H2636     1.0  0.63203  0.18393  0.54540  1.0000
  H   H2637     1.0  0.63221  0.20722  0.54183  1.0000
  H   H2638     1.0  0.65738  0.17045  0.57051  1.0000
  H   H2639     1.0  0.63667  0.16378  0.57559  1.0000
  H   H2640     1.0  0.64205  0.17327  0.59121  1.0000
  H   H2641     1.0  0.60701  0.20675  0.56844  1.0000
  H   H2642     1.0  0.60968  0.18328  0.57298  1.0000
  H   H2643     1.0  0.61118  0.19370  0.58986  1.0000
  H   H2644     1.0  0.66980  0.19367  0.56380  1.0000
  H   H2645     1.0  0.61614  0.22445  0.57989  1.0000
  H   H2646     1.0  0.68205  0.21739  0.56747  1.0000
  H   H2647     1.0  0.62911  0.24730  0.58354  1.0000
  H   H2648     1.0  0.66206  0.24451  0.57667  1.0000
  C   C2212     1.0  0.87138  0.29227  0.68886  1.0000
  H   H2649     1.0  0.61420  0.10616  0.54306  1.0000
  C   C2213     1.0  0.55170  0.08455  0.55398  1.0000
  H   H2650     1.0  0.67429  0.23049  0.64916  1.0000
  H   H2651     1.0  0.52113  0.09434  0.59187  1.0000
  H   H2652     1.0  0.79850  0.25043  0.48610  1.0000
  C   C2214     1.0  0.68630  0.02670  0.70151  1.0000
  H   H2653     1.0  0.83185  0.31187  0.70572  1.0000
  C   C2215     1.0  0.66797  0.24031  0.61578  1.0000
  H   H2654     1.0  0.80492  0.26351  0.71049  1.0000
  H   H2655     1.0  0.55702  0.01536  0.53212  1.0000
  H   H2656     1.0  0.78681  0.25657  0.68247  1.0000
  H   H2657     1.0  0.70653  0.29263  0.51141  1.0000
  C   C2216     1.0  0.57930  0.12022  0.55394  1.0000
  S   S593      1.0  0.49601  0.18193  0.54289  1.0000
  H   H2658     1.0  0.63512  0.24322  0.65268  1.0000
  S   S594      1.0  0.54271  0.02384  0.56740  1.0000
  C   C2217     1.0  0.54425  0.02456  0.53200  1.0000
  H   H2659     1.0  0.66013  0.24819  0.60555  1.0000
  S   S595      1.0  0.59335  0.02653  0.54423  1.0000
  H   H2660     1.0  0.65563  0.18248  0.61219  1.0000
  C   C2218     1.0  0.64397  0.24792  0.63980  1.0000
  H   H2661     1.0  0.83448  0.25236  0.66891  1.0000
  H   H2662     1.0  0.78493  0.24684  0.70551  1.0000
  H   H2663     1.0  0.72085  0.02719  0.70044  1.0000
  S   S596      1.0  0.53986  0.30600  0.54014  1.0000
  C   C2219     1.0  0.87751  0.29766  0.70130  1.0000
  H   H2664     1.0  0.63553  0.25671  0.63035  1.0000
  H   H2665     1.0  0.67523  0.24938  0.61840  1.0000
  C   C2220     1.0  0.51699  0.26786  0.54944  1.0000
  C   C2221     1.0  0.50322  0.99784  0.57164  1.0000
  C   C2222     1.0  0.66528  0.28272  0.52344  1.0000
  H   H2666     1.0  0.51980  0.01094  0.47798  1.0000
  H   H2667     1.0  0.67790  0.08976  0.72264  1.0000
  H   H2668     1.0  0.65163  0.25664  0.64244  1.0000
  C   C2223     1.0  0.81384  0.29992  0.58527  1.0000
  S   S597      1.0  0.66708  0.98404  0.69646  1.0000
  H   H2669     1.0  0.53111  0.26937  0.54379  1.0000
  H   H2670     1.0  0.69816  0.27783  0.50363  1.0000
  C   C2224     1.0  0.52701  0.09617  0.57729  1.0000
  H   H2671     1.0  0.69539  0.30958  0.56532  1.0000
  C   C2225     1.0  0.51839  0.04304  0.54711  1.0000
  N   N149      1.0  0.67784  0.29497  0.51939  1.0000
  H   H2672     1.0  0.70605  0.06193  0.68088  1.0000
  N   N150      1.0  0.76228  0.10194  0.71888  1.0000
  C   C2226     1.0  0.64241  0.05908  0.68510  1.0000
  C   C2227     1.0  0.49949  0.13480  0.51543  1.0000
  S   S598      1.0  0.57618  0.26965  0.56288  1.0000
  H   H2673     1.0  0.50993  0.00830  0.56328  1.0000
  H   H2674     1.0  0.61445  0.29627  0.48382  1.0000
  H   H2675     1.0  0.61210  0.14311  0.54687  1.0000
  H   H2676     1.0  0.77102  0.07315  0.72643  1.0000
  C   C2228     1.0  0.78773  0.25246  0.55241  1.0000
  H   H2677     1.0  0.60661  0.12498  0.56456  1.0000
  H   H2678     1.0  0.59139  0.16725  0.53618  1.0000
  H   H2679     1.0  0.56040  0.15131  0.49741  1.0000
  C   C2229     1.0  0.55345  0.10056  0.52274  1.0000
  S   S599      1.0  0.86425  0.26737  0.67475  1.0000
  H   H2680     1.0  0.81165  0.29558  0.60004  1.0000
  H   H2681     1.0  0.57580  0.12730  0.51788  1.0000
  C   C2230     1.0  0.60097  0.13624  0.55447  1.0000
  H   H2682     1.0  0.57639  0.19037  0.51513  1.0000
  H   H2683     1.0  0.51052  0.29005  0.57077  1.0000
  C   C2231     1.0  0.49472  0.26023  0.57556  1.0000
  H   H2684     1.0  0.54962  0.08027  0.59847  1.0000
  H   H2685     1.0  0.68826  0.02669  0.71495  1.0000
  H   H2686     1.0  0.88026  0.24738  0.70466  1.0000
  H   H2687     1.0  0.56064  0.18285  0.49583  1.0000
  H   H2688     1.0  0.52974  0.06259  0.59307  1.0000
  C   C2232     1.0  0.56776  0.17226  0.50477  1.0000
  S   S600      1.0  0.78399  0.29423  0.65827  1.0000
  H   H2689     1.0  0.60286  0.11091  0.52516  1.0000
  C   C2233     1.0  0.72168  0.99446  0.72525  1.0000
  H   H2690     1.0  0.52660  0.23511  0.56720  1.0000
  H   H2691     1.0  0.52863  0.06361  0.57039  1.0000
  C   C2234     1.0  0.80928  0.26556  0.52818  1.0000
  H   H2692     1.0  0.53277  0.10852  0.54385  1.0000
  C   C2235     1.0  0.76178  0.31177  0.50640  1.0000
  H   H2693     1.0  0.51116  0.04831  0.55886  1.0000
  N   N151      1.0  0.59328  0.12998  0.54252  1.0000
  C   C2236     1.0  0.60781  0.11730  0.53334  1.0000
  C   C2237     1.0  0.57662  0.17646  0.51572  1.0000
  H   H2694     1.0  0.78347  0.29579  0.58083  1.0000
  Fe  Fe301     1.0  0.56864  0.29451  0.54283  1.0000
  C   C2238     1.0  0.76160  0.28525  0.64204  1.0000
  C   C2239     1.0  0.75651  0.30299  0.49602  1.0000
  C   C2240     1.0  0.57646  0.14084  0.51751  1.0000
  H   H2695     1.0  0.74610  0.12836  0.71239  1.0000
  H   H2696     1.0  0.77962  0.25121  0.51313  1.0000
  H   H2697     1.0  0.78233  0.24877  0.56660  1.0000
  C   C2241     1.0  0.58527  0.14464  0.52918  1.0000
  H   H2698     1.0  0.58400  0.11056  0.56555  1.0000
  H   H2699     1.0  0.61107  0.29347  0.61862  1.0000
  Fe  Fe302     1.0  0.59772  0.28234  0.56490  1.0000
  H   H2700     1.0  0.76357  0.31207  0.53296  1.0000
  H   H2701     1.0  0.50821  0.28091  0.54497  1.0000
  H   H2702     1.0  0.49790  0.05651  0.53222  1.0000
  H   H2703     1.0  0.77804  0.30493  0.60017  1.0000
  S   S601      1.0  0.85722  0.31591  0.64202  1.0000
  H   H2704     1.0  0.66676  0.27262  0.53597  1.0000
  N   N152      1.0  0.79934  0.31484  0.57971  1.0000
  H   H2705     1.0  0.76139  0.09892  0.69286  1.0000
  C   C2242     1.0  0.77056  0.10187  0.69981  1.0000
  N   N153      1.0  0.51352  0.26249  0.56914  1.0000
  H   H2706     1.0  0.58142  0.01093  0.50538  1.0000
  H   H2707     1.0  0.73567  0.11067  0.71316  1.0000
  C   C2243     1.0  0.80518  0.30950  0.72002  1.0000
  C   C2244     1.0  0.74465  0.11458  0.71959  1.0000
  H   H2708     1.0  0.57302  0.30831  0.48622  1.0000
  C   C2245     1.0  0.57003  0.99932  0.48247  1.0000
  H   H2709     1.0  0.55293  0.31384  0.50213  1.0000
  C   C2246     1.0  0.68846  0.30252  0.54381  1.0000
  H   H2710     1.0  0.78630  0.30940  0.55208  1.0000
  C   C2247     1.0  0.67468  0.30876  0.50320  1.0000
  H   H2711     1.0  0.52369  0.98856  0.58722  1.0000
  H   H2712     1.0  0.79611  0.08347  0.72286  1.0000
  H   H2713     1.0  0.86468  0.21428  0.70998  1.0000
  H   H2714     1.0  0.60195  0.99460  0.50600  1.0000
  H   H2715     1.0  0.64652  0.31548  0.53439  1.0000
  C   C2248     1.0  0.84139  0.20416  0.72537  1.0000
  H   H2716     1.0  0.84626  0.28421  0.72297  1.0000
  S   S602      1.0  0.62545  0.31370  0.50622  1.0000
  C   C2249     1.0  0.49155  0.00751  0.53686  1.0000
  H   H2717     1.0  0.75830  0.30783  0.48173  1.0000
  H   H2718     1.0  0.50397  0.01179  0.53639  1.0000
  C   C2250     1.0  0.68494  0.31090  0.55824  1.0000
  C   C2251     1.0  0.53375  0.00751  0.47902  1.0000
  S   S603      1.0  0.62971  0.98317  0.53184  1.0000
  C   C2252     1.0  0.48970  0.24460  0.57452  1.0000
  H   H2719     1.0  0.89029  0.25704  0.72729  1.0000
  C   C2253     1.0  0.83188  0.28812  0.72653  1.0000
  Fe  Fe303     1.0  0.64217  0.02719  0.87677  1.0000
  S   S604      1.0  0.62469  0.05045  0.86226  1.0000
  Fe  Fe304     1.0  0.64591  0.00790  0.91459  1.0000
  S   S605      1.0  0.63205  0.00447  0.94363  1.0000
  S   S606      1.0  0.65338  0.03314  0.89716  1.0000
  S   S607      1.0  0.63207  0.00357  0.89512  1.0000
  Fe  Fe305     1.0  0.69291  0.07546  0.77639  1.0000
  S   S608      1.0  0.71037  0.04982  0.78708  1.0000
  S   S609      1.0  0.67143  0.09122  0.79450  1.0000
  H   H2720     1.0  0.83070  0.09885  0.87332  1.0000
  H   H2721     1.0  0.89003  0.06908  0.87039  1.0000
  S   S610      1.0  0.71563  0.08744  0.75808  1.0000
  H   H2722     1.0  0.72119  0.11145  0.80317  1.0000
  Fe  Fe306     1.0  0.94296  0.09238  0.85627  1.0000
  S   S611      1.0  0.95084  0.10910  0.87070  1.0000
  S   S612      1.0  0.91293  0.09989  0.85828  1.0000
  Fe  Fe307     1.0  0.96757  0.08350  0.88255  1.0000
  S   S613      1.0  0.96683  0.07752  0.91226  1.0000
  S   S614      1.0  0.68699  0.06538  0.75505  1.0000
  S   S615      1.0  0.95839  0.06642  0.86956  1.0000
  Fe  Fe308     1.0  0.84522  0.11192  0.80374  1.0000
  S   S616      1.0  0.84467  0.13690  0.81212  1.0000
  S   S617      1.0  0.87143  0.09195  0.80321  1.0000
  Fe  Fe309     1.0  0.80654  0.12409  0.79859  1.0000
  S   S618      1.0  0.80339  0.15024  0.80665  1.0000
  S   S619      1.0  0.78066  0.12170  0.79278  1.0000
  Fe  Fe310     1.0  0.83081  0.15110  0.78963  1.0000
  S   S620      1.0  0.84083  0.17467  0.77028  1.0000
  Fe  Fe311     1.0  0.81765  0.13342  0.82824  1.0000
  S   S621      1.0  0.81058  0.13497  0.85709  1.0000
  S   S622      1.0  0.83308  0.12625  0.77977  1.0000
  S   S623      1.0  0.81897  0.10725  0.82162  1.0000
  Fe  Fe312     1.0  0.89268  0.27472  0.75812  1.0000
  S   S624      1.0  0.86931  0.27949  0.78068  1.0000
  H   H2723     1.0  0.58885  0.98876  0.82088  1.0000
  Fe  Fe313     1.0  0.91524  0.24817  0.78281  1.0000
  S   S625      1.0  0.89367  0.25086  0.80726  1.0000
  S   S626      1.0  0.94054  0.22799  0.78672  1.0000
  Fe  Fe314     1.0  0.87553  0.24969  0.79021  1.0000
  S   S627      1.0  0.85360  0.23411  0.80298  1.0000
  Fe  Fe315     1.0  0.88960  0.28020  0.79552  1.0000
  C   C2254     1.0  0.57607  0.04695  0.96744  1.0000
  S   S628      1.0  0.89741  0.24477  0.76644  1.0000
  S   S629      1.0  0.91258  0.27771  0.77228  1.0000
  Fe  Fe316     1.0  0.73925  0.05480  0.94359  1.0000
  S   S630      1.0  0.71816  0.07951  0.93893  1.0000
  S   S631      1.0  0.73204  0.02866  0.94570  1.0000
  C   C2255     1.0  0.95660  0.30857  0.75844  1.0000
  C   C2256     1.0  0.78180  0.12542  0.74371  1.0000
  C   C2257     1.0  0.72643  0.11190  0.82832  1.0000
  C   C2258     1.0  0.71804  0.10686  0.81753  1.0000
  Fe  Fe317     1.0  0.74078  0.09140  0.92048  1.0000
  S   S632      1.0  0.73936  0.10653  0.89248  1.0000
  S   S633      1.0  0.76138  0.06596  0.92339  1.0000
  H   H2724     1.0  0.85860  0.07931  0.86931  1.0000
  C   C2259     1.0  0.95856  0.23636  0.78804  1.0000
  C   C2260     1.0  0.62597  0.03275  0.81786  1.0000
  S   S634      1.0  0.96529  0.09631  0.83250  1.0000
  H   H2725     1.0  0.77153  0.08174  0.87161  1.0000
  H   H2726     1.0  0.73740  0.11485  0.73361  1.0000
  C   C2261     1.0  0.95707  0.25464  0.78671  1.0000
  C   C2262     1.0  0.50468  0.28102  0.96105  1.0000
  H   H2727     1.0  0.80114  0.08572  0.78882  1.0000
  N   N154      1.0  0.93991  0.00974  0.97438  1.0000
  H   H2728     1.0  0.94483  0.26394  0.78452  1.0000
  C   C2263     1.0  0.68380  0.07344  0.87135  1.0000
  H   H2729     1.0  0.91638  0.26942  0.84138  1.0000
  H   H2730     1.0  0.87728  0.05740  0.92761  1.0000
  C   C2264     1.0  0.66928  0.09049  0.84743  1.0000
  H   H2731     1.0  0.92182  0.28725  0.80601  1.0000
  C   C2265     1.0  0.84513  0.19044  0.77981  1.0000
  C   C2266     1.0  0.83615  0.19274  0.79700  1.0000
  C   C2267     1.0  0.83916  0.20597  0.80407  1.0000
  C   C2268     1.0  0.85148  0.21666  0.79421  1.0000
  C   C2269     1.0  0.86098  0.21390  0.77727  1.0000
  C   C2270     1.0  0.85760  0.20099  0.76999  1.0000
  H   H2732     1.0  0.82653  0.18464  0.80468  1.0000
  H   H2733     1.0  0.83176  0.20806  0.81718  1.0000
  H   H2734     1.0  0.87063  0.22195  0.76962  1.0000
  H   H2735     1.0  0.86477  0.19908  0.75677  1.0000
  C   C2271     1.0  0.79002  0.12859  0.86679  1.0000
  C   C2272     1.0  0.77920  0.12693  0.85613  1.0000
  C   C2273     1.0  0.76321  0.12090  0.86410  1.0000
  C   C2274     1.0  0.75840  0.11584  0.88270  1.0000
  C   C2275     1.0  0.76926  0.11754  0.89330  1.0000
  C   C2276     1.0  0.78482  0.12432  0.88537  1.0000
  H   H2736     1.0  0.78304  0.13045  0.84174  1.0000
  H   H2737     1.0  0.75477  0.11990  0.85581  1.0000
  H   H2738     1.0  0.76561  0.11388  0.90762  1.0000
  H   H2739     1.0  0.79293  0.12607  0.89360  1.0000
  C   C2277     1.0  0.90202  0.09683  0.84291  1.0000
  C   C2278     1.0  0.88340  0.10284  0.84541  1.0000
  C   C2279     1.0  0.87401  0.10109  0.83343  1.0000
  C   C2280     1.0  0.88315  0.09330  0.81878  1.0000
  C   C2281     1.0  0.90176  0.08693  0.81643  1.0000
  C   C2282     1.0  0.91122  0.08875  0.82846  1.0000
  H   H2740     1.0  0.87617  0.10889  0.85670  1.0000
  H   H2741     1.0  0.85963  0.10555  0.83567  1.0000
  H   H2742     1.0  0.90889  0.08080  0.80517  1.0000
  H   H2743     1.0  0.92558  0.08397  0.82650  1.0000
  C   C2283     1.0  0.70065  0.09012  0.84391  1.0000
  C   C2284     1.0  0.69113  0.06334  0.84386  1.0000
  C   C2285     1.0  0.94677  0.07229  0.92628  1.0000
  C   C2286     1.0  0.94327  0.07223  0.94461  1.0000
  C   C2287     1.0  0.92682  0.06906  0.95568  1.0000
  C   C2288     1.0  0.91394  0.06572  0.94845  1.0000
  C   C2289     1.0  0.91778  0.06512  0.93032  1.0000
  C   C2290     1.0  0.93405  0.06846  0.91926  1.0000
  H   H2744     1.0  0.95309  0.07518  0.95011  1.0000
  C   C2291     1.0  0.71748  0.00414  0.73885  1.0000
  H   H2745     1.0  0.90797  0.06237  0.92474  1.0000
  H   H2746     1.0  0.93668  0.06822  0.90525  1.0000
  H   H2747     1.0  0.69889  0.09305  0.81615  1.0000
  H   H2748     1.0  0.70693  0.09151  0.86896  1.0000
  H   H2749     1.0  0.65828  0.08296  0.85292  1.0000
  H   H2750     1.0  0.66536  0.10284  0.85296  1.0000
  C   C2292     1.0  0.72215  0.10620  0.84680  1.0000
  C   C2293     1.0  0.76611  0.07566  0.77814  1.0000
  C   C2294     1.0  0.78314  0.07348  0.78175  1.0000
  C   C2295     1.0  0.78801  0.08749  0.78608  1.0000
  C   C2296     1.0  0.77579  0.10374  0.78688  1.0000
  C   C2297     1.0  0.75886  0.10592  0.78315  1.0000
  C   C2298     1.0  0.75402  0.09196  0.77881  1.0000
  H   H2751     1.0  0.82635  0.05327  0.90041  1.0000
  H   H2752     1.0  0.74947  0.11854  0.78354  1.0000
  H   H2753     1.0  0.74087  0.09380  0.77614  1.0000
  C   C2299     1.0  0.63054  0.02263  0.95330  1.0000
  C   C2300     1.0  0.92589  0.28162  0.85677  1.0000
  C   C2301     1.0  0.70531  0.09621  0.82514  1.0000
  C   C2302     1.0  0.82174  0.27756  0.74085  1.0000
  C   C2303     1.0  0.64050  0.03572  0.94439  1.0000
  C   C2304     1.0  0.98128  0.18102  0.85929  1.0000
  H   H2754     1.0  0.65019  0.03407  0.93228  1.0000
  C   C2305     1.0  0.63682  0.06109  0.84218  1.0000
  C   C2306     1.0  0.63123  0.07940  0.83592  1.0000
  C   C2307     1.0  0.64162  0.08842  0.82084  1.0000
  C   C2308     1.0  0.65745  0.07911  0.81169  1.0000
  C   C2309     1.0  0.66255  0.06061  0.81737  1.0000
  C   C2310     1.0  0.65234  0.05166  0.83271  1.0000
  H   H2755     1.0  0.61917  0.08677  0.84306  1.0000
  H   H2756     1.0  0.63757  0.10272  0.81643  1.0000
  H   H2757     1.0  0.67461  0.05328  0.81026  1.0000
  H   H2758     1.0  0.65636  0.03744  0.83704  1.0000
  C   C2311     1.0  0.72751  0.04058  0.91107  1.0000
  C   C2312     1.0  0.72409  0.02827  0.92712  1.0000
  C   C2313     1.0  0.71421  0.01550  0.92839  1.0000
  C   C2314     1.0  0.70750  0.01518  0.91376  1.0000
  H   H2759     1.0  0.73512  0.05048  0.91003  1.0000
  H   H2760     1.0  0.71175  0.00585  0.94074  1.0000
  H   H2761     1.0  0.69985  0.00531  0.91486  1.0000
  H   H2762     1.0  0.67905  0.08487  0.87830  1.0000
  H   H2763     1.0  0.78029  0.30373  0.73645  1.0000
  H   H2764     1.0  0.72840  0.11041  0.85526  1.0000
  N   N155      1.0  0.68652  0.07951  0.85164  1.0000
  C   C2315     1.0  0.72137  0.03983  0.89622  1.0000
  H   H2765     1.0  0.69635  0.06516  0.87540  1.0000
  C   C2316     1.0  0.68148  0.00681  0.81335  1.0000
  N   N156      1.0  0.83086  0.26098  0.75139  1.0000
  C   C2317     1.0  0.64268  0.02233  0.81202  1.0000
  C   C2318     1.0  0.80281  0.28356  0.74411  1.0000
  C   C2319     1.0  0.97685  0.15119  0.86138  1.0000
  H   H2766     1.0  0.60484  0.99650  0.78218  1.0000
  C   C2320     1.0  0.95005  0.24942  0.86437  1.0000
  H   H2767     1.0  0.81018  0.09128  0.88125  1.0000
  C   C2321     1.0  0.79846  0.11413  0.74447  1.0000
  H   H2768     1.0  0.91519  0.00544  0.97102  1.0000
  H   H2769     1.0  0.84545  0.06685  0.92744  1.0000
  C   C2322     1.0  0.98868  0.23058  0.79335  1.0000
  H   H2770     1.0  0.57158  0.03559  0.97693  1.0000
  C   C2323     1.0  0.93211  0.31147  0.73745  1.0000
  C   C2324     1.0  0.51433  0.29380  0.95025  1.0000
  N   N157      1.0  0.66789  0.99579  0.81679  1.0000
  H   H2771     1.0  0.98617  0.17284  0.81805  1.0000
  C   C2325     1.0  0.93834  0.25066  0.85301  1.0000
  H   H2772     1.0  0.97768  0.29860  0.83838  1.0000
  H   H2773     1.0  0.84653  0.23516  0.74713  1.0000
  H   H2774     1.0  0.69514  0.99964  0.80787  1.0000
  H   H2775     1.0  0.50991  0.27159  0.97206  1.0000
  C   C2326     1.0  0.70957  0.09536  0.85457  1.0000
  H   H2776     1.0  0.69174  0.06657  0.82924  1.0000
  H   H2777     1.0  0.67367  0.06486  0.87663  1.0000
  Fe  Fe318     1.0  0.67867  0.01533  0.88629  1.0000
  H   H2778     1.0  0.87350  0.13316  0.90329  1.0000
  C   C2327     1.0  0.71125  0.02721  0.89759  1.0000
  Fe  Fe319     1.0  0.72625  0.08709  0.96062  1.0000
  N   N158      1.0  0.89306  0.15256  0.80943  1.0000
  C   C2328     1.0  0.88128  0.16720  0.79924  1.0000
  C   C2329     1.0  0.89715  0.13683  0.80103  1.0000
  C   C2330     1.0  0.88283  0.14812  0.82796  1.0000
  C   C2331     1.0  0.90989  0.15718  0.80989  1.0000
  C   C2332     1.0  0.91356  0.17462  0.80284  1.0000
  C   C2333     1.0  0.92303  0.14412  0.81813  1.0000
  C   C2334     1.0  0.92956  0.17848  0.80376  1.0000
  C   C2335     1.0  0.93892  0.14815  0.81897  1.0000
  C   C2336     1.0  0.94223  0.16527  0.81177  1.0000
  H   H2779     1.0  0.88819  0.17127  0.78513  1.0000
  H   H2780     1.0  0.86904  0.16306  0.79871  1.0000
  H   H2781     1.0  0.87647  0.17916  0.80545  1.0000
  H   H2782     1.0  0.90567  0.13932  0.78740  1.0000
  H   H2783     1.0  0.88480  0.13338  0.79977  1.0000
  H   H2784     1.0  0.90425  0.12457  0.80887  1.0000
  H   H2785     1.0  0.87919  0.15975  0.83456  1.0000
  H   H2786     1.0  0.87022  0.14414  0.82835  1.0000
  H   H2787     1.0  0.89058  0.13680  0.83632  1.0000
  H   H2788     1.0  0.90436  0.18551  0.79647  1.0000
  H   H2789     1.0  0.92112  0.13063  0.82410  1.0000
  H   H2790     1.0  0.93223  0.19180  0.79810  1.0000
  H   H2791     1.0  0.94879  0.13788  0.82519  1.0000
  H   H2792     1.0  0.95470  0.16823  0.81232  1.0000
  N   N159      1.0  0.59675  0.05998  0.91772  1.0000
  C   C2337     1.0  0.61362  0.06680  0.91101  1.0000
  C   C2338     1.0  0.60073  0.04174  0.91398  1.0000
  C   C2339     1.0  0.58333  0.07147  0.90735  1.0000
  C   C2340     1.0  0.58968  0.06041  0.93691  1.0000
  C   C2341     1.0  0.58819  0.07601  0.94333  1.0000
  H   H2793     1.0  0.75716  0.13090  0.73565  1.0000
  C   C2342     1.0  0.57526  0.06229  0.97335  1.0000
  C   C2343     1.0  0.98724  0.24886  0.79187  1.0000
  C   C2344     1.0  0.58322  0.04590  0.94954  1.0000
  H   H2794     1.0  0.62351  0.05960  0.91951  1.0000
  H   H2795     1.0  0.61995  0.06511  0.89707  1.0000
  H   H2796     1.0  0.61156  0.08129  0.91061  1.0000
  H   H2797     1.0  0.61022  0.03233  0.92207  1.0000
  H   H2798     1.0  0.60699  0.04157  0.89969  1.0000
  H   H2799     1.0  0.58841  0.03636  0.91669  1.0000
  H   H2800     1.0  0.58040  0.08559  0.90883  1.0000
  H   H2801     1.0  0.58805  0.07142  0.89281  1.0000
  H   H2802     1.0  0.57043  0.06681  0.91191  1.0000
  H   H2803     1.0  0.59247  0.08773  0.93462  1.0000
  H   H2804     1.0  0.61511  0.00816  0.85951  1.0000
  H   H2805     1.0  0.68200  0.01058  0.82574  1.0000
  C   C2345     1.0  0.81866  0.25243  0.76705  1.0000
  S   S635      1.0  0.88350  0.30184  0.81125  1.0000
  H   H2806     1.0  0.72707  0.01101  0.74020  1.0000
  Fe  Fe320     1.0  0.73285  0.06091  0.76717  1.0000
  H   H2807     1.0  0.82671  0.10663  0.90232  1.0000
  H   H2808     1.0  0.85131  0.25300  0.76712  1.0000
  H   H2809     1.0  0.68107  0.05472  0.84987  1.0000
  C   C2346     1.0  0.76385  0.07416  0.86739  1.0000
  H   H2810     1.0  0.53551  0.30195  0.90908  1.0000
  C   C2347     1.0  0.63804  0.05101  0.95123  1.0000
  C   C2348     1.0  0.97147  0.26090  0.78845  1.0000
  H   H2811     1.0  0.82167  0.05959  0.92157  1.0000
  C   C2349     1.0  0.79003  0.05829  0.84997  1.0000
  C   C2350     1.0  0.95788  0.23032  0.83463  1.0000
  H   H2812     1.0  0.74029  0.06372  0.80980  1.0000
  H   H2813     1.0  0.82608  0.24033  0.77497  1.0000
  C   C2351     1.0  0.77527  0.08745  0.83709  1.0000
  C   C2352     1.0  0.82488  0.08690  0.88055  1.0000
  C   C2353     1.0  0.88008  0.06890  0.88277  1.0000
  C   C2354     1.0  0.86186  0.07472  0.88237  1.0000
  H   H2814     1.0  0.83911  0.27559  0.76617  1.0000
  H   H2815     1.0  0.95900  0.21963  0.82740  1.0000
  H   H2816     1.0  0.64414  0.98989  0.84997  1.0000
  C   C2355     1.0  0.68893  0.99505  0.74948  1.0000
  C   C2356     1.0  0.87299  0.06230  0.91494  1.0000
  C   C2357     1.0  0.91426  0.15022  0.86560  1.0000
  H   H2817     1.0  0.82759  0.07144  0.95601  1.0000
  S   S636      1.0  0.76012  0.05764  0.77339  1.0000
  H   H2818     1.0  0.82981  0.07653  0.87227  1.0000
  H   H2819     1.0  0.92386  0.06988  0.96960  1.0000
  Fe  Fe321     1.0  0.98183  0.07190  0.84698  1.0000
  C   C2358     1.0  0.93542  0.21979  0.85935  1.0000
  H   H2820     1.0  0.89980  0.05831  0.89904  1.0000
  H   H2821     1.0  0.80626  0.09838  0.90994  1.0000
  H   H2822     1.0  0.81614  0.19708  0.73858  1.0000
  H   H2823     1.0  0.94285  0.15488  0.88860  1.0000
  S   S637      1.0  0.79355  0.07607  0.94773  1.0000
  S   S638      1.0  0.74571  0.06131  0.96683  1.0000
  C   C2359     1.0  0.82040  0.06462  0.90739  1.0000
  H   H2824     1.0  0.79649  0.05467  0.83674  1.0000
  C   C2360     1.0  0.93287  0.30503  0.81467  1.0000
  C   C2361     1.0  0.82104  0.09449  0.90882  1.0000
  H   H2825     1.0  0.82298  0.09043  0.92279  1.0000
  C   C2362     1.0  0.97715  0.16479  0.86964  1.0000
  C   C2363     1.0  0.84858  0.07440  0.89842  1.0000
  C   C2364     1.0  0.85474  0.06788  0.91471  1.0000
  H   H2826     1.0  0.97445  0.13838  0.86937  1.0000
  C   C2365     1.0  0.62272  0.01192  0.84611  1.0000
  C   C2366     1.0  0.80342  0.09914  0.73681  1.0000
  S   S639      1.0  0.89080  0.29254  0.73109  1.0000
  H   H2827     1.0  0.80573  0.06827  0.90772  1.0000
  N   N160      1.0  0.82914  0.08004  0.89862  1.0000
  H   H2828     1.0  0.58383  0.03343  0.94606  1.0000
  C   C2367     1.0  0.64996  0.00634  0.82315  1.0000
  H   H2829     1.0  0.96198  0.24204  0.82464  1.0000
  H   H2830     1.0  0.79395  0.27641  0.75463  1.0000
  Fe  Fe322     1.0  0.97433  0.11111  0.84797  1.0000
  C   C2368     1.0  0.96208  0.02513  0.95048  1.0000
  N   N161      1.0  0.77225  0.07030  0.84936  1.0000
  C   C2369     1.0  0.91899  0.29938  0.81101  1.0000
  H   H2831     1.0  0.80732  0.11678  0.75143  1.0000
  C   C2370     1.0  0.75472  0.06789  0.82752  1.0000
  C   C2371     1.0  0.80386  0.06037  0.96413  1.0000
  H   H2832     1.0  0.75772  0.07992  0.81832  1.0000
  H   H2833     1.0  0.79923  0.06472  0.85352  1.0000
  H   H2834     1.0  0.98726  0.19650  0.83259  1.0000
  N   N162      1.0  0.89917  0.11959  0.90984  1.0000
  C   C2372     1.0  0.90646  0.11278  0.92640  1.0000
  C   C2373     1.0  0.88026  0.12878  0.91484  1.0000
  C   C2374     1.0  0.89961  0.10385  0.90274  1.0000
  C   C2375     1.0  0.90917  0.13211  0.89607  1.0000
  C   C2376     1.0  0.90493  0.13851  0.87887  1.0000
  C   C2377     1.0  0.92299  0.13859  0.89929  1.0000
  C   C2378     1.0  0.94825  0.01532  0.95533  1.0000
  C   C2379     1.0  0.67574  0.06939  0.96819  1.0000
  H   H2835     1.0  0.91279  0.24220  0.83974  1.0000
  H   H2836     1.0  0.90535  0.12367  0.93336  1.0000
  H   H2837     1.0  0.89910  0.10292  0.93627  1.0000
  H   H2838     1.0  0.92076  0.10580  0.92347  1.0000
  H   H2839     1.0  0.87934  0.14088  0.91998  1.0000
  H   H2840     1.0  0.87236  0.11987  0.92542  1.0000
  H   H2841     1.0  0.94555  0.01561  0.91261  1.0000
  H   H2842     1.0  0.91362  0.09755  0.89720  1.0000
  H   H2843     1.0  0.89350  0.09351  0.91319  1.0000
  H   H2844     1.0  0.89203  0.10726  0.89190  1.0000
  H   H2845     1.0  0.89460  0.13421  0.87541  1.0000
  H   H2846     1.0  0.92727  0.13449  0.91187  1.0000
  C   C2380     1.0  0.93799  0.28013  0.86735  1.0000
  S   S640      1.0  0.73037  0.04876  0.74540  1.0000
  H   H2847     1.0  0.77786  0.13676  0.75020  1.0000
  H   H2848     1.0  0.65011  0.02722  0.79887  1.0000
  H   H2849     1.0  0.95936  0.26282  0.87954  1.0000
  H   H2850     1.0  0.76248  0.09718  0.83585  1.0000
  H   H2851     1.0  0.76022  0.03949  0.86725  1.0000
  H   H2852     1.0  0.70427  0.05503  0.84633  1.0000
  H   H2853     1.0  0.66995  0.09481  0.83280  1.0000
  C   C2381     1.0  0.84488  0.26493  0.75825  1.0000
  H   H2854     1.0  0.96796  0.22506  0.84317  1.0000
  C   C2382     1.0  0.88564  0.06279  0.89897  1.0000
  H   H2855     1.0  0.95958  0.23717  0.86779  1.0000
  H   H2856     1.0  0.75002  0.08230  0.86772  1.0000
  H   H2857     1.0  0.74224  0.02411  0.85806  1.0000
  C   C2383     1.0  0.74460  0.05869  0.82242  1.0000
  H   H2858     1.0  0.78269  0.08547  0.82351  1.0000
  H   H2859     1.0  0.78911  0.04563  0.85999  1.0000
  Fe  Fe323     1.0  0.70613  0.04040  0.76433  1.0000
  H   H2860     1.0  0.76293  0.06191  0.87797  1.0000
  H   H2861     1.0  0.93600  0.20808  0.85374  1.0000
  C   C2384     1.0  0.74587  0.03630  0.84947  1.0000
  H   H2862     1.0  0.93187  0.00491  0.94341  1.0000
  H   H2863     1.0  0.64549  0.06129  0.94399  1.0000
  C   C2385     1.0  0.94505  0.29587  0.74014  1.0000
  Fe  Fe324     1.0  0.76584  0.07506  0.94616  1.0000
  H   H2864     1.0  0.73617  0.12034  0.82232  1.0000
  H   H2865     1.0  0.61146  0.01410  0.97695  1.0000
  H   H2866     1.0  0.69808  0.14632  0.96989  1.0000
  S   S641      1.0  0.70356  0.02652  0.87893  1.0000
  H   H2867     1.0  0.78345  0.09406  0.84185  1.0000
  S   S642      1.0  0.89199  0.06484  0.96067  1.0000
  H   H2868     1.0  0.92849  0.22745  0.82661  1.0000
  C   C2386     1.0  0.76086  0.06139  0.84382  1.0000
  C   C2387     1.0  0.75605  0.04532  0.85467  1.0000
  H   H2869     1.0  0.58356  0.99054  0.79183  1.0000
  H   H2870     1.0  0.68020  0.08153  0.96852  1.0000
  S   S643      1.0  0.74684  0.10155  0.94172  1.0000
  H   H2871     1.0  0.94636  0.29712  0.81255  1.0000
  C   C2388     1.0  0.93215  0.15039  0.88595  1.0000
  H   H2872     1.0  0.73272  0.03566  0.82913  1.0000
  C   C2389     1.0  0.74035  0.04286  0.83328  1.0000
  H   H2873     1.0  0.81184  0.26164  0.77641  1.0000
  C   C2390     1.0  0.83940  0.24783  0.73977  1.0000
  H   H2874     1.0  0.68309  0.06541  0.95538  1.0000
  C   C2391     1.0  0.98038  0.15401  0.84276  1.0000
  H   H2875     1.0  0.72435  0.04915  0.88376  1.0000
  H   H2876     1.0  0.78230  0.04623  0.97520  1.0000
  S   S644      1.0  0.69607  0.01516  0.76899  1.0000
  H   H2877     1.0  0.85600  0.26928  0.74751  1.0000
  H   H2878     1.0  0.91656  0.29419  0.85378  1.0000
  C   C2392     1.0  0.92599  0.26717  0.84965  1.0000
  C   C2393     1.0  0.69290  0.98586  0.73555  1.0000
  H   H2879     1.0  0.96638  0.30645  0.76647  1.0000
  C   C2394     1.0  0.94250  0.01197  0.94113  1.0000
  H   H2880     1.0  0.80848  0.24779  0.76299  1.0000
  C   C2395     1.0  0.66815  0.99056  0.80004  1.0000
  H   H2881     1.0  0.96724  0.28217  0.75271  1.0000
  C   C2396     1.0  0.82101  0.06126  0.96516  1.0000
  C   C2397     1.0  0.62606  0.05306  0.96736  1.0000
  H   H2882     1.0  0.96669  0.02883  0.96044  1.0000
  H   H2883     1.0  0.97487  0.16248  0.88405  1.0000
  S   S645      1.0  0.66803  0.01107  0.86449  1.0000
  H   H2884     1.0  0.69021  0.03515  0.95764  1.0000
  C   C2398     1.0  0.90141  0.30911  0.81448  1.0000
  H   H2885     1.0  0.94544  0.28475  0.73433  1.0000
  H   H2886     1.0  0.96958  0.03262  0.90518  1.0000
  H   H2887     1.0  0.93806  0.29154  0.87248  1.0000
  C   C2399     1.0  0.97445  0.22437  0.79121  1.0000
  C   C2400     1.0  0.92702  0.23908  0.83272  1.0000
  C   C2401     1.0  0.94997  0.26401  0.87125  1.0000
  N   N163      1.0  0.93949  0.23533  0.84503  1.0000
  C   C2402     1.0  0.70116  0.00429  0.75108  1.0000
  H   H2888     1.0  0.79256  0.06088  0.78125  1.0000
  H   H2889     1.0  0.92973  0.25039  0.82133  1.0000
  H   H2890     1.0  0.54434  0.30374  0.92713  1.0000
  S   S646      1.0  0.67223  0.99029  0.90533  1.0000
  S   S647      1.0  0.98261  0.13671  0.83184  1.0000
  H   H2891     1.0  0.66528  0.00229  0.78919  1.0000
  Fe  Fe325     1.0  0.71150  0.07465  0.73765  1.0000
  C   C2403     1.0  0.79474  0.29931  0.73376  1.0000
  H   H2892     1.0  0.94520  0.21519  0.86830  1.0000
  H   H2893     1.0  0.97021  0.27499  0.78765  1.0000
  H   H2894     1.0  0.92185  0.22314  0.86778  1.0000
  C   C2404     1.0  0.95027  0.01804  0.92327  1.0000
  H   H2895     1.0  0.67929  0.00974  0.95574  1.0000
  H   H2896     1.0  0.66122  0.07330  0.96777  1.0000
  H   H2897     1.0  0.91106  0.15459  0.85246  1.0000
  H   H2898     1.0  0.62100  0.04524  0.80936  1.0000
  H   H2899     1.0  0.60335  0.03598  0.83960  1.0000
  H   H2900     1.0  0.93547  0.16475  0.85865  1.0000
  C   C2405     1.0  0.61601  0.02755  0.83488  1.0000
  C   C2406     1.0  0.58132  0.07678  0.96132  1.0000
  H   H2901     1.0  0.73631  0.11350  0.97423  1.0000
  C   C2407     1.0  0.92794  0.15604  0.86909  1.0000
  C   C2408     1.0  0.75882  0.08390  0.72786  1.0000
  H   H2902     1.0  0.97566  0.21023  0.79227  1.0000
  C   C2409     1.0  0.98365  0.17055  0.83247  1.0000
  H   H2903     1.0  0.82929  0.24444  0.73443  1.0000
  C   C2410     1.0  0.98432  0.18395  0.84069  1.0000
  H   H2904     1.0  0.81628  0.09022  0.73772  1.0000
  C   C2411     1.0  0.59809  0.98495  0.78758  1.0000
  C   C2412     1.0  0.96983  0.03099  0.93261  1.0000
  C   C2413     1.0  0.63948  0.00147  0.84044  1.0000
  H   H2905     1.0  0.93317  0.98582  0.97211  1.0000
  H   H2906     1.0  0.67626  0.99517  0.75886  1.0000
  H   H2907     1.0  0.52687  0.29369  0.95339  1.0000
  C   C2414     1.0  0.96388  0.02754  0.91903  1.0000
  C   C2415     1.0  0.95727  0.29444  0.75057  1.0000
  S   S648      1.0  0.98303  0.19735  0.86969  1.0000
  Fe  Fe326     1.0  0.65895  0.98768  0.88448  1.0000
  H   H2908     1.0  0.92250  0.31234  0.72951  1.0000
  H   H2909     1.0  0.98004  0.03890  0.92919  1.0000
  H   H2910     1.0  0.75359  0.08316  0.74240  1.0000
  C   C2416     1.0  0.61901  0.02432  0.96982  1.0000
  C   C2417     1.0  0.79172  0.09537  0.72840  1.0000
  H   H2911     1.0  0.84881  0.19340  0.73391  1.0000
  H   H2912     1.0  0.61135  0.99254  0.81260  1.0000
  H   H2913     1.0  0.58112  0.08851  0.96608  1.0000
  H   H2914     1.0  0.67868  0.01946  0.80347  1.0000
  C   C2418     1.0  0.76995  0.12176  0.73539  1.0000
  C   C2419     1.0  0.53630  0.31142  0.91694  1.0000
  C   C2420     1.0  0.67374  0.01589  0.96726  1.0000
  S   S649      1.0  0.62221  0.07328  0.97437  1.0000
  C   C2421     1.0  0.61689  0.03947  0.97695  1.0000
  C   C2422     1.0  0.50776  0.30670  0.93602  1.0000
  C   C2423     1.0  0.67976  0.03058  0.96840  1.0000
  H   H2915     1.0  0.70635  0.04604  0.97083  1.0000
  H   H2916     1.0  0.91952  0.03370  0.97448  1.0000
  H   H2917     1.0  0.68156  0.98282  0.79465  1.0000
  C   C2424     1.0  0.82293  0.20626  0.72788  1.0000
  H   H2918     1.0  0.84945  0.25291  0.72818  1.0000
  C   C2425     1.0  0.79539  0.04722  0.97613  1.0000
  C   C2426     1.0  0.49097  0.30588  0.93318  1.0000
  C   C2427     1.0  0.77456  0.10651  0.72751  1.0000
  C   C2428     1.0  0.92682  0.99824  0.97733  1.0000
  H   H2919     1.0  0.98912  0.29422  0.85640  1.0000
  Fe  Fe327     1.0  0.65930  0.52398  0.99779  1.0000
  S   S650      1.0  0.63934  0.54711  0.00731  1.0000
  H   H2920     1.0  0.63288  0.33488  0.09563  1.0000
  Fe  Fe328     1.0  0.63218  0.49987  0.00962  1.0000
  S   S651      1.0  0.60972  0.52089  0.01988  1.0000
  S   S652      1.0  0.63093  0.47123  0.01295  1.0000
  Fe  Fe329     1.0  0.62083  0.53914  0.99494  1.0000
  C   C2429     1.0  0.97875  0.62819  0.00119  1.0000
  Fe  Fe330     1.0  0.63014  0.52677  0.03139  1.0000
  S   S653      1.0  0.62490  0.52705  0.06064  1.0000
  H   H2921     1.0  0.50209  0.31909  0.04549  1.0000
  S   S654      1.0  0.65190  0.50432  0.02291  1.0000
  Fe  Fe331     1.0  0.70588  0.58582  0.10231  1.0000
  S   S655      1.0  0.67719  0.60008  0.10648  1.0000
  S   S656      1.0  0.72663  0.60129  0.08543  1.0000
  Fe  Fe332     1.0  0.69651  0.54929  0.11760  1.0000
  S   S657      1.0  0.66693  0.56048  0.12292  1.0000
  S   S658      1.0  0.70908  0.52007  0.12223  1.0000
  Fe  Fe333     1.0  0.67257  0.57836  0.09596  1.0000
  S   S659      1.0  0.65960  0.58539  0.07227  1.0000
  Fe  Fe334     1.0  0.67444  0.58101  0.13303  1.0000
  S   S660      1.0  0.65768  0.58919  0.15846  1.0000
  S   S661      1.0  0.70146  0.56541  0.08995  1.0000
  S   S662      1.0  0.70377  0.56837  0.12975  1.0000
  Fe  Fe335     1.0  0.57349  0.37345  0.08263  1.0000
  S   S663      1.0  0.59603  0.36405  0.06115  1.0000
  S   S664      1.0  0.56746  0.35038  0.10528  1.0000
  Fe  Fe336     1.0  0.57120  0.41279  0.06294  1.0000
  S   S665      1.0  0.59377  0.40497  0.04074  1.0000
  S   S666      1.0  0.56249  0.44273  0.06013  1.0000
  Fe  Fe337     1.0  0.57956  0.38328  0.04247  1.0000
  S   S667      1.0  0.57517  0.37545  0.01863  1.0000
  Fe  Fe338     1.0  0.60683  0.38702  0.06291  1.0000
  S   S668      1.0  0.63397  0.38718  0.06752  1.0000
  S   S669      1.0  0.55631  0.39172  0.06384  1.0000
  S   S670      1.0  0.58467  0.39585  0.08482  1.0000
  H   H2922     1.0  0.70082  0.61738  0.06211  1.0000
  S   S671      1.0  0.68826  0.52314  0.98454  1.0000
  C   C2430     1.0  0.68260  0.32653  0.17358  1.0000
  C   C2431     1.0  0.96301  0.58313  0.07048  1.0000
  C   C2432     1.0  0.74486  0.62913  0.02457  1.0000
  C   C2433     1.0  0.67815  0.35746  0.15851  1.0000
  Fe  Fe339     1.0  0.80181  0.62995  0.09978  1.0000
  S   S672      1.0  0.78237  0.61588  0.12125  1.0000
  Fe  Fe340     1.0  0.84061  0.62847  0.08137  1.0000
  S   S673      1.0  0.86927  0.61488  0.08166  1.0000
  H   H2923     1.0  0.69699  0.59864  0.01759  1.0000
  S   S674      1.0  0.81916  0.61681  0.07756  1.0000
  S   S675      1.0  0.72825  0.57496  0.00036  1.0000
  Fe  Fe341     1.0  0.65928  0.44805  0.13997  1.0000
  S   S676      1.0  0.63452  0.44093  0.15923  1.0000
  S   S677      1.0  0.65698  0.47339  0.11911  1.0000
  Fe  Fe342     1.0  0.68291  0.41279  0.15240  1.0000
  S   S678      1.0  0.66022  0.40270  0.17229  1.0000
  S   S679      1.0  0.70899  0.39316  0.14993  1.0000
  Fe  Fe343     1.0  0.64470  0.41454  0.15066  1.0000
  S   S680      1.0  0.62713  0.39901  0.14549  1.0000
  Fe  Fe344     1.0  0.65253  0.42987  0.17905  1.0000
  C   C2434     1.0  0.51236  0.32281  0.05030  1.0000
  S   S681      1.0  0.66806  0.42248  0.13019  1.0000
  S   S682      1.0  0.67658  0.43924  0.16045  1.0000
  C   C2435     1.0  0.91297  0.63286  0.06329  1.0000
  C   C2436     1.0  0.81942  0.59733  0.02339  1.0000
  C   C2437     1.0  0.81695  0.61214  0.03105  1.0000
  H   H2924     1.0  0.69805  0.34487  0.17442  1.0000
  H   H2925     1.0  0.82504  0.61170  0.04031  1.0000
  C   C2438     1.0  0.86840  0.60045  0.05401  1.0000
  C   C2439     1.0  0.87859  0.60180  0.06545  1.0000
  C   C2440     1.0  0.89673  0.59346  0.06328  1.0000
  C   C2441     1.0  0.90477  0.58412  0.04946  1.0000
  H   H2926     1.0  0.85446  0.60700  0.05547  1.0000
  H   H2927     1.0  0.90458  0.59427  0.07225  1.0000
  H   H2928     1.0  0.91872  0.57758  0.04794  1.0000
  H   H2929     1.0  0.84892  0.50632  0.99423  1.0000
  C   C2442     1.0  0.56498  0.32260  0.07404  1.0000
  H   H2930     1.0  0.63915  0.50533  0.20827  1.0000
  C   C2443     1.0  0.54593  0.33188  0.05242  1.0000
  S   S683      1.0  0.81271  0.57887  0.00205  1.0000
  C   C2444     1.0  0.55310  0.37467  0.01829  1.0000
  C   C2445     1.0  0.55023  0.36545  0.00669  1.0000
  C   C2446     1.0  0.69893  0.53828  0.98825  1.0000
  C   C2447     1.0  0.51800  0.37333  0.01738  1.0000
  C   C2448     1.0  0.52090  0.38275  0.02873  1.0000
  C   C2449     1.0  0.53833  0.38348  0.02912  1.0000
  C   C2450     1.0  0.62062  0.33012  0.10188  1.0000
  H   H2931     1.0  0.58212  0.45789  0.00439  1.0000
  H   H2932     1.0  0.50957  0.38958  0.03723  1.0000
  H   H2933     1.0  0.54019  0.39118  0.03759  1.0000
  C   C2451     1.0  0.63332  0.38887  0.08956  1.0000
  C   C2452     1.0  0.64614  0.39617  0.09299  1.0000
  C   C2453     1.0  0.64456  0.39933  0.11008  1.0000
  C   C2454     1.0  0.63024  0.39499  0.12390  1.0000
  C   C2455     1.0  0.61808  0.38677  0.12070  1.0000
  C   C2456     1.0  0.61982  0.38349  0.10375  1.0000
  H   H2934     1.0  0.65711  0.39964  0.08234  1.0000
  H   H2935     1.0  0.65441  0.40513  0.11243  1.0000
  H   H2936     1.0  0.60718  0.38295  0.13135  1.0000
  H   H2937     1.0  0.61068  0.37664  0.10183  1.0000
  C   C2457     1.0  0.58809  0.33579  0.10806  1.0000
  C   C2458     1.0  0.60409  0.34175  0.10062  1.0000
  C   C2459     1.0  0.79677  0.61333  0.00624  1.0000
  H   H2938     1.0  0.60378  0.35538  0.09383  1.0000
  C   C2460     1.0  0.66732  0.60196  0.16706  1.0000
  C   C2461     1.0  0.68511  0.60366  0.16023  1.0000
  C   C2462     1.0  0.69306  0.61259  0.16824  1.0000
  S   S684      1.0  0.94085  0.58917  0.98322  1.0000
  N   N164      1.0  0.70358  0.60851  0.03758  1.0000
  H   H2939     1.0  0.67400  0.56739  0.19326  1.0000
  H   H2940     1.0  0.69286  0.59782  0.14899  1.0000
  H   H2941     1.0  0.70695  0.61339  0.16318  1.0000
  H   H2942     1.0  0.52368  0.33170  0.13347  1.0000
  C   C2463     1.0  0.76636  0.61214  0.11173  1.0000
  C   C2464     1.0  0.76620  0.61930  0.09370  1.0000
  C   C2465     1.0  0.75323  0.61673  0.08607  1.0000
  C   C2466     1.0  0.74067  0.60651  0.09628  1.0000
  C   C2467     1.0  0.74060  0.59951  0.11442  1.0000
  C   C2468     1.0  0.75341  0.60243  0.12218  1.0000
  H   H2943     1.0  0.77609  0.62681  0.08553  1.0000
  H   H2944     1.0  0.75319  0.62241  0.07210  1.0000
  H   H2945     1.0  0.73093  0.59160  0.12237  1.0000
  H   H2946     1.0  0.75345  0.59694  0.13618  1.0000
  C   C2469     1.0  0.69546  0.50701  0.11970  1.0000
  C   C2470     1.0  0.69966  0.48844  0.12539  1.0000
  C   C2471     1.0  0.68810  0.47795  0.12479  1.0000
  C   C2472     1.0  0.67233  0.48605  0.11852  1.0000
  C   C2473     1.0  0.66848  0.50454  0.11221  1.0000
  C   C2474     1.0  0.68002  0.51503  0.11282  1.0000
  H   H2947     1.0  0.71170  0.48218  0.13056  1.0000
  H   H2948     1.0  0.69138  0.46362  0.12924  1.0000
  H   H2949     1.0  0.65632  0.51080  0.10730  1.0000
  H   H2950     1.0  0.67689  0.52931  0.10806  1.0000
  C   C2475     1.0  0.91180  0.62504  0.00605  1.0000
  C   C2476     1.0  0.86210  0.64100  0.00565  1.0000
  H   H2951     1.0  0.68190  0.37036  0.15517  1.0000
  C   C2477     1.0  0.61167  0.46452  0.02700  1.0000
  C   C2478     1.0  0.59461  0.47548  0.02699  1.0000
  C   C2479     1.0  0.57938  0.46909  0.03766  1.0000
  C   C2480     1.0  0.58131  0.45191  0.04852  1.0000
  C   C2481     1.0  0.59846  0.44158  0.04931  1.0000
  C   C2482     1.0  0.61352  0.44762  0.03820  1.0000
  H   H2952     1.0  0.59310  0.48856  0.01831  1.0000
  H   H2953     1.0  0.56614  0.47719  0.03704  1.0000
  H   H2954     1.0  0.60016  0.42864  0.05822  1.0000
  H   H2955     1.0  0.62664  0.43904  0.03819  1.0000
  C   C2483     1.0  0.63276  0.54417  0.06464  1.0000
  C   C2484     1.0  0.63732  0.54233  0.08105  1.0000
  C   C2485     1.0  0.64543  0.55502  0.08368  1.0000
  C   C2486     1.0  0.64862  0.56975  0.06998  1.0000
  C   C2487     1.0  0.64346  0.57188  0.05382  1.0000
  C   C2488     1.0  0.63559  0.55911  0.05114  1.0000
  H   H2956     1.0  0.63488  0.53093  0.09160  1.0000
  H   H2957     1.0  0.64919  0.55340  0.09627  1.0000
  H   H2958     1.0  0.64568  0.58338  0.04327  1.0000
  H   H2959     1.0  0.63162  0.56092  0.03866  1.0000
  C   C2489     1.0  0.71699  0.56115  0.99520  1.0000
  C   C2490     1.0  0.69823  0.56447  0.99913  1.0000
  C   C2491     1.0  0.68920  0.55309  0.99559  1.0000
  C   C2492     1.0  0.56342  0.32271  0.16190  1.0000
  C   C2493     1.0  0.89445  0.64049  0.09984  1.0000
  C   C2494     1.0  0.80459  0.62772  0.02609  1.0000
  H   H2960     1.0  0.69065  0.57584  0.00491  1.0000
  H   H2961     1.0  0.67475  0.55576  0.99860  1.0000
  H   H2962     1.0  0.89941  0.64522  0.02975  1.0000
  H   H2963     1.0  0.86843  0.58977  0.03162  1.0000
  H   H2964     1.0  0.98338  0.61395  0.07621  1.0000
  H   H2965     1.0  0.65746  0.36687  0.14374  1.0000
  C   C2495     1.0  0.58547  0.42352  0.99618  1.0000
  C   C2496     1.0  0.71865  0.61690  0.02655  1.0000
  H   H2966     1.0  0.61542  0.53121  0.21163  1.0000
  H   H2967     1.0  0.90047  0.62853  0.06636  1.0000
  H   H2968     1.0  0.84186  0.61496  0.99265  1.0000
  H   H2969     1.0  0.51251  0.33704  0.04366  1.0000
  C   C2497     1.0  0.74816  0.63236  0.00600  1.0000
  C   C2498     1.0  0.97363  0.60612  0.07740  1.0000
  C   C2499     1.0  0.72665  0.54644  0.98771  1.0000
  C   C2500     1.0  0.55886  0.43249  0.01769  1.0000
  H   H2970     1.0  0.74110  0.54345  0.98512  1.0000
  C   C2501     1.0  0.86728  0.53209  0.97983  1.0000
  S   S685      1.0  0.82396  0.63900  0.10549  1.0000
  Fe  Fe345     1.0  0.96043  0.59581  0.99539  1.0000
  S   S686      1.0  0.80198  0.64690  0.03456  1.0000
  N   N165      1.0  0.69130  0.52291  0.04794  1.0000
  C   C2502     1.0  0.67593  0.53041  0.03892  1.0000
  C   C2503     1.0  0.68664  0.52967  0.06475  1.0000
  C   C2504     1.0  0.70711  0.52987  0.03649  1.0000
  C   C2505     1.0  0.69532  0.50318  0.05071  1.0000
  C   C2506     1.0  0.69546  0.49179  0.06784  1.0000
  C   C2507     1.0  0.69958  0.49476  0.03589  1.0000
  C   C2508     1.0  0.69973  0.47320  0.06986  1.0000
  C   C2509     1.0  0.70377  0.47617  0.03808  1.0000
  C   C2510     1.0  0.70394  0.46540  0.05501  1.0000
  H   H2971     1.0  0.66397  0.52497  0.04686  1.0000
  H   H2972     1.0  0.67219  0.54525  0.03695  1.0000
  H   H2973     1.0  0.67872  0.52729  0.02547  1.0000
  H   H2974     1.0  0.67458  0.52517  0.07383  1.0000
  H   H2975     1.0  0.68334  0.54456  0.06222  1.0000
  H   H2976     1.0  0.69786  0.52525  0.07200  1.0000
  H   H2977     1.0  0.71037  0.52691  0.02292  1.0000
  H   H2978     1.0  0.70489  0.54467  0.03459  1.0000
  H   H2979     1.0  0.71921  0.52378  0.04233  1.0000
  H   H2980     1.0  0.69245  0.49687  0.07991  1.0000
  H   H2981     1.0  0.69983  0.50253  0.02242  1.0000
  H   H2982     1.0  0.69987  0.46483  0.08308  1.0000
  H   H2983     1.0  0.70709  0.47011  0.02650  1.0000
  H   H2984     1.0  0.70747  0.45099  0.05659  1.0000
  H   H2985     1.0  0.92196  0.63003  0.00980  1.0000
  S   S687      1.0  0.64157  0.51747  0.98352  1.0000
  H   H2986     1.0  0.78529  0.64049  0.00951  1.0000
  C   C2511     1.0  0.85961  0.55448  0.99852  1.0000
  H   H2987     1.0  0.72594  0.35827  0.16680  1.0000
  C   C2512     1.0  0.64194  0.56494  0.20856  1.0000
  H   H2988     1.0  0.64345  0.60889  0.18657  1.0000
  S   S688      1.0  0.49583  0.37253  0.01773  1.0000
  S   S689      1.0  0.95191  0.57963  0.02262  1.0000
  H   H2989     1.0  0.87287  0.59690  0.98872  1.0000
  Fe  Fe346     1.0  0.81156  0.64353  0.05996  1.0000
  H   H2990     1.0  0.65749  0.62474  0.20065  1.0000
  H   H2991     1.0  0.55748  0.40961  0.99913  1.0000
  H   H2992     1.0  0.55980  0.34918  0.05818  1.0000
  S   S690      1.0  0.98295  0.57402  0.98623  1.0000
  C   C2513     1.0  0.66475  0.57173  0.22080  1.0000
  Fe  Fe347     1.0  0.79377  0.57596  0.98648  1.0000
  H   H2993     1.0  0.56156  0.35878  0.99808  1.0000
  H   H2994     1.0  0.92533  0.61473  0.04529  1.0000
  H   H2995     1.0  0.62543  0.46306  0.19358  1.0000
  H   H2996     1.0  0.72900  0.34561  0.19830  1.0000
  H   H2997     1.0  0.66179  0.33490  0.12201  1.0000
  H   H2998     1.0  0.70482  0.39716  0.21129  1.0000
  S   S691      1.0  0.64761  0.42973  0.20853  1.0000
  H   H2999     1.0  0.63468  0.59640  0.21952  1.0000
  H   H3000     1.0  0.64906  0.35694  0.12407  1.0000
  H   H3001     1.0  0.71174  0.58390  0.21186  1.0000
  C   C2514     1.0  0.92710  0.62490  0.05121  1.0000
  C   C2515     1.0  0.65948  0.33837  0.15549  1.0000
  N   N166      1.0  0.89412  0.63760  0.00768  1.0000
  C   C2516     1.0  0.87752  0.55207  0.99913  1.0000
  C   C2517     1.0  0.70934  0.38859  0.20167  1.0000
  H   H3002     1.0  0.53062  0.35758  0.99733  1.0000
  H   H3003     1.0  0.67680  0.37406  0.19906  1.0000
  H   H3004     1.0  0.96469  0.57240  0.06368  1.0000
  C   C2518     1.0  0.88886  0.64065  0.02621  1.0000
  C   C2519     1.0  0.72892  0.64804  0.12696  1.0000
  H   H3005     1.0  0.64427  0.39175  0.20919  1.0000
  N   N167      1.0  0.56655  0.43334  0.99838  1.0000
  H   H3006     1.0  0.62820  0.36159  0.15277  1.0000
  C   C2520     1.0  0.84606  0.51407  0.98105  1.0000
  H   H3007     1.0  0.61654  0.34625  0.15016  1.0000
  H   H3008     1.0  0.75355  0.63264  0.03114  1.0000
  C   C2521     1.0  0.66892  0.32409  0.16681  1.0000
  C   C2522     1.0  0.94668  0.58741  0.08221  1.0000
  H   H3009     1.0  0.57371  0.32572  0.08082  1.0000
  H   H3010     1.0  0.65085  0.55275  0.20422  1.0000
  C   C2523     1.0  0.95730  0.61022  0.08918  1.0000
  C   C2524     1.0  0.85452  0.54483  0.98887  1.0000
  H   H3011     1.0  0.93117  0.60419  0.10060  1.0000
  H   H3012     1.0  0.66740  0.35467  0.20532  1.0000
  N   N168      1.0  0.64498  0.33630  0.14800  1.0000
  C   C2525     1.0  0.67291  0.36333  0.21059  1.0000
  H   H3013     1.0  0.95901  0.64640  0.05129  1.0000
  C   C2526     1.0  0.94383  0.60093  0.09153  1.0000
  H   H3014     1.0  0.68884  0.63292  0.04605  1.0000
  C   C2527     1.0  0.57471  0.46312  0.99379  1.0000
  C   C2528     1.0  0.97693  0.59247  0.06759  1.0000
  S   S692      1.0  0.90456  0.57184  0.02018  1.0000
  H   H3015     1.0  0.93620  0.58015  0.08409  1.0000
  H   H3016     1.0  0.60963  0.49007  0.20610  1.0000
  H   H3017     1.0  0.72525  0.52365  0.97849  1.0000
  C   C2529     1.0  0.80924  0.59783  0.01111  1.0000
  H   H3018     1.0  0.73223  0.62600  0.15886  1.0000
  H   H3019     1.0  0.74004  0.62982  0.98308  1.0000
  C   C2530     1.0  0.64261  0.31757  0.15176  1.0000
  S   S693      1.0  0.95394  0.54733  0.00292  1.0000
  C   C2531     1.0  0.61730  0.47887  0.21395  1.0000
  C   C2532     1.0  0.71292  0.38460  0.17155  1.0000
  C   C2533     1.0  0.66529  0.61873  0.18954  1.0000
  C   C2534     1.0  0.72125  0.36669  0.17656  1.0000
  C   C2535     1.0  0.70689  0.39550  0.18415  1.0000
  C   C2536     1.0  0.53198  0.32083  0.12653  1.0000
  H   H3020     1.0  0.74203  0.63996  0.16641  1.0000
  H   H3021     1.0  0.68546  0.35522  0.21487  1.0000
  H   H3022     1.0  0.83495  0.64295  0.00363  1.0000
  H   H3023     1.0  0.59358  0.42864  0.00252  1.0000
  C   C2537     1.0  0.63611  0.44909  0.21695  1.0000
  H   H3024     1.0  0.56670  0.43775  0.02419  1.0000
  C   C2538     1.0  0.64874  0.34251  0.12830  1.0000
  C   C2539     1.0  0.68729  0.34313  0.16934  1.0000
  N   N169      1.0  0.66007  0.37071  0.22558  1.0000
  H   H3025     1.0  0.83357  0.52434  0.98343  1.0000
  H   H3026     1.0  0.95508  0.62081  0.09639  1.0000
  Fe  Fe348     1.0  0.50688  0.32277  0.98580  1.0000
  N   N170      1.0  0.65305  0.45034  0.06756  1.0000
  C   C2540     1.0  0.64859  0.46457  0.07805  1.0000
  C   C2541     1.0  0.65461  0.45928  0.04845  1.0000
  C   C2542     1.0  0.63792  0.44098  0.07289  1.0000
  C   C2543     1.0  0.66969  0.43710  0.07037  1.0000
  C   C2544     1.0  0.67870  0.43633  0.08402  1.0000
  C   C2545     1.0  0.67687  0.42384  0.05986  1.0000
  C   C2546     1.0  0.69398  0.42316  0.08677  1.0000
  C   C2547     1.0  0.69214  0.41074  0.06274  1.0000
  C   C2548     1.0  0.70067  0.41039  0.07619  1.0000
  H   H3027     1.0  0.65970  0.47182  0.07503  1.0000
  H   H3028     1.0  0.63651  0.47477  0.07513  1.0000
  H   H3029     1.0  0.64558  0.45909  0.09268  1.0000
  H   H3030     1.0  0.66662  0.46542  0.04349  1.0000
  H   H3031     1.0  0.64267  0.47002  0.04616  1.0000
  H   H3032     1.0  0.65543  0.45008  0.03966  1.0000
  H   H3033     1.0  0.63606  0.43436  0.08726  1.0000
  H   H3034     1.0  0.62515  0.45029  0.07063  1.0000
  H   H3035     1.0  0.64003  0.43036  0.06524  1.0000
  H   H3036     1.0  0.67410  0.44563  0.09291  1.0000
  H   H3037     1.0  0.67034  0.42305  0.04975  1.0000
  H   H3038     1.0  0.70050  0.42264  0.09744  1.0000
  H   H3039     1.0  0.69712  0.40053  0.05477  1.0000
  H   H3040     1.0  0.71232  0.40002  0.07861  1.0000
  N   N171      1.0  0.58513  0.48946  0.08153  1.0000
  C   C2549     1.0  0.56743  0.48678  0.08069  1.0000
  C   C2550     1.0  0.58213  0.50745  0.08563  1.0000
  C   C2551     1.0  0.59707  0.48947  0.06374  1.0000
  C   C2552     1.0  0.59351  0.47492  0.09474  1.0000
  C   C2553     1.0  0.60382  0.47808  0.10546  1.0000
  C   C2554     1.0  0.59259  0.45684  0.09637  1.0000
  C   C2555     1.0  0.61175  0.46415  0.11772  1.0000
  C   C2556     1.0  0.60056  0.44303  0.10871  1.0000
  C   C2557     1.0  0.60999  0.44671  0.11945  1.0000
  H   H3041     1.0  0.55877  0.48443  0.09426  1.0000
  H   H3042     1.0  0.56008  0.49851  0.07233  1.0000
  H   H3043     1.0  0.56857  0.47538  0.07443  1.0000
  H   H3044     1.0  0.57445  0.50778  0.09951  1.0000
  H   H3045     1.0  0.57461  0.51804  0.07639  1.0000
  H   H3046     1.0  0.59489  0.51183  0.08383  1.0000
  H   H3047     1.0  0.60031  0.47614  0.06023  1.0000
  H   H3048     1.0  0.59080  0.49930  0.05310  1.0000
  H   H3049     1.0  0.60994  0.49309  0.06319  1.0000
  H   H3050     1.0  0.60602  0.49120  0.10460  1.0000
  H   H3051     1.0  0.58588  0.45305  0.08807  1.0000
  H   H3052     1.0  0.61940  0.46690  0.12590  1.0000
  H   H3053     1.0  0.59951  0.42933  0.10992  1.0000
  H   H3054     1.0  0.61608  0.43598  0.12905  1.0000
  H   H3055     1.0  0.69996  0.58289  0.05381  1.0000
  H   H3056     1.0  0.68097  0.61325  0.05934  1.0000
  H   H3057     1.0  0.67901  0.60233  0.03590  1.0000
  N   N172      1.0  0.66468  0.49913  0.17692  1.0000
  C   C2558     1.0  0.66698  0.48548  0.19348  1.0000
  C   C2559     1.0  0.65991  0.49066  0.16466  1.0000
  C   C2560     1.0  0.68226  0.50423  0.16865  1.0000
  C   C2561     1.0  0.65061  0.51517  0.18004  1.0000
  C   C2562     1.0  0.64809  0.53018  0.16585  1.0000
  C   C2563     1.0  0.63854  0.51611  0.19672  1.0000
  C   C2564     1.0  0.63461  0.54529  0.16830  1.0000
  C   C2565     1.0  0.94605  0.64272  0.05459  1.0000
  C   C2566     1.0  0.62286  0.54566  0.18474  1.0000
  H   H3058     1.0  0.65479  0.47985  0.19974  1.0000
  H   H3059     1.0  0.67796  0.47382  0.19075  1.0000
  H   H3060     1.0  0.67018  0.49112  0.20347  1.0000
  H   H3061     1.0  0.64675  0.48663  0.17040  1.0000
  H   H3062     1.0  0.67008  0.47850  0.16189  1.0000
  H   H3063     1.0  0.65890  0.49980  0.15153  1.0000
  H   H3064     1.0  0.68587  0.51156  0.17699  1.0000
  H   H3065     1.0  0.69324  0.49237  0.16669  1.0000
  H   H3066     1.0  0.68251  0.51290  0.15516  1.0000
  H   H3067     1.0  0.65635  0.53026  0.15264  1.0000
  H   H3068     1.0  0.54490  0.44042  0.01996  1.0000
  C   C2567     1.0  0.97660  0.64233  0.00970  1.0000
  H   H3069     1.0  0.58658  0.40905  0.00245  1.0000
  H   H3070     1.0  0.54003  0.34262  0.04277  1.0000
  N   N173      1.0  0.77919  0.57296  0.06182  1.0000
  C   C2568     1.0  0.78091  0.57377  0.07982  1.0000
  C   C2569     1.0  0.79697  0.56444  0.05258  1.0000
  C   C2570     1.0  0.77428  0.59161  0.05194  1.0000
  C   C2571     1.0  0.76576  0.56275  0.06227  1.0000
  C   C2572     1.0  0.75677  0.55312  0.07839  1.0000
  C   C2573     1.0  0.76169  0.56184  0.04613  1.0000
  C   C2574     1.0  0.74454  0.54322  0.07823  1.0000
  C   C2575     1.0  0.74928  0.55207  0.04613  1.0000
  C   C2576     1.0  0.74075  0.54277  0.06217  1.0000
  H   H3071     1.0  0.78609  0.56034  0.08750  1.0000
  H   H3072     1.0  0.79034  0.58237  0.07908  1.0000
  H   H3073     1.0  0.76784  0.57953  0.08770  1.0000
  H   H3074     1.0  0.80082  0.55019  0.05921  1.0000
  H   H3075     1.0  0.80760  0.57134  0.05249  1.0000
  H   H3076     1.0  0.79726  0.56470  0.03842  1.0000
  H   H3077     1.0  0.76019  0.59771  0.05734  1.0000
  H   H3078     1.0  0.78300  0.60024  0.05280  1.0000
  H   H3079     1.0  0.77556  0.59249  0.03745  1.0000
  H   H3080     1.0  0.75884  0.55306  0.09135  1.0000
  H   H3081     1.0  0.76819  0.56861  0.03334  1.0000
  H   H3082     1.0  0.73780  0.53600  0.09072  1.0000
  H   H3083     1.0  0.74637  0.55170  0.03359  1.0000
  H   H3084     1.0  0.73115  0.53518  0.06225  1.0000
  C   C2577     1.0  0.55654  0.42376  0.99178  1.0000
  H   H3085     1.0  0.70298  0.57462  0.18842  1.0000
  C   C2578     1.0  0.71706  0.37056  0.20685  1.0000
  Fe  Fe349     1.0  0.97302  0.55726  0.01278  1.0000
  C   C2579     1.0  0.62627  0.46362  0.20682  1.0000
  H   H3086     1.0  0.54707  0.33445  0.14294  1.0000
  H   H3087     1.0  0.71516  0.61614  0.00013  1.0000
  H   H3088     1.0  0.63825  0.34074  0.12227  1.0000
  H   H3089     1.0  0.56652  0.33538  0.16150  1.0000
  H   H3090     1.0  0.84048  0.54758  0.98845  1.0000
  H   H3091     1.0  0.64290  0.57646  0.19704  1.0000
  H   H3092     1.0  0.61216  0.55723  0.18645  1.0000
  H   H3093     1.0  0.72085  0.63753  0.13034  1.0000
  C   C2580     1.0  0.72274  0.61991  0.00758  1.0000
  H   H3094     1.0  0.68547  0.62123  0.01965  1.0000
  C   C2581     1.0  0.88000  0.63102  0.00362  1.0000
  C   C2582     1.0  0.88353  0.61504  0.99711  1.0000
  H   H3095     1.0  0.71929  0.58225  0.03587  1.0000
  C   C2583     1.0  0.72299  0.35955  0.19434  1.0000
  C   C2584     1.0  0.74002  0.63679  0.15427  1.0000
  H   H3096     1.0  0.91094  0.61172  0.01491  1.0000
  H   H3097     1.0  0.74201  0.64255  0.11896  1.0000
  H   H3098     1.0  0.95441  0.62372  0.03740  1.0000
  H   H3099     1.0  0.70050  0.40934  0.18033  1.0000
  C   C2585     1.0  0.71089  0.58999  0.04608  1.0000
  C   C2586     1.0  0.69318  0.61850  0.05179  1.0000
  H   H3100     1.0  0.71943  0.58961  0.05541  1.0000
  C   C2587     1.0  0.89461  0.58282  0.03799  1.0000
  C   C2588     1.0  0.87636  0.59078  0.04044  1.0000
  Fe  Fe350     1.0  0.75702  0.57170  0.98552  1.0000
  C   C2589     1.0  0.58877  0.31802  0.11717  1.0000
  C   C2590     1.0  0.69399  0.57483  0.20132  1.0000
  H   H3101     1.0  0.91740  0.62323  0.99207  1.0000
  H   H3102     1.0  0.98425  0.57733  0.03735  1.0000
  C   C2591     1.0  0.79135  0.35318  0.21672  1.0000
  H   H3103     1.0  0.78903  0.61387  0.99662  1.0000
  H   H3104     1.0  0.88139  0.55953  0.00668  1.0000
  C   C2592     1.0  0.69075  0.60773  0.02713  1.0000
  C   C2593     1.0  0.85246  0.61942  0.99554  1.0000
  C   C2594     1.0  0.55715  0.33580  0.06128  1.0000
  C   C2595     1.0  0.69897  0.58004  0.21451  1.0000
  H   H3105     1.0  0.63314  0.55670  0.15731  1.0000
  C   C2596     1.0  0.53272  0.36475  0.00625  1.0000
  H   H3106     1.0  0.52394  0.31921  0.11764  1.0000
  Fe  Fe351     1.0  0.67825  0.63663  0.22005  1.0000
  C   C2597     1.0  0.56577  0.45223  0.98896  1.0000
  C   C2598     1.0  0.79462  0.62832  0.01357  1.0000
  S   S694      1.0  0.77920  0.55343  0.99828  1.0000
  Fe  Fe352     1.0  0.93389  0.57149  0.00995  1.0000
  H   H3107     1.0  0.82936  0.58549  0.02695  1.0000
  C   C2599     1.0  0.65734  0.60978  0.18153  1.0000
  H   H3108     1.0  0.55858  0.41850  0.02512  1.0000
  C   C2600     1.0  0.62479  0.53109  0.19890  1.0000
  S   S695      1.0  0.69383  0.63033  0.19336  1.0000
  C   C2601     1.0  0.73042  0.62140  0.03473  1.0000
  C   C2602     1.0  0.68325  0.61993  0.18307  1.0000
  C   C2603     1.0  0.66433  0.35523  0.15183  1.0000
  C   C2604     1.0  0.67715  0.57072  0.20431  1.0000
  H   H3109     1.0  0.98124  0.60125  0.03283  1.0000
  H   H3110     1.0  0.90448  0.53866  0.99012  1.0000
  C   C2605     1.0  0.89048  0.54018  0.98990  1.0000
  H   H3111     1.0  0.84958  0.56392  0.00555  1.0000
  H   H3112     1.0  0.90578  0.63415  0.10681  1.0000
  H   H3113     1.0  0.63195  0.31647  0.14549  1.0000
  C   C2606     1.0  0.88555  0.53038  0.98025  1.0000
  C   C2607     1.0  0.84858  0.63521  0.00171  1.0000
  H   H3114     1.0  0.54201  0.42997  0.99370  1.0000
  Fe  Fe353     1.0  0.49058  0.35602  0.00105  1.0000
  H   H3115     1.0  0.54406  0.32547  0.11766  1.0000
  H   H3116     1.0  0.75338  0.63099  0.14686  1.0000
  H   H3117     1.0  0.58123  0.48900  0.98899  1.0000
  H   H3118     1.0  0.62800  0.56283  0.21157  1.0000
  S   S696      1.0  0.96001  0.62431  0.99583  1.0000
  C   C2608     1.0  0.62778  0.34720  0.15568  1.0000
  H   H3119     1.0  0.79590  0.36521  0.21714  1.0000
  C   C2609     1.0  0.94356  0.62991  0.04680  1.0000
  H   H3120     1.0  0.75713  0.36640  0.21991  1.0000
  C   C2610     1.0  0.73720  0.62766  0.99754  1.0000
  C   C2611     1.0  0.55212  0.32195  0.15127  1.0000
  H   H3121     1.0  0.89668  0.60650  0.99512  1.0000
  C   C2612     1.0  0.86988  0.60934  0.99328  1.0000
  H   H3122     1.0  0.89028  0.62969  0.09632  1.0000
  C   C2613     1.0  0.71764  0.53513  0.98411  1.0000
  H   H3123     1.0  0.62439  0.34283  0.17046  1.0000
  H   H3124     1.0  0.80317  0.34202  0.21498  1.0000
  H   H3125     1.0  0.72864  0.61888  0.04907  1.0000
  H   H3126     1.0  0.76790  0.33373  0.21919  1.0000
  H   H3127     1.0  0.78589  0.35637  0.20436  1.0000
  H   H3128     1.0  0.75932  0.63839  0.99813  1.0000
  H   H3129     1.0  0.88650  0.62814  0.03592  1.0000
  H   H3130     1.0  0.50742  0.32227  0.06488  1.0000
  H   H3131     1.0  0.53872  0.32848  0.02154  1.0000
  C   C2614     1.0  0.57430  0.48095  0.98505  1.0000
  N   N174      1.0  0.64648  0.56830  0.22428  1.0000
  C   C2615     1.0  0.91490  0.64609  0.07137  1.0000
  H   H3132     1.0  0.63739  0.37085  0.21495  1.0000
  S   S697      1.0  0.49143  0.32705  0.01271  1.0000
  H   H3133     1.0  0.88290  0.64620  0.10963  1.0000
  H   H3134     1.0  0.70452  0.64759  0.15656  1.0000
  H   H3135     1.0  0.67021  0.39508  0.21689  1.0000
  H   H3136     1.0  0.59199  0.42449  0.98181  1.0000
  C   C2616     1.0  0.64285  0.37972  0.22002  1.0000
  H   H3137     1.0  0.60338  0.52374  0.97817  1.0000
  H   H3138     1.0  0.56203  0.42321  0.97746  1.0000
  H   H3139     1.0  0.98616  0.52465  0.98089  1.0000
  H   H3140     1.0  0.64778  0.34077  0.22731  1.0000
  H   H3141     1.0  0.79110  0.36223  0.35813  1.0000
  H   H3142     1.0  0.96798  0.40125  0.41887  1.0000
  H   H3143     1.0  0.51065  0.59916  0.32603  1.0000
  C   C2617     1.0  0.75372  0.35699  0.40990  1.0000
  C   C2618     1.0  0.98872  0.40373  0.35361  1.0000
  C   C2619     1.0  0.76170  0.36293  0.23280  1.0000
  H   H3144     1.0  0.96498  0.38052  0.43418  1.0000
  H   H3145     1.0  0.86389  0.45071  0.43033  1.0000
  C   C2620     1.0  0.59707  0.36441  0.45553  1.0000
  S   S698      1.0  0.98529  0.35451  0.33994  1.0000
  H   H3146     1.0  0.65810  0.39162  0.23936  1.0000
  H   H3147     1.0  0.69069  0.64352  0.27812  1.0000
  H   H3148     1.0  0.96518  0.39437  0.35486  1.0000
  S   S699      1.0  0.94420  0.34885  0.38075  1.0000
  C   C2621     1.0  0.61818  0.47972  0.23119  1.0000
  N   N175      1.0  0.49853  0.62043  0.30695  1.0000
  H   H3149     1.0  0.68058  0.37865  0.23327  1.0000
  H   H3150     1.0  0.95518  0.38763  0.41495  1.0000
  Fe  Fe354     1.0  0.96773  0.33756  0.36093  1.0000
  H   H3151     1.0  0.86824  0.37788  0.37939  1.0000
  C   C2622     1.0  0.66755  0.38454  0.22908  1.0000
  S   S700      1.0  0.49310  0.56663  0.32562  1.0000
  H   H3152     1.0  0.74993  0.35942  0.24314  1.0000
  C   C2623     1.0  0.65198  0.32689  0.27038  1.0000
  H   H3153     1.0  0.87212  0.32574  0.41742  1.0000
  C   C2624     1.0  0.77762  0.33864  0.28263  1.0000
  S   S701      1.0  0.64982  0.37163  0.40962  1.0000
  H   H3154     1.0  0.83918  0.37493  0.40007  1.0000
  S   S702      1.0  0.68155  0.37901  0.37378  1.0000
  Fe  Fe355     1.0  0.65199  0.38033  0.37999  1.0000
  S   S703      1.0  0.63096  0.40296  0.36928  1.0000
  S   S704      1.0  0.65445  0.35274  0.37593  1.0000
  Fe  Fe356     1.0  0.58644  0.50437  0.30506  1.0000
  S   S705      1.0  0.60902  0.51117  0.31251  1.0000
  S   S706      1.0  0.56161  0.50325  0.32712  1.0000
  Fe  Fe357     1.0  0.60797  0.50129  0.26724  1.0000
  S   S707      1.0  0.63191  0.50832  0.27183  1.0000
  S   S708      1.0  0.60735  0.49939  0.23935  1.0000
  Fe  Fe358     1.0  0.62653  0.48950  0.29848  1.0000
  S   S709      1.0  0.64957  0.46983  0.30928  1.0000
  Fe  Fe359     1.0  0.61217  0.52916  0.28545  1.0000
  S   S710      1.0  0.61095  0.55881  0.28039  1.0000
  S   S711      1.0  0.60377  0.48109  0.29301  1.0000
  S   S712      1.0  0.58846  0.52371  0.27884  1.0000
  H   H3155     1.0  0.83010  0.32782  0.37174  1.0000
  S   S713      1.0  0.69698  0.31955  0.24428  1.0000
  C   C2625     1.0  0.84879  0.36463  0.35278  1.0000
  C   C2626     1.0  0.88239  0.33285  0.45452  1.0000
  S   S714      1.0  0.70570  0.34045  0.35014  1.0000
  Fe  Fe360     1.0  0.67027  0.62036  0.25979  1.0000
  S   S715      1.0  0.67456  0.59389  0.27905  1.0000
  H   H3156     1.0  0.51158  0.59711  0.29560  1.0000
  H   H3157     1.0  0.80727  0.33134  0.36945  1.0000
  H   H3158     1.0  0.66507  0.36616  0.26063  1.0000
  H   H3159     1.0  0.49660  0.61778  0.33524  1.0000
  H   H3160     1.0  0.55319  0.63363  0.27137  1.0000
  C   C2627     1.0  0.61791  0.46369  0.37033  1.0000
  H   H3161     1.0  0.97043  0.35781  0.40721  1.0000
  C   C2628     1.0  0.62823  0.56786  0.28241  1.0000
  C   C2629     1.0  0.62604  0.58648  0.27860  1.0000
  C   C2630     1.0  0.64008  0.59442  0.27818  1.0000
  C   C2631     1.0  0.65637  0.58380  0.28180  1.0000
  C   C2632     1.0  0.65835  0.56514  0.28642  1.0000
  C   C2633     1.0  0.64429  0.55714  0.28667  1.0000
  H   H3162     1.0  0.61363  0.59486  0.27537  1.0000
  H   H3163     1.0  0.63831  0.60882  0.27486  1.0000
  H   H3164     1.0  0.67096  0.55687  0.28920  1.0000
  H   H3165     1.0  0.64605  0.54274  0.28967  1.0000
  C   C2634     1.0  0.80136  0.36739  0.36152  1.0000
  C   C2635     1.0  0.62806  0.46520  0.24129  1.0000
  C   C2636     1.0  0.97458  0.39516  0.36231  1.0000
  H   H3166     1.0  0.65828  0.41200  0.38257  1.0000
  H   H3167     1.0  0.87179  0.31837  0.37812  1.0000
  H   H3168     1.0  0.85705  0.33692  0.43390  1.0000
  H   H3169     1.0  0.62883  0.46575  0.25457  1.0000
  C   C2637     1.0  0.64238  0.33064  0.45312  1.0000
  H   H3170     1.0  0.75821  0.34162  0.26738  1.0000
  H   H3171     1.0  0.89991  0.46139  0.46283  1.0000
  C   C2638     1.0  0.63660  0.42119  0.35233  1.0000
  C   C2639     1.0  0.62287  0.43389  0.34521  1.0000
  C   C2640     1.0  0.62676  0.44865  0.33174  1.0000
  C   C2641     1.0  0.64443  0.45086  0.32537  1.0000
  C   C2642     1.0  0.65823  0.43798  0.33225  1.0000
  C   C2643     1.0  0.65435  0.42313  0.34565  1.0000
  H   H3172     1.0  0.60911  0.43243  0.35024  1.0000
  H   H3173     1.0  0.61602  0.45854  0.32659  1.0000
  H   H3174     1.0  0.67194  0.43963  0.32732  1.0000
  H   H3175     1.0  0.66509  0.41330  0.35080  1.0000
  H   H3176     1.0  0.71176  0.60480  0.27875  1.0000
  H   H3177     1.0  0.85252  0.36175  0.33955  1.0000
  H   H3178     1.0  0.81379  0.34600  0.33842  1.0000
  H   H3179     1.0  0.63191  0.39894  0.33166  1.0000
  C   C2644     1.0  0.84218  0.42528  0.46669  1.0000
  C   C2645     1.0  0.96730  0.38717  0.41977  1.0000
  C   C2646     1.0  0.57823  0.34283  0.47253  1.0000
  H   H3180     1.0  0.60423  0.46652  0.36854  1.0000
  N   N176      1.0  0.81899  0.35479  0.35991  1.0000
  C   C2647     1.0  0.71303  0.63611  0.30096  1.0000
  C   C2648     1.0  0.90064  0.33817  0.34347  1.0000
  C   C2649     1.0  0.89322  0.33770  0.32936  1.0000
  H   H3181     1.0  0.64708  0.55419  0.25146  1.0000
  H   H3182     1.0  0.59734  0.33606  0.42992  1.0000
  C   C2650     1.0  0.79548  0.33761  0.28261  1.0000
  H   H3183     1.0  0.91207  0.34430  0.34078  1.0000
  H   H3184     1.0  0.89899  0.34341  0.31577  1.0000
  C   C2651     1.0  0.89270  0.33153  0.36107  1.0000
  H   H3185     1.0  0.82576  0.36383  0.33130  1.0000
  S   S716      1.0  0.69299  0.37710  0.41996  1.0000
  H   H3186     1.0  0.87427  0.37163  0.34919  1.0000
  C   C2652     1.0  0.51185  0.54873  0.32642  1.0000
  C   C2653     1.0  0.51389  0.53596  0.34206  1.0000
  C   C2654     1.0  0.52903  0.52186  0.34201  1.0000
  C   C2655     1.0  0.54235  0.52059  0.32643  1.0000
  C   C2656     1.0  0.54034  0.53346  0.31085  1.0000
  C   C2657     1.0  0.52511  0.54741  0.31084  1.0000
  H   H3187     1.0  0.50372  0.53681  0.35412  1.0000
  H   H3188     1.0  0.53049  0.51193  0.35411  1.0000
  H   H3189     1.0  0.55038  0.53251  0.29874  1.0000
  H   H3190     1.0  0.52353  0.55712  0.29864  1.0000
  H   H3191     1.0  0.66107  0.34081  0.28505  1.0000
  C   C2658     1.0  0.88040  0.44912  0.45855  1.0000
  C   C2659     1.0  0.49922  0.63993  0.36447  1.0000
  C   C2660     1.0  0.85246  0.44517  0.43952  1.0000
  H   H3192     1.0  0.81217  0.33903  0.38649  1.0000
  S   S717      1.0  0.78917  0.31692  0.44916  1.0000
  C   C2661     1.0  0.58243  0.33541  0.45702  1.0000
  H   H3193     1.0  0.50890  0.63108  0.37196  1.0000
  H   H3194     1.0  0.88389  0.42265  0.44061  1.0000
  H   H3195     1.0  0.72702  0.32449  0.32107  1.0000
  C   C2662     1.0  0.87837  0.32987  0.33278  1.0000
  C   C2663     1.0  0.89636  0.33618  0.46060  1.0000
  H   H3196     1.0  0.84159  0.45669  0.44286  1.0000
  C   C2664     1.0  0.82898  0.36653  0.38151  1.0000
  C   C2665     1.0  0.92604  0.37572  0.45158  1.0000
  C   C2666     1.0  0.92531  0.37511  0.43427  1.0000
  C   C2667     1.0  0.93384  0.35973  0.42731  1.0000
  C   C2668     1.0  0.94327  0.34496  0.43758  1.0000
  C   C2669     1.0  0.94355  0.34540  0.45507  1.0000
  C   C2670     1.0  0.93485  0.36071  0.46211  1.0000
  H   H3197     1.0  0.91843  0.38669  0.42612  1.0000
  H   H3198     1.0  0.93336  0.35948  0.41392  1.0000
  H   H3199     1.0  0.76208  0.32199  0.39561  1.0000
  C   C2671     1.0  0.64469  0.55240  0.23890  1.0000
  H   H3200     1.0  0.62567  0.48389  0.34758  1.0000
  H   H3201     1.0  0.87473  0.36001  0.42767  1.0000
  S   S718      1.0  0.77709  0.34926  0.40555  1.0000
  H   H3202     1.0  0.65016  0.34022  0.44462  1.0000
  C   C2672     1.0  0.83862  0.37323  0.46247  1.0000
  H   H3203     1.0  0.76656  0.32477  0.34619  1.0000
  C   C2673     1.0  0.71633  0.36914  0.41609  1.0000
  C   C2674     1.0  0.62995  0.47355  0.35851  1.0000
  C   C2675     1.0  0.75480  0.32789  0.35706  1.0000
  C   C2676     1.0  0.65351  0.45570  0.37383  1.0000
  S   S719      1.0  0.90044  0.33373  0.37905  1.0000
  C   C2677     1.0  0.65701  0.35602  0.24122  1.0000
  H   H3204     1.0  0.61037  0.36145  0.42872  1.0000
  H   H3205     1.0  0.64462  0.44786  0.41810  1.0000
  H   H3206     1.0  0.53747  0.62848  0.34337  1.0000
  H   H3207     1.0  0.63844  0.36910  0.31139  1.0000
  N   N177      1.0  0.56901  0.56476  0.32486  1.0000
  C   C2678     1.0  0.56716  0.56540  0.30656  1.0000
  C   C2679     1.0  0.58836  0.56102  0.32519  1.0000
  C   C2680     1.0  0.56164  0.54942  0.33692  1.0000
  C   C2681     1.0  0.55991  0.58214  0.32991  1.0000
  C   C2682     1.0  0.54416  0.58419  0.34353  1.0000
  C   C2683     1.0  0.56661  0.59782  0.32088  1.0000
  C   C2684     1.0  0.53618  0.60077  0.34820  1.0000
  C   C2685     1.0  0.55862  0.61427  0.32580  1.0000
  C   C2686     1.0  0.54351  0.61572  0.33949  1.0000
  H   H3208     1.0  0.57373  0.57565  0.29646  1.0000
  H   H3209     1.0  0.57354  0.55241  0.30238  1.0000
  H   H3210     1.0  0.55283  0.56841  0.30567  1.0000
  H   H3211     1.0  0.59565  0.57058  0.31488  1.0000
  H   H3212     1.0  0.59536  0.54763  0.32224  1.0000
  H   H3213     1.0  0.59035  0.56146  0.33844  1.0000
  H   H3214     1.0  0.54745  0.55058  0.33643  1.0000
  H   H3215     1.0  0.56900  0.53648  0.33302  1.0000
  H   H3216     1.0  0.56254  0.54816  0.35098  1.0000
  H   H3217     1.0  0.53777  0.57319  0.35088  1.0000
  H   H3218     1.0  0.57818  0.59744  0.31001  1.0000
  H   H3219     1.0  0.52433  0.60202  0.35880  1.0000
  H   H3220     1.0  0.56425  0.62597  0.31905  1.0000
  Fe  Fe361     1.0  0.95501  0.32539  0.40060  1.0000
  H   H3221     1.0  0.89860  0.35385  0.42543  1.0000
  H   H3222     1.0  0.82986  0.43566  0.46939  1.0000
  C   C2687     1.0  0.84181  0.37217  0.38679  1.0000
  H   H3223     1.0  0.79578  0.36969  0.37531  1.0000
  C   C2688     1.0  0.51362  0.62985  0.30162  1.0000
  H   H3224     1.0  0.66203  0.57714  0.24713  1.0000
  C   C2689     1.0  0.52819  0.62684  0.28705  1.0000
  C   C2690     1.0  0.97289  0.38701  0.38039  1.0000
  H   H3225     1.0  0.76821  0.33626  0.29524  1.0000
  H   H3226     1.0  0.81659  0.36525  0.39104  1.0000
  C   C2691     1.0  0.65785  0.34122  0.27243  1.0000
  C   C2692     1.0  0.98232  0.35892  0.41147  1.0000
  H   H3227     1.0  0.60310  0.37541  0.45499  1.0000
  H   H3228     1.0  0.70783  0.62678  0.33012  1.0000
  H   H3229     1.0  0.63099  0.54953  0.24221  1.0000
  Fe  Fe362     1.0  0.65494  0.34379  0.40518  1.0000
  S   S720      1.0  0.71852  0.36206  0.22921  1.0000
  C   C2693     1.0  0.63918  0.32841  0.47177  1.0000
  H   H3230     1.0  0.52914  0.61737  0.27903  1.0000
  N   N178      1.0  0.65515  0.38397  0.31650  1.0000
  C   C2694     1.0  0.64641  0.36842  0.32134  1.0000
  C   C2695     1.0  0.66620  0.38198  0.32969  1.0000
  C   C2696     1.0  0.64070  0.40016  0.31807  1.0000
  C   C2697     1.0  0.66680  0.38476  0.29846  1.0000
  C   C2698     1.0  0.68078  0.36998  0.29462  1.0000
  C   C2699     1.0  0.66511  0.40016  0.28447  1.0000
  C   C2700     1.0  0.69230  0.37059  0.27788  1.0000
  C   C2701     1.0  0.67676  0.40064  0.26779  1.0000
  C   C2702     1.0  0.69039  0.38595  0.26455  1.0000
  H   H3231     1.0  0.65618  0.35549  0.32215  1.0000
  S   S721      1.0  0.91715  0.39579  0.45918  1.0000
  C   C2703     1.0  0.68821  0.63317  0.29051  1.0000
  H   H3232     1.0  0.67620  0.36913  0.33079  1.0000
  H   H3233     1.0  0.65781  0.38234  0.34331  1.0000
  H   H3234     1.0  0.67368  0.39298  0.32605  1.0000
  H   H3235     1.0  0.63181  0.40249  0.30852  1.0000
  H   H3236     1.0  0.79988  0.33442  0.29515  1.0000
  H   H3237     1.0  0.64621  0.41233  0.31587  1.0000
  H   H3238     1.0  0.68311  0.35789  0.30464  1.0000
  H   H3239     1.0  0.65506  0.41216  0.28610  1.0000
  H   H3240     1.0  0.70286  0.35911  0.27525  1.0000
  H   H3241     1.0  0.67533  0.41258  0.25735  1.0000
  H   H3242     1.0  0.69953  0.38651  0.25169  1.0000
  S   S722      1.0  0.82036  0.33826  0.42314  1.0000
  H   H3243     1.0  0.63724  0.36774  0.33472  1.0000
  S   S723      1.0  0.63872  0.32350  0.42216  1.0000
  H   H3244     1.0  0.64447  0.43869  0.24214  1.0000
  C   C2704     1.0  0.62359  0.44965  0.38385  1.0000
  C   C2705     1.0  0.72567  0.36498  0.39960  1.0000
  H   H3245     1.0  0.90896  0.33786  0.45169  1.0000
  S   S724      1.0  0.78657  0.35973  0.44910  1.0000
  C   C2706     1.0  0.49819  0.60960  0.32529  1.0000
  H   H3246     1.0  0.75150  0.35924  0.43694  1.0000
  C   C2707     1.0  0.86381  0.44351  0.46547  1.0000
  H   H3247     1.0  0.66745  0.45304  0.37448  1.0000
  H   H3248     1.0  0.85467  0.32921  0.46373  1.0000
  N   N179      1.0  0.88482  0.33186  0.43560  1.0000
  C   C2708     1.0  0.74438  0.36090  0.42647  1.0000
  C   C2709     1.0  0.86964  0.32675  0.43167  1.0000
  C   C2710     1.0  0.85469  0.37688  0.46356  1.0000
  H   H3249     1.0  0.61366  0.44221  0.39206  1.0000
  C   C2711     1.0  0.58568  0.35774  0.47118  1.0000
  C   C2712     1.0  0.73510  0.31623  0.38401  1.0000
  Fe  Fe363     1.0  0.68399  0.35062  0.37205  1.0000
  H   H3250     1.0  0.66801  0.40575  0.40198  1.0000
  C   C2713     1.0  0.77292  0.33181  0.23159  1.0000
  H   H3251     1.0  0.61910  0.58219  0.23180  1.0000
  S   S725      1.0  0.86863  0.33017  0.31515  1.0000
  H   H3252     1.0  0.80240  0.38064  0.35261  1.0000
  H   H3253     1.0  0.71854  0.37042  0.44224  1.0000
  Fe  Fe364     1.0  0.93028  0.32990  0.37551  1.0000
  H   H3254     1.0  0.66448  0.31915  0.32741  1.0000
  S   S726      1.0  0.65549  0.64652  0.26742  1.0000
  C   C2714     1.0  0.59368  0.34233  0.44139  1.0000
  Fe  Fe365     1.0  0.72050  0.33252  0.23790  1.0000
  C   C2715     1.0  0.67811  0.32040  0.32597  1.0000
  C   C2716     1.0  0.63548  0.32051  0.44552  1.0000
  C   C2717     1.0  0.65066  0.34137  0.23972  1.0000
  H   H3255     1.0  0.83869  0.41639  0.45984  1.0000
  C   C2718     1.0  0.88676  0.34957  0.42413  1.0000
  C   C2719     1.0  0.81704  0.33752  0.37240  1.0000
  C   C2720     1.0  0.71729  0.61506  0.28175  1.0000
  H   H3256     1.0  0.68979  0.61358  0.32252  1.0000
  H   H3257     1.0  0.73550  0.32769  0.38943  1.0000
  S   S727      1.0  0.68486  0.33929  0.40097  1.0000
  H   H3258     1.0  0.78459  0.32033  0.23167  1.0000
  C   C2721     1.0  0.77201  0.34186  0.26656  1.0000
  H   H3259     1.0  0.96164  0.38060  0.38650  1.0000
  C   C2722     1.0  0.86148  0.37040  0.35814  1.0000
  S   S728      1.0  0.69351  0.63143  0.24173  1.0000
  H   H3260     1.0  0.57762  0.32398  0.45668  1.0000
  Fe  Fe366     1.0  0.81659  0.35289  0.44500  1.0000
  H   H3261     1.0  0.67475  0.42308  0.38407  1.0000
  H   H3262     1.0  0.86774  0.40951  0.44444  1.0000
  C   C2723     1.0  0.66297  0.41731  0.39180  1.0000
  C   C2724     1.0  0.74436  0.35925  0.39642  1.0000
  C   C2725     1.0  0.72572  0.36722  0.42946  1.0000
  C   C2726     1.0  0.85812  0.37392  0.37517  1.0000
  Fe  Fe367     1.0  0.79033  0.34273  0.42911  1.0000
  H   H3263     1.0  0.50374  0.64506  0.32273  1.0000
  C   C2727     1.0  0.83222  0.36218  0.36450  1.0000
  H   H3264     1.0  0.88876  0.44638  0.44603  1.0000
  H   H3265     1.0  0.49956  0.61542  0.28113  1.0000
  H   H3266     1.0  0.86562  0.37729  0.45207  1.0000
  N   N180      1.0  0.64823  0.43043  0.40011  1.0000
  Fe  Fe368     1.0  0.67976  0.36792  0.40308  1.0000
  C   C2728     1.0  0.70053  0.60857  0.31167  1.0000
  N   N181      1.0  0.70499  0.62334  0.29645  1.0000
  H   H3267     1.0  0.63257  0.38440  0.23134  1.0000
  H   H3268     1.0  0.71852  0.36659  0.38917  1.0000
  H   H3269     1.0  0.76224  0.32762  0.24296  1.0000
  H   H3270     1.0  0.62296  0.42941  0.41872  1.0000
  C   C2729     1.0  0.54214  0.63612  0.28247  1.0000
  C   C2730     1.0  0.65516  0.43754  0.41196  1.0000
  H   H3271     1.0  0.66681  0.44375  0.40469  1.0000
  S   S729      1.0  0.95254  0.32094  0.35348  1.0000
  N   N182      1.0  0.77776  0.34817  0.23297  1.0000
  H   H3272     1.0  0.88843  0.34952  0.40976  1.0000
  H   H3273     1.0  0.69519  0.59885  0.30755  1.0000
  H   H3274     1.0  0.65447  0.54030  0.23533  1.0000
  H   H3275     1.0  0.62896  0.41430  0.40340  1.0000
  H   H3276     1.0  0.75158  0.35661  0.38350  1.0000
  C   C2731     1.0  0.64165  0.44524  0.38602  1.0000
  H   H3277     1.0  0.67874  0.64012  0.30089  1.0000
  H   H3278     1.0  0.69118  0.58471  0.24128  1.0000
  C   C2732     1.0  0.63428  0.42054  0.41149  1.0000
  H   H3279     1.0  0.65987  0.42675  0.42295  1.0000
  C   C2733     1.0  0.64772  0.46954  0.36023  1.0000
  S   S730      1.0  0.83602  0.37039  0.44203  1.0000
  H   H3280     1.0  0.98100  0.35167  0.42567  1.0000
  H   H3281     1.0  0.71945  0.62489  0.26894  1.0000
  H   H3282     1.0  0.68127  0.62402  0.28763  1.0000
  C   C2734     1.0  0.82406  0.35141  0.34149  1.0000
  H   H3283     1.0  0.84753  0.43801  0.43197  1.0000
  Fe  Fe369     1.0  0.78768  0.33343  0.46880  1.0000
  C   C2735     1.0  0.60111  0.35667  0.44069  1.0000
  C   C2736     1.0  0.87793  0.32358  0.36450  1.0000
  C   C2737     1.0  0.86618  0.33123  0.46721  1.0000
  H   H3284     1.0  0.74312  0.33489  0.35074  1.0000
  C   C2738     1.0  0.68238  0.32811  0.33803  1.0000
  C   C2739     1.0  0.90122  0.31847  0.43050  1.0000
  S   S731      1.0  0.65627  0.62329  0.23771  1.0000
  H   H3285     1.0  0.63973  0.40941  0.42180  1.0000
  S   S732      1.0  0.72780  0.32142  0.26448  1.0000
  H   H3286     1.0  0.71254  0.60096  0.31719  1.0000
  H   H3287     1.0  0.83674  0.34129  0.33958  1.0000
  S   S733      1.0  0.81739  0.32816  0.46630  1.0000
  C   C2740     1.0  0.51411  0.64241  0.31130  1.0000
  H   H3288     1.0  0.65712  0.47692  0.35059  1.0000
  H   H3289     1.0  0.75771  0.33747  0.36342  1.0000
  C   C2741     1.0  0.63306  0.58396  0.22973  1.0000
  C   C2742     1.0  0.88686  0.45793  0.46796  1.0000
  H   H3290     1.0  0.87767  0.40953  0.46233  1.0000
  C   C2743     1.0  0.71333  0.32345  0.32246  1.0000
  H   H3291     1.0  0.93546  0.36110  0.47549  1.0000
  C   C2744     1.0  0.69996  0.32992  0.33608  1.0000
  C   C2745     1.0  0.49955  0.60817  0.29518  1.0000
  C   C2746     1.0  0.87235  0.41818  0.45059  1.0000
  C   C2747     1.0  0.66029  0.35566  0.25815  1.0000
  N   N183      1.0  0.85773  0.43318  0.45586  1.0000
  H   H3292     1.0  0.73057  0.60854  0.28518  1.0000
  H   H3293     1.0  0.95073  0.33396  0.46313  1.0000
  H   H3294     1.0  0.67206  0.33264  0.34876  1.0000
  H   H3295     1.0  0.72261  0.32053  0.37865  1.0000
  C   C2748     1.0  0.63692  0.44990  0.23421  1.0000
  C   C2749     1.0  0.98565  0.38681  0.39023  1.0000
  C   C2750     1.0  0.64828  0.32701  0.25409  1.0000
  H   H3296     1.0  0.81253  0.34501  0.23833  1.0000
  S   S734      1.0  0.95536  0.32605  0.42877  1.0000
  C   C2751     1.0  0.71305  0.63634  0.31885  1.0000
  C   C2752     1.0  0.87103  0.32238  0.35034  1.0000
  H   H3297     1.0  0.76438  0.37521  0.23503  1.0000
  H   H3298     1.0  0.63418  0.58632  0.24256  1.0000
  C   C2753     1.0  0.68735  0.58062  0.23099  1.0000
  C   C2754     1.0  0.80225  0.34353  0.25028  1.0000
  H   H3299     1.0  0.91371  0.32251  0.43043  1.0000
  C   C2755     1.0  0.78407  0.34476  0.24983  1.0000
  N   N184      1.0  0.98376  0.37773  0.40929  1.0000
  C   C2756     1.0  0.80777  0.33996  0.26648  1.0000
  H   H3300     1.0  0.82174  0.33872  0.26659  1.0000
  C   C2757     1.0  0.67057  0.57638  0.23417  1.0000
  H   H3301     1.0  0.90263  0.31647  0.41676  1.0000
  C   C2758     1.0  0.54201  0.64854  0.29220  1.0000
  H   H3302     1.0  0.81227  0.36948  0.47683  1.0000
  H   H3303     1.0  0.85976  0.31607  0.35307  1.0000
  N   N185      1.0  0.56673  0.33562  0.48948  1.0000
  C   C2759     1.0  0.95136  0.53723  0.61091  1.0000
  S   S735      1.0  0.82672  0.35240  0.66979  1.0000
  H   H3304     1.0  0.56849  0.32479  0.51707  1.0000
  C   C2760     1.0  0.80320  0.60382  0.70323  1.0000
  S   S736      1.0  0.97807  0.63850  0.58086  1.0000
  H   H3305     1.0  0.86937  0.38211  0.48045  1.0000
  H   H3306     1.0  0.90521  0.51205  0.68987  1.0000
  H   H3307     1.0  0.77774  0.63882  0.67976  1.0000
  Fe  Fe370     1.0  0.90580  0.37327  0.52771  1.0000
  S   S737      1.0  0.88039  0.39176  0.53731  1.0000
  S   S738      1.0  0.91505  0.35156  0.54993  1.0000
  Fe  Fe371     1.0  0.89382  0.41337  0.51897  1.0000
  S   S739      1.0  0.88983  0.43972  0.52733  1.0000
  Fe  Fe372     1.0  0.87188  0.38866  0.51361  1.0000
  S   S740      1.0  0.92000  0.39508  0.51061  1.0000
  S   S741      1.0  0.89631  0.36856  0.50528  1.0000
  H   H3308     1.0  0.87089  0.56983  0.62027  1.0000
  H   H3309     1.0  0.85521  0.34097  0.55777  1.0000
  H   H3310     1.0  0.66516  0.32649  0.57557  1.0000
  C   C2761     1.0  0.93706  0.52894  0.61378  1.0000
  H   H3311     1.0  0.98620  0.43472  0.64888  1.0000
  C   C2762     1.0  0.84274  0.37924  0.49456  1.0000
  H   H3312     1.0  0.86609  0.50657  0.69276  1.0000
  C   C2763     1.0  0.86012  0.45735  0.49100  1.0000
  C   C2764     1.0  0.79712  0.32923  0.58949  1.0000
  S   S742      1.0  0.92401  0.59671  0.64934  1.0000
  S   S743      1.0  0.90517  0.62121  0.56737  1.0000
  S   S744      1.0  0.94038  0.61152  0.59882  1.0000
  Fe  Fe373     1.0  0.93461  0.52217  0.56346  1.0000
  S   S745      1.0  0.95952  0.52791  0.56727  1.0000
  S   S746      1.0  0.90774  0.54058  0.56850  1.0000
  Fe  Fe374     1.0  0.95286  0.48600  0.55413  1.0000
  C   C2765     1.0  0.80427  0.32145  0.56018  1.0000
  S   S747      1.0  0.95388  0.45915  0.54819  1.0000
  Fe  Fe375     1.0  0.96397  0.49933  0.58169  1.0000
  H   H3313     1.0  0.85044  0.37733  0.72215  1.0000
  Fe  Fe376     1.0  0.97274  0.51708  0.54253  1.0000
  H   H3314     1.0  0.86785  0.32870  0.72381  1.0000
  S   S748      1.0  0.93800  0.49425  0.57994  1.0000
  S   S749      1.0  0.94732  0.51363  0.53722  1.0000
  H   H3315     1.0  0.54710  0.32644  0.56241  1.0000
  H   H3316     1.0  0.86919  0.51647  0.71887  1.0000
  S   S750      1.0  0.81537  0.32953  0.63605  1.0000
  H   H3317     1.0  0.55282  0.32181  0.47898  1.0000
  C   C2766     1.0  0.87069  0.49678  0.70384  1.0000
  C   C2767     1.0  0.66787  0.32057  0.56399  1.0000
  Fe  Fe377     1.0  0.89211  0.41143  0.66645  1.0000
  S   S751      1.0  0.91576  0.39622  0.67847  1.0000
  S   S752      1.0  0.88604  0.39880  0.64690  1.0000
  Fe  Fe378     1.0  0.88818  0.44367  0.68235  1.0000
  S   S753      1.0  0.91179  0.43128  0.69517  1.0000
  S   S754      1.0  0.87406  0.47200  0.68401  1.0000
  Fe  Fe379     1.0  0.92501  0.42211  0.66960  1.0000
  S   S755      1.0  0.95415  0.42152  0.65811  1.0000
  Fe  Fe380     1.0  0.90036  0.40661  0.70293  1.0000
  S   S756      1.0  0.90253  0.43676  0.65579  1.0000
  S   S757      1.0  0.87551  0.41961  0.69185  1.0000
  C   C2768     1.0  0.53296  0.32995  0.56231  1.0000
  C   C2769     1.0  0.94680  0.52767  0.65770  1.0000
  C   C2770     1.0  0.89166  0.56075  0.64604  1.0000
  C   C2771     1.0  0.87510  0.47859  0.70325  1.0000
  C   C2772     1.0  0.96326  0.58412  0.54465  1.0000
  N   N186      1.0  0.87281  0.35480  0.72196  1.0000
  Fe  Fe381     1.0  0.91715  0.62797  0.58688  1.0000
  C   C2773     1.0  0.87199  0.59840  0.67508  1.0000
  H   H3318     1.0  0.81047  0.62325  0.60069  1.0000
  H   H3319     1.0  0.80943  0.62371  0.67956  1.0000
  C   C2774     1.0  0.96948  0.47176  0.62031  1.0000
  C   C2775     1.0  0.97971  0.57310  0.53951  1.0000
  H   H3320     1.0  0.64087  0.32935  0.55997  1.0000
  C   C2776     1.0  0.95974  0.44085  0.64340  1.0000
  C   C2777     1.0  0.94750  0.45308  0.63387  1.0000
  C   C2778     1.0  0.95246  0.46846  0.62216  1.0000
  C   C2779     1.0  0.86185  0.34312  0.71990  1.0000
  H   H3321     1.0  0.95820  0.53238  0.64850  1.0000
  H   H3322     1.0  0.93430  0.45069  0.63543  1.0000
  H   H3323     1.0  0.94294  0.47794  0.61497  1.0000
  C   C2780     1.0  0.90439  0.59367  0.66558  1.0000
  C   C2781     1.0  0.87360  0.58605  0.69118  1.0000
  C   C2782     1.0  0.89064  0.57764  0.69446  1.0000
  C   C2783     1.0  0.90596  0.58140  0.68169  1.0000
  H   H3324     1.0  0.89207  0.56820  0.70682  1.0000
  H   H3325     1.0  0.91909  0.57481  0.68437  1.0000
  C   C2784     1.0  0.90671  0.59863  0.56769  1.0000
  C   C2785     1.0  0.92027  0.58513  0.57417  1.0000
  C   C2786     1.0  0.92111  0.56723  0.57393  1.0000
  C   C2787     1.0  0.90812  0.56283  0.56765  1.0000
  C   C2788     1.0  0.89441  0.57634  0.56157  1.0000
  C   C2789     1.0  0.89389  0.59419  0.56129  1.0000
  H   H3326     1.0  0.93015  0.58842  0.57928  1.0000
  H   H3327     1.0  0.93150  0.55683  0.57902  1.0000
  H   H3328     1.0  0.88431  0.57297  0.55679  1.0000
  H   H3329     1.0  0.88343  0.60455  0.55618  1.0000
  H   H3330     1.0  0.90056  0.56450  0.65266  1.0000
  H   H3331     1.0  0.92693  0.42135  0.52736  1.0000
  H   H3332     1.0  0.87227  0.38306  0.71564  1.0000
  H   H3333     1.0  0.85253  0.46023  0.50382  1.0000
  S   S758      1.0  0.85413  0.58109  0.70671  1.0000
  H   H3334     1.0  0.95933  0.56103  0.61135  1.0000
  C   C2790     1.0  0.92470  0.43383  0.53153  1.0000
  H   H3335     1.0  0.80995  0.33303  0.58852  1.0000
  H   H3336     1.0  0.93150  0.44053  0.57892  1.0000
  H   H3337     1.0  0.89735  0.33635  0.71361  1.0000
  H   H3338     1.0  0.94815  0.42069  0.58357  1.0000
  H   H3339     1.0  0.54269  0.35331  0.48270  1.0000
  S   S759      1.0  0.84616  0.32170  0.59318  1.0000
  C   C2791     1.0  0.90790  0.44533  0.53247  1.0000
  N   N187      1.0  0.89705  0.56578  0.62638  1.0000
  C   C2792     1.0  0.93610  0.45454  0.54164  1.0000
  C   C2793     1.0  0.91932  0.46611  0.54254  1.0000
  C   C2794     1.0  0.90526  0.46148  0.53801  1.0000
  H   H3340     1.0  0.91715  0.47857  0.54678  1.0000
  H   H3341     1.0  0.89230  0.47046  0.53877  1.0000
  C   C2795     1.0  0.88102  0.46601  0.71764  1.0000
  Fe  Fe382     1.0  0.83072  0.32938  0.65630  1.0000
  C   C2796     1.0  0.88444  0.56107  0.61815  1.0000
  C   C2797     1.0  0.91287  0.41547  0.57838  1.0000
  H   H3342     1.0  0.92922  0.57715  0.62068  1.0000
  H   H3343     1.0  0.50335  0.39096  0.62315  1.0000
  C   C2798     1.0  0.78106  0.62724  0.69007  1.0000
  C   C2799     1.0  0.89634  0.33178  0.57931  1.0000
  C   C2800     1.0  0.89665  0.34194  0.56191  1.0000
  C   C2801     1.0  0.88178  0.34509  0.55426  1.0000
  H   H3344     1.0  0.81750  0.33974  0.50860  1.0000
  C   C2802     1.0  0.91608  0.39176  0.60440  1.0000
  H   H3345     1.0  0.95107  0.58135  0.54310  1.0000
  H   H3346     1.0  0.88190  0.35272  0.54085  1.0000
  H   H3347     1.0  0.86468  0.62702  0.57657  1.0000
  C   C2803     1.0  0.84414  0.36409  0.66490  1.0000
  C   C2804     1.0  0.86029  0.35908  0.65326  1.0000
  C   C2805     1.0  0.87337  0.36947  0.64836  1.0000
  C   C2806     1.0  0.87049  0.38481  0.65524  1.0000
  C   C2807     1.0  0.85465  0.38951  0.66741  1.0000
  C   C2808     1.0  0.84148  0.37916  0.67221  1.0000
  H   H3348     1.0  0.86257  0.34745  0.64768  1.0000
  H   H3349     1.0  0.88569  0.36575  0.63903  1.0000
  H   H3350     1.0  0.85223  0.40150  0.67256  1.0000
  H   H3351     1.0  0.82898  0.38315  0.68118  1.0000
  H   H3352     1.0  0.90437  0.40894  0.55749  1.0000
  H   H3353     1.0  0.86398  0.37570  0.70054  1.0000
  H   H3354     1.0  0.81572  0.37527  0.50497  1.0000
  H   H3355     1.0  0.90728  0.54324  0.68375  1.0000
  C   C2809     1.0  0.90769  0.43553  0.60857  1.0000
  H   H3356     1.0  0.85158  0.33203  0.49417  1.0000
  C   C2810     1.0  0.57645  0.33105  0.50428  1.0000
  C   C2811     1.0  0.52605  0.32188  0.55259  1.0000
  C   C2812     1.0  0.80128  0.32392  0.52950  1.0000
  H   H3357     1.0  0.81724  0.59772  0.70260  1.0000
  C   C2813     1.0  0.86606  0.32862  0.58138  1.0000
  N   N188      1.0  0.92341  0.42164  0.60318  1.0000
  H   H3358     1.0  0.50222  0.32038  0.54510  1.0000
  H   H3359     1.0  0.90043  0.58994  0.60682  1.0000
  C   C2814     1.0  0.97677  0.44413  0.64142  1.0000
  S   S760      1.0  0.88250  0.41220  0.49623  1.0000
  H   H3360     1.0  0.57955  0.34286  0.50699  1.0000
  C   C2815     1.0  0.91812  0.53383  0.67744  1.0000
  C   C2816     1.0  0.93290  0.53976  0.66577  1.0000
  H   H3361     1.0  0.98020  0.56177  0.53396  1.0000
  C   C2817     1.0  0.83824  0.62340  0.58904  1.0000
  C   C2818     1.0  0.56118  0.31920  0.48907  1.0000
  C   C2819     1.0  0.87685  0.46180  0.48427  1.0000
  H   H3362     1.0  0.94268  0.40120  0.61608  1.0000
  C   C2820     1.0  0.88734  0.60231  0.66237  1.0000
  H   H3363     1.0  0.78760  0.34142  0.58440  1.0000
  H   H3364     1.0  0.52694  0.34914  0.57917  1.0000
  S   S761      1.0  0.77164  0.33051  0.49690  1.0000
  H   H3365     1.0  0.91294  0.42900  0.57099  1.0000
  C   C2821     1.0  0.97818  0.60218  0.55394  1.0000
  H   H3366     1.0  0.79486  0.32099  0.52039  1.0000
  C   C2822     1.0  0.81414  0.33443  0.52283  1.0000
  C   C2823     1.0  0.90705  0.38665  0.57948  1.0000
  H   H3367     1.0  0.91143  0.44520  0.61423  1.0000
  H   H3368     1.0  0.88595  0.61194  0.65009  1.0000
  H   H3369     1.0  0.89723  0.42942  0.61893  1.0000
  H   H3370     1.0  0.88946  0.56231  0.60346  1.0000
  C   C2824     1.0  0.85351  0.44851  0.48172  1.0000
  H   H3371     1.0  0.89248  0.54610  0.65067  1.0000
  C   C2825     1.0  0.91098  0.38053  0.59644  1.0000
  C   C2826     1.0  0.90780  0.40413  0.57056  1.0000
  H   H3372     1.0  0.88084  0.59264  0.62425  1.0000
  S   S762      1.0  0.89947  0.63331  0.61287  1.0000
  C   C2827     1.0  0.88097  0.32519  0.58912  1.0000
  C   C2828     1.0  0.82473  0.37224  0.47757  1.0000
  H   H3373     1.0  0.89068  0.35425  0.69622  1.0000
  H   H3374     1.0  0.91863  0.38625  0.61768  1.0000
  C   C2829     1.0  0.93126  0.41238  0.61913  1.0000
  C   C2830     1.0  0.85077  0.63377  0.57923  1.0000
  C   C2831     1.0  0.77172  0.60603  0.71693  1.0000
  H   H3375     1.0  0.92118  0.40702  0.63057  1.0000
  H   H3376     1.0  0.58303  0.36415  0.48235  1.0000
  H   H3377     1.0  0.93356  0.55377  0.66288  1.0000
  H   H3378     1.0  0.93963  0.51534  0.61190  1.0000
  C   C2832     1.0  0.52151  0.34279  0.57183  1.0000
  C   C2833     1.0  0.50308  0.34735  0.57195  1.0000
  H   H3379     1.0  0.90193  0.59062  0.62890  1.0000
  H   H3380     1.0  0.68388  0.31823  0.49975  1.0000
  C   C2834     1.0  0.89098  0.35077  0.71071  1.0000
  H   H3381     1.0  0.94965  0.60727  0.55578  1.0000
  C   C2835     1.0  0.87238  0.50240  0.71864  1.0000
  H   H3382     1.0  0.82532  0.33421  0.56123  1.0000
  H   H3383     1.0  0.87654  0.33763  0.50391  1.0000
  S   S763      1.0  0.84468  0.38408  0.51437  1.0000
  H   H3384     1.0  0.87772  0.56764  0.65105  1.0000
  H   H3385     1.0  0.88220  0.54727  0.62389  1.0000
  H   H3386     1.0  0.84063  0.44514  0.48795  1.0000
  C   C2836     1.0  0.50767  0.32653  0.55263  1.0000
  C   C2837     1.0  0.91949  0.53813  0.61880  1.0000
  H   H3387     1.0  0.90903  0.53092  0.62088  1.0000
  C   C2838     1.0  0.93067  0.56391  0.61855  1.0000
  C   C2839     1.0  0.93713  0.43057  0.58984  1.0000
  C   C2840     1.0  0.86448  0.37355  0.71486  1.0000
  C   C2841     1.0  0.86421  0.33282  0.48484  1.0000
  C   C2842     1.0  0.82671  0.37549  0.49350  1.0000
  H   H3388     1.0  0.90786  0.32924  0.58525  1.0000
  H   H3389     1.0  0.98647  0.43485  0.60125  1.0000
  Fe  Fe383     1.0  0.94915  0.63750  0.59386  1.0000
  H   H3390     1.0  0.66079  0.31683  0.50494  1.0000
  H   H3391     1.0  0.91020  0.36695  0.60340  1.0000
  H   H3392     1.0  0.85884  0.60506  0.67252  1.0000
  H   H3393     1.0  0.95159  0.42929  0.53559  1.0000
  Fe  Fe384     1.0  0.92354  0.61877  0.62457  1.0000
  H   H3394     1.0  0.90337  0.37785  0.57320  1.0000
  C   C2843     1.0  0.91569  0.55615  0.62084  1.0000
  H   H3395     1.0  0.93641  0.42155  0.62419  1.0000
  C   C2844     1.0  0.93869  0.43837  0.53621  1.0000
  C   C2845     1.0  0.98150  0.45973  0.63018  1.0000
  H   H3396     1.0  0.90146  0.44337  0.59709  1.0000
  C   C2846     1.0  0.89506  0.58553  0.62129  1.0000
  N   N189      1.0  0.84933  0.37870  0.60024  1.0000
  C   C2847     1.0  0.84192  0.37372  0.58722  1.0000
  C   C2848     1.0  0.86506  0.36448  0.60401  1.0000
  C   C2849     1.0  0.83538  0.37896  0.61691  1.0000
  C   C2850     1.0  0.85483  0.39616  0.59379  1.0000
  C   C2851     1.0  0.86148  0.40310  0.60503  1.0000
  C   C2852     1.0  0.85422  0.40654  0.57630  1.0000
  C   C2853     1.0  0.86706  0.41938  0.59918  1.0000
  C   C2854     1.0  0.86007  0.42271  0.57050  1.0000
  C   C2855     1.0  0.86644  0.42914  0.58190  1.0000
  H   H3397     1.0  0.85206  0.37221  0.57468  1.0000
  H   H3398     1.0  0.83778  0.36061  0.59258  1.0000
  H   H3399     1.0  0.82988  0.38376  0.58383  1.0000
  H   H3400     1.0  0.87571  0.36368  0.59171  1.0000
  H   H3401     1.0  0.86143  0.35113  0.60919  1.0000
  H   H3402     1.0  0.87111  0.36677  0.61415  1.0000
  H   H3403     1.0  0.82351  0.38983  0.61476  1.0000
  H   H3404     1.0  0.83074  0.36609  0.62199  1.0000
  H   H3405     1.0  0.84026  0.38105  0.62800  1.0000
  H   H3406     1.0  0.86260  0.39592  0.61842  1.0000
  H   H3407     1.0  0.84949  0.40240  0.56671  1.0000
  H   H3408     1.0  0.87210  0.42426  0.60809  1.0000
  H   H3409     1.0  0.85989  0.43022  0.55695  1.0000
  H   H3410     1.0  0.87112  0.44158  0.57719  1.0000
  N   N190      1.0  0.93015  0.48396  0.67762  1.0000
  C   C2856     1.0  0.94734  0.47189  0.67169  1.0000
  C   C2857     1.0  0.92441  0.47753  0.69716  1.0000
  C   C2858     1.0  0.91679  0.48219  0.66846  1.0000
  C   C2859     1.0  0.93141  0.50300  0.67353  1.0000
  C   C2860     1.0  0.94612  0.50957  0.66135  1.0000
  C   C2861     1.0  0.91721  0.51581  0.68109  1.0000
  S   S764      1.0  0.97589  0.49101  0.60614  1.0000
  H   H3411     1.0  0.97681  0.61345  0.55986  1.0000
  H   H3412     1.0  0.86040  0.34545  0.70580  1.0000
  H   H3413     1.0  0.95817  0.47311  0.67761  1.0000
  H   H3414     1.0  0.94619  0.45757  0.67559  1.0000
  H   H3415     1.0  0.95169  0.47458  0.65693  1.0000
  H   H3416     1.0  0.93326  0.48008  0.70468  1.0000
  H   H3417     1.0  0.92454  0.46294  0.70068  1.0000
  H   H3418     1.0  0.91047  0.48393  0.70250  1.0000
  H   H3419     1.0  0.92085  0.48637  0.65371  1.0000
  H   H3420     1.0  0.91498  0.46816  0.67141  1.0000
  H   H3421     1.0  0.90338  0.49053  0.67268  1.0000
  H   H3422     1.0  0.95726  0.50104  0.65441  1.0000
  C   C2862     1.0  0.49580  0.38062  0.62393  1.0000
  S   S765      1.0  0.97930  0.48895  0.55729  1.0000
  H   H3423     1.0  0.81820  0.56805  0.71457  1.0000
  C   C2863     1.0  0.87823  0.33605  0.49034  1.0000
  H   H3424     1.0  0.88406  0.45193  0.71752  1.0000
  H   H3425     1.0  0.92998  0.40502  0.71888  1.0000
  C   C2864     1.0  0.94818  0.55464  0.61339  1.0000
  H   H3426     1.0  0.94317  0.43827  0.59581  1.0000
  H   H3427     1.0  0.58940  0.32159  0.50119  1.0000
  H   H3428     1.0  0.83273  0.34617  0.52922  1.0000
  H   H3429     1.0  0.77115  0.31858  0.58035  1.0000
  C   C2865     1.0  0.96250  0.59867  0.55181  1.0000
  C   C2866     1.0  0.91767  0.40949  0.59534  1.0000
  H   H3430     1.0  0.96494  0.53008  0.60681  1.0000
  C   C2867     1.0  0.82260  0.33808  0.53446  1.0000
  C   C2868     1.0  0.65422  0.32208  0.55525  1.0000
  C   C2869     1.0  0.86663  0.33833  0.56388  1.0000
  H   H3431     1.0  0.79729  0.56311  0.71435  1.0000
  Fe  Fe385     1.0  0.90763  0.39230  0.48905  1.0000
  H   H3432     1.0  0.54115  0.34404  0.50622  1.0000
  C   C2870     1.0  0.55025  0.34923  0.49365  1.0000
  S   S766      1.0  0.93428  0.64351  0.62064  1.0000
  C   C2871     1.0  0.49619  0.33905  0.56243  1.0000
  C   C2872     1.0  0.78978  0.59702  0.71717  1.0000
  H   H3433     1.0  0.75367  0.62758  0.70356  1.0000
  H   H3434     1.0  0.79200  0.32498  0.60410  1.0000
  H   H3435     1.0  0.50103  0.36833  0.63315  1.0000
  C   C2873     1.0  0.79886  0.61872  0.68994  1.0000
  H   H3436     1.0  0.89994  0.35852  0.71279  1.0000
  H   H3437     1.0  0.84261  0.60911  0.59345  1.0000
  C   C2874     1.0  0.82017  0.63134  0.59311  1.0000
  C   C2875     1.0  0.76752  0.62089  0.70351  1.0000
  H   H3438     1.0  0.55323  0.36147  0.49561  1.0000
  C   C2876     1.0  0.81797  0.33147  0.55284  1.0000
  H   H3439     1.0  0.49927  0.37706  0.61053  1.0000
  H   H3440     1.0  0.88219  0.46801  0.49189  1.0000
  C   C2877     1.0  0.80493  0.56591  0.72293  1.0000
  H   H3441     1.0  0.87716  0.64174  0.55013  1.0000
  C   C2878     1.0  0.85684  0.37961  0.47963  1.0000
  H   H3442     1.0  0.84510  0.41693  0.47970  1.0000
  H   H3443     1.0  0.98016  0.43002  0.57396  1.0000
  H   H3444     1.0  0.90519  0.34032  0.48246  1.0000
  H   H3445     1.0  0.79894  0.32172  0.71202  1.0000
  C   C2879     1.0  0.89430  0.33767  0.47824  1.0000
  H   H3446     1.0  0.87792  0.64869  0.57933  1.0000
  H   H3447     1.0  0.64452  0.33634  0.47755  1.0000
  H   H3448     1.0  0.88067  0.31749  0.60259  1.0000
  C   C2880     1.0  0.79638  0.31743  0.54787  1.0000
  C   C2881     1.0  0.62906  0.31607  0.48291  1.0000
  H   H3449     1.0  0.76060  0.60189  0.72698  1.0000
  H   H3450     1.0  0.51685  0.57347  0.81970  1.0000
  C   C2882     1.0  0.97469  0.43953  0.86219  1.0000
  S   S767      1.0  0.51597  0.53263  0.79659  1.0000
  H   H3451     1.0  0.65352  0.52514  0.93880  1.0000
  H   H3452     1.0  0.98739  0.36279  0.86327  1.0000
  H   H3453     1.0  0.94817  0.46888  0.87144  1.0000
  H   H3454     1.0  0.93577  0.36034  0.74103  1.0000
  H   H3455     1.0  0.87774  0.57097  0.92713  1.0000
  Fe  Fe386     1.0  0.57734  0.54550  0.89941  1.0000
  S   S768      1.0  0.58269  0.53395  0.87500  1.0000
  S   S769      1.0  0.58163  0.52622  0.92517  1.0000
  Fe  Fe387     1.0  0.56735  0.58362  0.87892  1.0000
  S   S770      1.0  0.57159  0.57503  0.85315  1.0000
  S   S771      1.0  0.56140  0.61326  0.87681  1.0000
  Fe  Fe388     1.0  0.55729  0.55318  0.86939  1.0000
  S   S772      1.0  0.53243  0.54697  0.86519  1.0000
  Fe  Fe389     1.0  0.59647  0.55695  0.86131  1.0000
  S   S773      1.0  0.62272  0.55678  0.84130  1.0000
  S   S774      1.0  0.55112  0.56331  0.89484  1.0000
  S   S775      1.0  0.59302  0.56698  0.88614  1.0000
  Fe  Fe390     1.0  0.72759  0.61134  0.83338  1.0000
  S   S776      1.0  0.75251  0.61519  0.81221  1.0000
  Fe  Fe391     1.0  0.69986  0.58966  0.85555  1.0000
  C   C2883     1.0  0.95618  0.47589  0.85920  1.0000
  S   S777      1.0  0.68946  0.56434  0.86674  1.0000
  Fe  Fe392     1.0  0.70940  0.61605  0.87109  1.0000
  H   H3456     1.0  0.97120  0.44521  0.87396  1.0000
  S   S778      1.0  0.70311  0.60633  0.82776  1.0000
  S   S779      1.0  0.72593  0.59226  0.86002  1.0000
  H   H3457     1.0  0.55526  0.59339  0.79594  1.0000
  H   H3458     1.0  0.76880  0.55278  0.80491  1.0000
  Fe  Fe393     1.0  0.83268  0.54881  0.76822  1.0000
  S   S780      1.0  0.84441  0.57324  0.75874  1.0000
  S   S781      1.0  0.80425  0.54807  0.78340  1.0000
  Fe  Fe394     1.0  0.86818  0.55577  0.76937  1.0000
  S   S782      1.0  0.87649  0.56743  0.78814  1.0000
  S   S783      1.0  0.85566  0.53184  0.78045  1.0000
  Fe  Fe395     1.0  0.91598  0.51704  0.86730  1.0000
  S   S784      1.0  0.89879  0.49701  0.87351  1.0000
  S   S785      1.0  0.92951  0.52147  0.83828  1.0000
  Fe  Fe396     1.0  0.90795  0.52143  0.90628  1.0000
  S   S786      1.0  0.89056  0.50098  0.91530  1.0000
  S   S787      1.0  0.90552  0.53746  0.92719  1.0000
  Fe  Fe397     1.0  0.91175  0.48507  0.89704  1.0000
  S   S788      1.0  0.92457  0.45568  0.90207  1.0000
  Fe  Fe398     1.0  0.87946  0.51483  0.89079  1.0000
  S   S789      1.0  0.85039  0.52507  0.88970  1.0000
  S   S790      1.0  0.93026  0.50428  0.89004  1.0000
  S   S791      1.0  0.89555  0.53609  0.88263  1.0000
  S   S792      1.0  0.80464  0.51806  0.96830  1.0000
  C   C2884     1.0  0.62302  0.64231  0.81989  1.0000
  H   H3459     1.0  0.81022  0.57431  0.75159  1.0000
  Fe  Fe399     1.0  0.93272  0.39115  0.83957  1.0000
  S   S793      1.0  0.95412  0.40368  0.81972  1.0000
  S   S794      1.0  0.91042  0.40984  0.85412  1.0000
  Fe  Fe400     1.0  0.94539  0.35601  0.82638  1.0000
  S   S795      1.0  0.96733  0.36650  0.80530  1.0000
  H   H3460     1.0  0.86132  0.37827  0.74616  1.0000
  Fe  Fe401     1.0  0.97237  0.37717  0.82665  1.0000
  H   H3461     1.0  0.62435  0.54130  0.93328  1.0000
  Fe  Fe402     1.0  0.94711  0.39178  0.80045  1.0000
  S   S796      1.0  0.94600  0.40835  0.77300  1.0000
  S   S797      1.0  0.95159  0.36525  0.84838  1.0000
  S   S798      1.0  0.92456  0.38063  0.81966  1.0000
  C   C2885     1.0  0.61107  0.63291  0.83344  1.0000
  H   H3462     1.0  0.82255  0.57873  0.91322  1.0000
  H   H3463     1.0  0.49367  0.42389  0.88385  1.0000
  H   H3464     1.0  0.52114  0.57098  0.75853  1.0000
  S   S799      1.0  0.80622  0.56660  0.96084  1.0000
  C   C2886     1.0  0.86728  0.36467  0.75152  1.0000
  H   H3465     1.0  0.62433  0.51279  0.87006  1.0000
  H   H3466     1.0  0.86385  0.58728  0.88134  1.0000
  Fe  Fe403     1.0  0.78190  0.58363  0.95100  1.0000
  S   S800      1.0  0.78495  0.59811  0.92228  1.0000
  C   C2887     1.0  0.65229  0.51301  0.86504  1.0000
  S   S801      1.0  0.76648  0.56177  0.95987  1.0000
  H   H3467     1.0  0.53555  0.59712  0.84382  1.0000
  C   C2888     1.0  0.59244  0.52495  0.95555  1.0000
  H   H3468     1.0  0.59541  0.62479  0.86857  1.0000
  S   S802      1.0  0.71034  0.61882  0.89841  1.0000
  C   C2889     1.0  0.91186  0.33081  0.82404  1.0000
  N   N191      1.0  0.95864  0.46760  0.84370  1.0000
  H   H3469     1.0  0.90901  0.34287  0.82920  1.0000
  C   C2890     1.0  0.93265  0.40293  0.76151  1.0000
  C   C2891     1.0  0.91841  0.39444  0.77060  1.0000
  C   C2892     1.0  0.90796  0.39028  0.76098  1.0000
  H   H3470     1.0  0.54416  0.32125  0.90785  1.0000
  Fe  Fe404     1.0  0.78995  0.54561  0.97172  1.0000
  H   H3471     1.0  0.64238  0.49343  0.93103  1.0000
  H   H3472     1.0  0.91529  0.39129  0.78500  1.0000
  H   H3473     1.0  0.89681  0.38393  0.76800  1.0000
  C   C2893     1.0  0.86847  0.36079  0.76949  1.0000
  H   H3474     1.0  0.87034  0.55512  0.91153  1.0000
  H   H3475     1.0  0.54321  0.62444  0.79963  1.0000
  C   C2894     1.0  0.92933  0.32076  0.82118  1.0000
  H   H3476     1.0  0.85664  0.55715  0.89627  1.0000
  C   C2895     1.0  0.92358  0.54159  0.93384  1.0000
  C   C2896     1.0  0.95141  0.54907  0.94534  1.0000
  C   C2897     1.0  0.95531  0.53967  0.93150  1.0000
  C   C2898     1.0  0.94146  0.53585  0.92583  1.0000
  H   H3477     1.0  0.96910  0.53535  0.92512  1.0000
  H   H3478     1.0  0.94462  0.52860  0.91519  1.0000
  C   C2899     1.0  0.92076  0.44306  0.88855  1.0000
  C   C2900     1.0  0.90478  0.44755  0.88243  1.0000
  C   C2901     1.0  0.90181  0.43719  0.87194  1.0000
  C   C2902     1.0  0.91499  0.42261  0.86701  1.0000
  C   C2903     1.0  0.93119  0.41835  0.87275  1.0000
  C   C2904     1.0  0.93389  0.42835  0.88380  1.0000
  H   H3479     1.0  0.89443  0.45862  0.88630  1.0000
  H   H3480     1.0  0.88916  0.44040  0.86776  1.0000
  H   H3481     1.0  0.94140  0.40707  0.86911  1.0000
  H   H3482     1.0  0.94617  0.42465  0.88871  1.0000
  C   C2905     1.0  0.83694  0.52230  0.91120  1.0000
  C   C2906     1.0  0.82218  0.53581  0.91555  1.0000
  C   C2907     1.0  0.81210  0.53441  0.93305  1.0000
  C   C2908     1.0  0.81639  0.51923  0.94611  1.0000
  C   C2909     1.0  0.83074  0.50540  0.94159  1.0000
  C   C2910     1.0  0.84121  0.50708  0.92421  1.0000
  H   H3483     1.0  0.81886  0.54761  0.90554  1.0000
  H   H3484     1.0  0.80093  0.54506  0.93638  1.0000
  H   H3485     1.0  0.83395  0.49352  0.95158  1.0000
  H   H3486     1.0  0.85241  0.49646  0.92080  1.0000
  C   C2911     1.0  0.89037  0.55298  0.80220  1.0000
  C   C2912     1.0  0.88643  0.55408  0.82020  1.0000
  C   C2913     1.0  0.89811  0.54389  0.83144  1.0000
  C   C2914     1.0  0.91411  0.53303  0.82458  1.0000
  C   C2915     1.0  0.91795  0.53169  0.80662  1.0000
  C   C2916     1.0  0.90596  0.54149  0.79547  1.0000
  H   H3487     1.0  0.87453  0.56313  0.82538  1.0000
  H   H3488     1.0  0.89509  0.54508  0.84520  1.0000
  H   H3489     1.0  0.93031  0.52330  0.80126  1.0000
  H   H3490     1.0  0.90917  0.54081  0.78150  1.0000
  H   H3491     1.0  0.95387  0.34811  0.78188  1.0000
  C   C2917     1.0  0.93353  0.55465  0.95343  1.0000
  H   H3492     1.0  0.58757  0.57625  0.94729  1.0000
  Fe  Fe405     1.0  0.86784  0.52506  0.75345  1.0000
  H   H3493     1.0  0.51896  0.62725  0.78876  1.0000
  C   C2918     1.0  0.76681  0.59637  0.80450  1.0000
  C   C2919     1.0  0.78388  0.59785  0.79406  1.0000
  C   C2920     1.0  0.79557  0.58309  0.78770  1.0000
  C   C2921     1.0  0.79015  0.56682  0.79146  1.0000
  C   C2922     1.0  0.77307  0.56535  0.80187  1.0000
  C   C2923     1.0  0.76147  0.58004  0.80848  1.0000
  H   H3494     1.0  0.78815  0.61041  0.79108  1.0000
  H   H3495     1.0  0.80877  0.58435  0.77998  1.0000
  C   C2924     1.0  0.73130  0.61293  0.90460  1.0000
  C   C2925     1.0  0.73182  0.60952  0.92274  1.0000
  C   C2926     1.0  0.74827  0.60466  0.92819  1.0000
  C   C2927     1.0  0.76431  0.60377  0.91547  1.0000
  C   C2928     1.0  0.76383  0.60745  0.89729  1.0000
  C   C2929     1.0  0.74734  0.61176  0.89186  1.0000
  H   H3496     1.0  0.71947  0.61066  0.93264  1.0000
  H   H3497     1.0  0.74850  0.60199  0.94223  1.0000
  H   H3498     1.0  0.87088  0.49892  0.95733  1.0000
  H   H3499     1.0  0.74703  0.61457  0.87783  1.0000
  C   C2930     1.0  0.64073  0.56018  0.84843  1.0000
  C   C2931     1.0  0.64064  0.55760  0.86659  1.0000
  C   C2932     1.0  0.65545  0.55952  0.87203  1.0000
  C   C2933     1.0  0.67032  0.56430  0.85940  1.0000
  C   C2934     1.0  0.67016  0.56772  0.84121  1.0000
  C   C2935     1.0  0.65546  0.56547  0.83575  1.0000
  H   H3500     1.0  0.62957  0.55322  0.87645  1.0000
  H   H3501     1.0  0.65570  0.55681  0.88602  1.0000
  H   H3502     1.0  0.68168  0.57134  0.83137  1.0000
  H   H3503     1.0  0.65562  0.56755  0.82167  1.0000
  C   C2936     1.0  0.54208  0.62299  0.86804  1.0000
  H   H3504     1.0  0.54905  0.48411  0.95529  1.0000
  C   C2937     1.0  0.52742  0.61466  0.87317  1.0000
  C   C2938     1.0  0.55010  0.58944  0.81055  1.0000
  H   H3505     1.0  0.52769  0.60235  0.88311  1.0000
  H   H3506     1.0  0.91389  0.35055  0.76653  1.0000
  H   H3507     1.0  0.66753  0.50990  0.92520  1.0000
  S   S803      1.0  0.88112  0.49652  0.75146  1.0000
  H   H3508     1.0  0.94873  0.49000  0.85689  1.0000
  C   C2939     1.0  0.52108  0.53534  0.81599  1.0000
  C   C2940     1.0  0.50825  0.53522  0.83188  1.0000
  C   C2941     1.0  0.51223  0.53831  0.84694  1.0000
  C   C2942     1.0  0.52902  0.54157  0.84628  1.0000
  C   C2943     1.0  0.54204  0.54134  0.83052  1.0000
  C   C2944     1.0  0.53802  0.53836  0.81535  1.0000
  H   H3509     1.0  0.82148  0.60231  0.96076  1.0000
  H   H3510     1.0  0.50221  0.53829  0.85919  1.0000
  H   H3511     1.0  0.55511  0.54360  0.82998  1.0000
  H   H3512     1.0  0.54803  0.53840  0.80309  1.0000
  H   H3513     1.0  0.74835  0.57875  0.81655  1.0000
  C   C2945     1.0  0.58559  0.53598  0.94089  1.0000
  C   C2946     1.0  0.58361  0.55450  0.93805  1.0000
  H   H3514     1.0  0.96923  0.47603  0.86196  1.0000
  H   H3515     1.0  0.85947  0.60401  0.89447  1.0000
  H   H3516     1.0  0.57824  0.56309  0.92680  1.0000
  C   C2947     1.0  0.87844  0.48982  0.73296  1.0000
  H   H3517     1.0  0.84745  0.55276  0.91972  1.0000
  H   H3518     1.0  0.63735  0.63860  0.81872  1.0000
  H   H3519     1.0  0.82770  0.60022  0.90157  1.0000
  H   H3520     1.0  0.64114  0.59965  0.85472  1.0000
  S   S804      1.0  0.88252  0.54773  0.74322  1.0000
  H   H3521     1.0  0.91992  0.42980  0.81026  1.0000
  H   H3522     1.0  0.79951  0.59747  0.74697  1.0000
  Fe  Fe406     1.0  0.68837  0.62938  0.84100  1.0000
  H   H3523     1.0  0.66342  0.53380  0.91633  1.0000
  S   S805      1.0  0.71300  0.63564  0.84490  1.0000
  C   C2948     1.0  0.86327  0.58937  0.89488  1.0000
  H   H3524     1.0  0.92120  0.33767  0.74254  1.0000
  H   H3525     1.0  0.87640  0.57527  0.95685  1.0000
  C   C2949     1.0  0.51201  0.63812  0.85245  1.0000
  C   C2950     1.0  0.63342  0.50673  0.93189  1.0000
  H   H3526     1.0  0.52375  0.62944  0.81696  1.0000
  C   C2951     1.0  0.66302  0.51671  0.88959  1.0000
  H   H3527     1.0  0.86331  0.37113  0.77728  1.0000
  H   H3528     1.0  0.83361  0.58208  0.89029  1.0000
  C   C2952     1.0  0.91972  0.55106  0.94758  1.0000
  C   C2953     1.0  0.93649  0.40708  0.74285  1.0000
  H   H3529     1.0  0.49528  0.57189  0.80352  1.0000
  H   H3530     1.0  0.77621  0.60691  0.88741  1.0000
  C   C2954     1.0  0.63184  0.51578  0.89325  1.0000
  C   C2955     1.0  0.63700  0.61164  0.84450  1.0000
  H   H3531     1.0  0.49808  0.62461  0.77260  1.0000
  C   C2956     1.0  0.55616  0.47816  0.96612  1.0000
  H   H3532     1.0  0.58270  0.63285  0.84360  1.0000
  H   H3533     1.0  0.52688  0.32371  0.94756  1.0000
  H   H3534     1.0  0.61500  0.63355  0.86580  1.0000
  H   H3535     1.0  0.89634  0.52172  0.97306  1.0000
  C   C2957     1.0  0.88320  0.33046  0.76743  1.0000
  N   N192      1.0  0.79483  0.58138  0.73120  1.0000
  C   C2958     1.0  0.98473  0.42203  0.86381  1.0000
  H   H3536     1.0  0.96821  0.47519  0.81512  1.0000
  H   H3537     1.0  0.52614  0.58102  0.83986  1.0000
  H   H3538     1.0  0.50864  0.54524  0.75942  1.0000
  H   H3539     1.0  0.54922  0.45317  0.97016  1.0000
  H   H3540     1.0  0.88743  0.46182  0.74345  1.0000
  C   C2959     1.0  0.51413  0.61496  0.79264  1.0000
  C   C2960     1.0  0.58890  0.56193  0.94962  1.0000
  C   C2961     1.0  0.80642  0.58571  0.74078  1.0000
  C   C2962     1.0  0.50220  0.55862  0.75365  1.0000
  H   H3541     1.0  0.64324  0.62226  0.84567  1.0000
  C   C2963     1.0  0.98952  0.41345  0.84948  1.0000
  H   H3542     1.0  0.59535  0.60412  0.85020  1.0000
  C   C2964     1.0  0.61031  0.62174  0.86503  1.0000
  C   C2965     1.0  0.51971  0.60074  0.80650  1.0000
  H   H3543     1.0  0.71930  0.64268  0.80298  1.0000
  C   C2966     1.0  0.66619  0.51446  0.87201  1.0000
  H   H3544     1.0  0.61821  0.51654  0.90078  1.0000
  H   H3545     1.0  0.54862  0.57535  0.81328  1.0000
  N   N193      1.0  0.90222  0.45029  0.79541  1.0000
  C   C2967     1.0  0.90714  0.43186  0.80584  1.0000
  C   C2968     1.0  0.88501  0.45193  0.79032  1.0000
  C   C2969     1.0  0.91630  0.45235  0.77889  1.0000
  C   C2970     1.0  0.90036  0.46440  0.80533  1.0000
  C   C2971     1.0  0.89706  0.48271  0.79674  1.0000
  C   C2972     1.0  0.90112  0.46062  0.82373  1.0000
  C   C2973     1.0  0.89509  0.49631  0.80580  1.0000
  C   C2974     1.0  0.89894  0.47437  0.83270  1.0000
  C   C2975     1.0  0.89612  0.49215  0.82373  1.0000
  H   H3546     1.0  0.89655  0.42868  0.81785  1.0000
  H   H3547     1.0  0.90916  0.42158  0.79780  1.0000
  H   H3548     1.0  0.77018  0.57177  0.73859  1.0000
  H   H3549     1.0  0.87396  0.45084  0.80231  1.0000
  H   H3550     1.0  0.88574  0.44136  0.78306  1.0000
  H   H3551     1.0  0.88109  0.46498  0.78130  1.0000
  H   H3552     1.0  0.92936  0.45191  0.78203  1.0000
  H   H3553     1.0  0.91849  0.44146  0.77154  1.0000
  H   H3554     1.0  0.91281  0.46501  0.76923  1.0000
  H   H3555     1.0  0.89580  0.48670  0.78294  1.0000
  H   H3556     1.0  0.90324  0.44715  0.83155  1.0000
  H   H3557     1.0  0.89265  0.51018  0.79886  1.0000
  H   H3558     1.0  0.89938  0.47121  0.84676  1.0000
  H   H3559     1.0  0.89462  0.50275  0.83070  1.0000
  N   N194      1.0  0.82753  0.54706  0.83489  1.0000
  C   C2976     1.0  0.82180  0.53376  0.82862  1.0000
  C   C2977     1.0  0.83498  0.55978  0.81907  1.0000
  C   C2978     1.0  0.84231  0.53739  0.84439  1.0000
  C   C2979     1.0  0.81187  0.55674  0.84610  1.0000
  C   C2980     1.0  0.79712  0.56744  0.83859  1.0000
  C   C2981     1.0  0.81046  0.55554  0.86464  1.0000
  C   C2982     1.0  0.78203  0.57651  0.84885  1.0000
  C   C2983     1.0  0.79524  0.56465  0.87481  1.0000
  C   C2984     1.0  0.78107  0.57506  0.86694  1.0000
  H   H3560     1.0  0.81174  0.54013  0.82007  1.0000
  H   H3561     1.0  0.83325  0.52590  0.82040  1.0000
  H   H3562     1.0  0.81566  0.52420  0.84008  1.0000
  H   H3563     1.0  0.82558  0.56613  0.80986  1.0000
  H   H3564     1.0  0.84729  0.55300  0.81086  1.0000
  H   H3565     1.0  0.83865  0.57061  0.82308  1.0000
  H   H3566     1.0  0.85410  0.53074  0.83547  1.0000
  H   H3567     1.0  0.84724  0.54663  0.84955  1.0000
  H   H3568     1.0  0.83812  0.52667  0.85580  1.0000
  H   H3569     1.0  0.79708  0.56876  0.82471  1.0000
  H   H3570     1.0  0.82084  0.54755  0.87165  1.0000
  H   H3571     1.0  0.77098  0.58466  0.84274  1.0000
  H   H3572     1.0  0.79435  0.56358  0.88894  1.0000
  H   H3573     1.0  0.76927  0.58197  0.87488  1.0000
  N   N195      1.0  0.69930  0.56542  0.92660  1.0000
  C   C2985     1.0  0.70762  0.57066  0.90742  1.0000
  C   C2986     1.0  0.70301  0.57734  0.93629  1.0000
  C   C2987     1.0  0.70829  0.54680  0.93318  1.0000
  C   C2988     1.0  0.67971  0.56670  0.92990  1.0000
  C   C2989     1.0  0.66981  0.57294  0.91604  1.0000
  C   C2990     1.0  0.66986  0.56194  0.94755  1.0000
  C   C2991     1.0  0.65121  0.57465  0.91981  1.0000
  C   C2992     1.0  0.65129  0.56361  0.95113  1.0000
  C   C2993     1.0  0.64196  0.57008  0.93732  1.0000
  H   H3574     1.0  0.70189  0.58479  0.90177  1.0000
  H   H3575     1.0  0.72227  0.56984  0.90537  1.0000
  H   H3576     1.0  0.70586  0.56193  0.89928  1.0000
  H   H3577     1.0  0.69621  0.59148  0.93193  1.0000
  H   H3578     1.0  0.71760  0.57710  0.93376  1.0000
  H   H3579     1.0  0.69853  0.57347  0.95101  1.0000
  H   H3580     1.0  0.70525  0.53731  0.92675  1.0000
  H   H3581     1.0  0.72311  0.54527  0.93039  1.0000
  H   H3582     1.0  0.70413  0.54235  0.94787  1.0000
  H   H3583     1.0  0.67606  0.57684  0.90217  1.0000
  H   H3584     1.0  0.67642  0.55711  0.95880  1.0000
  H   H3585     1.0  0.92335  0.35492  0.78262  1.0000
  H   H3586     1.0  0.64307  0.60790  0.83129  1.0000
  C   C2994     1.0  0.53642  0.61965  0.81360  1.0000
  C   C2995     1.0  0.50975  0.33246  0.91037  1.0000
  H   H3587     1.0  0.61468  0.59820  0.83332  1.0000
  C   C2996     1.0  0.61019  0.60180  0.84671  1.0000
  C   C2997     1.0  0.49480  0.59840  0.78748  1.0000
  H   H3588     1.0  0.65466  0.51192  0.85122  1.0000
  N   N196      1.0  0.94247  0.34005  0.76389  1.0000
  H   H3589     1.0  0.92026  0.33282  0.78445  1.0000
  C   C2998     1.0  0.88212  0.33422  0.74948  1.0000
  C   C2999     1.0  0.64560  0.51771  0.90069  1.0000
  H   H3590     1.0  0.64400  0.56019  0.96476  1.0000
  H   H3591     1.0  0.67431  0.51825  0.89388  1.0000
  N   N197      1.0  0.86154  0.52186  0.96987  1.0000
  C   C3000     1.0  0.51992  0.33157  0.93658  1.0000
  H   H3592     1.0  0.56055  0.58961  0.81755  1.0000
  H   H3593     1.0  0.52754  0.34212  0.92890  1.0000
  H   H3594     1.0  0.67940  0.51446  0.86354  1.0000
  S   S806      1.0  0.50774  0.35160  0.97467  1.0000
  C   C3001     1.0  0.84973  0.58355  0.92635  1.0000
  S   S807      1.0  0.77068  0.59516  0.97575  1.0000
  C   C3002     1.0  0.85650  0.56043  0.90916  1.0000
  H   H3595     1.0  0.88430  0.33236  0.82375  1.0000
  C   C3003     1.0  0.55643  0.46031  0.97481  1.0000
  Fe  Fe407     1.0  0.85737  0.56301  0.73352  1.0000
  H   H3596     1.0  0.96954  0.33409  0.76804  1.0000
  C   C3004     1.0  0.93140  0.32576  0.74510  1.0000
  N   N198      1.0  0.53293  0.60145  0.81642  1.0000
  H   H3597     1.0  0.50640  0.60166  0.74574  1.0000
  C   C3005     1.0  0.84884  0.58898  0.96066  1.0000
  N   N199      1.0  0.85041  0.57988  0.90875  1.0000
  C   C3006     1.0  0.52657  0.59543  0.83591  1.0000
  H   H3598     1.0  0.81918  0.58870  0.73192  1.0000
  H   H3599     1.0  0.93033  0.56194  0.96404  1.0000
  C   C3007     1.0  0.96770  0.47906  0.82777  1.0000
  C   C3008     1.0  0.92423  0.34478  0.77480  1.0000
  C   C3009     1.0  0.50036  0.58404  0.80061  1.0000
  H   H3600     1.0  0.54535  0.62008  0.82222  1.0000
  H   H3601     1.0  0.51295  0.60320  0.84050  1.0000
  C   C3010     1.0  0.85609  0.53411  0.95374  1.0000
  S   S808      1.0  0.96907  0.55385  0.95210  1.0000
  H   H3602     1.0  0.90596  0.55573  0.95370  1.0000
  C   C3011     1.0  0.83282  0.58552  0.90327  1.0000
  C   C3012     1.0  0.59252  0.63923  0.83357  1.0000
  H   H3603     1.0  0.95929  0.35235  0.74040  1.0000
  H   H3604     1.0  0.88718  0.51179  0.95392  1.0000
  H   H3605     1.0  0.59418  0.51061  0.95767  1.0000
  C   C3013     1.0  0.91186  0.39444  0.74228  1.0000
  S   S809      1.0  0.94690  0.32707  0.82622  1.0000
  C   C3014     1.0  0.59626  0.55084  0.96396  1.0000
  H   H3606     1.0  0.98671  0.32416  0.85463  1.0000
  C   C3015     1.0  0.50926  0.57314  0.75317  1.0000
  H   H3607     1.0  0.82173  0.59822  0.93145  1.0000
  C   C3016     1.0  0.77932  0.57570  0.74476  1.0000
  H   H3608     1.0  0.50081  0.61610  0.86981  1.0000
  H   H3609     1.0  0.64391  0.57983  0.90908  1.0000
  S   S810      1.0  0.49188  0.50111  0.78476  1.0000
  C   C3017     1.0  0.48978  0.45392  0.86237  1.0000
  H   H3610     1.0  0.62024  0.50629  0.92963  1.0000
  H   H3611     1.0  0.62750  0.57171  0.94031  1.0000
  H   H3612     1.0  0.77167  0.58635  0.75228  1.0000
  S   S811      1.0  0.68318  0.61224  0.86831  1.0000
  H   H3613     1.0  0.63088  0.50847  0.94591  1.0000
  H   H3614     1.0  0.55283  0.64543  0.85129  1.0000
  C   C3018     1.0  0.62832  0.53840  0.91962  1.0000
  C   C3019     1.0  0.87584  0.50690  0.96401  1.0000
  C   C3020     1.0  0.94064  0.46785  0.84120  1.0000
  H   H3615     1.0  0.86746  0.54004  0.94500  1.0000
  C   C3021     1.0  0.59784  0.53235  0.96704  1.0000
  C   C3022     1.0  0.65723  0.52254  0.92499  1.0000
  H   H3616     1.0  0.63379  0.54975  0.91040  1.0000
  N   N200      1.0  0.64141  0.52124  0.91895  1.0000
  H   H3617     1.0  0.94764  0.41343  0.73577  1.0000
  H   H3618     1.0  0.94123  0.46304  0.82904  1.0000
  H   H3619     1.0  0.87716  0.58463  0.89728  1.0000
  C   C3023     1.0  0.83407  0.59300  0.93625  1.0000
  C   C3024     1.0  0.86514  0.57773  0.93408  1.0000
  S   S812      1.0  0.84360  0.53975  0.74217  1.0000
  C   C3025     1.0  0.51223  0.62244  0.86565  1.0000
  C   C3026     1.0  0.94606  0.35563  0.74942  1.0000
  H   H3620     1.0  0.96054  0.49334  0.82632  1.0000
  C   C3027     1.0  0.92631  0.40258  0.73326  1.0000
  C   C3028     1.0  0.89790  0.32484  0.82096  1.0000
  C   C3029     1.0  0.86458  0.58025  0.95106  1.0000
  C   C3030     1.0  0.87629  0.34368  0.77746  1.0000
  H   H3621     1.0  0.61583  0.53847  0.91565  1.0000
  H   H3622     1.0  0.93354  0.45912  0.85276  1.0000
  H   H3623     1.0  0.49137  0.46489  0.85035  1.0000
  H   H3624     1.0  0.61477  0.61038  0.87566  1.0000
  H   H3625     1.0  0.49516  0.53303  0.83250  1.0000
  H   H3626     1.0  0.61484  0.58980  0.85658  1.0000
  H   H3627     1.0  0.98166  0.47845  0.82869  1.0000
  S   S813      1.0  0.89909  0.38885  0.73026  1.0000
  C   C3031     1.0  0.83373  0.59556  0.95318  1.0000
  H   H3628     1.0  0.87696  0.34061  0.79145  1.0000
  H   H3629     1.0  0.85169  0.52701  0.94577  1.0000
  H   H3630     1.0  0.94615  0.36723  0.75485  1.0000
  H   H3631     1.0  0.84827  0.59060  0.97397  1.0000
  N   N201      1.0  0.61720  0.61733  0.84708  1.0000
  C   C3032     1.0  0.63519  0.51355  0.87567  1.0000
  H   H3632     1.0  0.80778  0.55353  0.73321  1.0000
  C   C3033     1.0  0.96915  0.44900  0.84598  1.0000
  C   C3034     1.0  0.51273  0.58510  0.80990  1.0000
  H   H3633     1.0  0.84818  0.34551  0.72840  1.0000
  S   S814      1.0  0.66644  0.64801  0.82771  1.0000
  H   H3634     1.0  0.51785  0.34253  0.90239  1.0000
  C   C3035     1.0  0.98411  0.42222  0.83353  1.0000
  N   N202      1.0  0.51814  0.32033  0.92507  1.0000
  H   H3635     1.0  0.84480  0.54526  0.95713  1.0000
  C   C3036     1.0  0.50197  0.61365  0.78324  1.0000
  H   H3636     1.0  0.97669  0.33231  0.83540  1.0000
  C   C3037     1.0  0.50090  0.59036  0.74603  1.0000
  H   H3637     1.0  0.98777  0.41530  0.82252  1.0000
  C   C3038     1.0  0.54161  0.63892  0.85526  1.0000
  H   H3638     1.0  0.50652  0.33851  0.94283  1.0000
  C   C3039     1.0  0.88279  0.47162  0.73240  1.0000
  H   H3639     1.0  0.93215  0.48160  0.83994  1.0000
  C   C3040     1.0  0.94356  0.32472  0.75593  1.0000
  C   C3041     1.0  0.95548  0.33656  0.77560  1.0000
  H   H3640     1.0  0.49638  0.34031  0.91564  1.0000
  H   H3641     1.0  0.78369  0.56384  0.75503  1.0000
  H   H3642     1.0  0.56472  0.50229  0.96440  1.0000
  C   C3042     1.0  0.87405  0.35140  0.74094  1.0000
  C   C3043     1.0  0.56504  0.48845  0.97123  1.0000
  H   H3643     1.0  0.88755  0.32347  0.74236  1.0000
  H   H3644     1.0  0.95360  0.32495  0.78681  1.0000
  C   C3044     1.0  0.52680  0.64624  0.84719  1.0000
  H   H3645     1.0  0.50818  0.32497  0.90097  1.0000
  H   H3646     1.0  0.98874  0.41499  0.87630  1.0000
  C   C3045     1.0  0.97393  0.43966  0.83179  1.0000
  S   S815      1.0  0.49370  0.64694  0.84190  1.0000
  H   H3647     1.0  0.96973  0.44573  0.81928  1.0000
  H   H3648     1.0  0.84252  0.50494  0.97455  1.0000
  H   H3649     1.0  0.50301  0.44931  0.86633  1.0000
  H   H3650     1.0  0.88111  0.49759  0.97551  1.0000
  H   H3651     1.0  0.88925  0.31714  0.77364  1.0000
  Fe  Fe408     1.0  0.49101  0.52228  0.79945  1.0000
  H   H3652     1.0  0.49212  0.47101  0.88691  1.0000
  Fe  Fe409     1.0  0.96232  0.56550  0.97691  1.0000
  S   S816      1.0  0.60455  0.56010  0.97717  1.0000
  H   H3653     1.0  0.88919  0.79898  0.20033  1.0000
  S   S817      1.0  0.86272  0.86094  0.22552  1.0000
  H   H3654     1.0  0.98727  0.71306  0.05137  1.0000
  S   S818      1.0  0.83462  0.65422  0.06180  1.0000
  H   H3655     1.0  0.90238  0.83417  0.16137  1.0000
  N   N203      1.0  0.97467  0.80560  0.08706  1.0000
  H   H3656     1.0  0.94361  0.77627  0.14050  1.0000
  Fe  Fe410     1.0  0.93689  0.86321  0.10196  1.0000
  S   S819      1.0  0.96634  0.86254  0.09702  1.0000
  S   S820      1.0  0.92619  0.84155  0.12377  1.0000
  Fe  Fe411     1.0  0.93014  0.89818  0.07438  1.0000
  S   S821      1.0  0.95913  0.89982  0.06675  1.0000
  S   S822      1.0  0.90740  0.91931  0.06439  1.0000
  Fe  Fe412     1.0  0.96473  0.87016  0.06810  1.0000
  C   C3046     1.0  0.76227  0.69369  0.12751  1.0000
  Fe  Fe413     1.0  0.95801  0.89202  0.09632  1.0000
  S   S823      1.0  0.96821  0.90831  0.10941  1.0000
  S   S824      1.0  0.93563  0.86909  0.07308  1.0000
  S   S825      1.0  0.92875  0.89202  0.10390  1.0000
  Fe  Fe414     1.0  0.87566  0.74133  0.16188  1.0000
  S   S826      1.0  0.89992  0.75339  0.15013  1.0000
  S   S827      1.0  0.85535  0.74589  0.18715  1.0000
  Fe  Fe415     1.0  0.88114  0.72328  0.13057  1.0000
  S   S828      1.0  0.90524  0.73477  0.11563  1.0000
  S   S829      1.0  0.87542  0.69918  0.12449  1.0000
  Fe  Fe416     1.0  0.91335  0.72722  0.14200  1.0000
  C   C3047     1.0  0.95793  0.79032  0.11613  1.0000
  Fe  Fe417     1.0  0.89012  0.76026  0.12455  1.0000
  S   S830      1.0  0.89080  0.78702  0.10548  1.0000
  S   S831      1.0  0.89022  0.71429  0.15665  1.0000
  S   S832      1.0  0.86485  0.74968  0.13670  1.0000
  Fe  Fe418     1.0  0.91858  0.92968  0.20135  1.0000
  S   S833      1.0  0.89376  0.94924  0.19501  1.0000
  S   S834      1.0  0.92898  0.90454  0.19037  1.0000
  Fe  Fe419     1.0  0.90696  0.96942  0.19908  1.0000
  C   C3048     1.0  0.97345  0.67763  0.11327  1.0000
  H   H3657     1.0  0.90630  0.82996  0.18343  1.0000
  S   S835      1.0  0.93285  0.95011  0.20299  1.0000
  H   H3658     1.0  0.95098  0.80313  0.11930  1.0000
  H   H3659     1.0  0.85660  0.84207  0.18961  1.0000
  H   H3660     1.0  0.97063  0.73111  0.04314  1.0000
  H   H3661     1.0  0.84918  0.67953  0.18392  1.0000
  C   C3049     1.0  0.85472  0.77129  0.22585  1.0000
  H   H3662     1.0  0.72206  0.68672  0.15243  1.0000
  H   H3663     1.0  0.98751  0.67195  0.10989  1.0000
  C   C3050     1.0  0.91617  0.82688  0.11824  1.0000
  C   C3051     1.0  0.91444  0.81071  0.13020  1.0000
  C   C3052     1.0  0.90699  0.79838  0.12622  1.0000
  C   C3053     1.0  0.90076  0.80221  0.11042  1.0000
  C   C3054     1.0  0.90244  0.81847  0.09838  1.0000
  C   C3055     1.0  0.91025  0.83075  0.10222  1.0000
  H   H3664     1.0  0.91914  0.80754  0.14251  1.0000
  H   H3665     1.0  0.90572  0.78614  0.13565  1.0000
  H   H3666     1.0  0.89762  0.82160  0.08611  1.0000
  H   H3667     1.0  0.91140  0.84328  0.09293  1.0000
  C   C3056     1.0  0.95688  0.90766  0.13176  1.0000
  C   C3057     1.0  0.95643  0.92124  0.14034  1.0000
  C   C3058     1.0  0.94725  0.92085  0.15816  1.0000
  C   C3059     1.0  0.93905  0.90652  0.16758  1.0000
  C   C3060     1.0  0.93953  0.89296  0.15898  1.0000
  C   C3061     1.0  0.94822  0.89364  0.14105  1.0000
  H   H3668     1.0  0.96326  0.93200  0.13323  1.0000
  H   H3669     1.0  0.94703  0.93129  0.16477  1.0000
  C   C3062     1.0  0.81846  0.67790  0.17475  1.0000
  C   C3063     1.0  0.95880  0.74461  0.07429  1.0000
  C   C3064     1.0  0.90507  0.96286  0.13470  1.0000
  C   C3065     1.0  0.92787  0.96424  0.04305  1.0000
  C   C3066     1.0  0.92644  0.94640  0.05061  1.0000
  C   C3067     1.0  0.90991  0.94145  0.05425  1.0000
  C   C3068     1.0  0.89488  0.95448  0.05011  1.0000
  C   C3069     1.0  0.91041  0.97143  0.14519  1.0000
  H   H3670     1.0  0.94727  0.73557  0.10251  1.0000
  H   H3671     1.0  0.93813  0.93648  0.05362  1.0000
  H   H3672     1.0  0.88206  0.95074  0.05281  1.0000
  C   C3070     1.0  0.86631  0.89557  0.21594  1.0000
  C   C3071     1.0  0.84941  0.76414  0.21401  1.0000
  H   H3673     1.0  0.92843  0.79079  0.08218  1.0000
  H   H3674     1.0  0.96036  0.82954  0.07207  1.0000
  H   H3675     1.0  0.88510  0.81826  0.20959  1.0000
  H   H3676     1.0  0.86734  0.82881  0.12733  1.0000
  H   H3677     1.0  0.88766  0.67176  0.06244  1.0000
  C   C3072     1.0  0.85758  0.69800  0.11575  1.0000
  C   C3073     1.0  0.84696  0.71312  0.10715  1.0000
  C   C3074     1.0  0.83361  0.71112  0.09943  1.0000
  H   H3678     1.0  0.90724  0.67972  0.07921  1.0000
  C   C3075     1.0  0.92780  0.97426  0.14108  1.0000
  H   H3679     1.0  0.81891  0.71441  0.14027  1.0000
  H   H3680     1.0  0.84922  0.72628  0.10617  1.0000
  H   H3681     1.0  0.82545  0.72279  0.09268  1.0000
  H   H3682     1.0  0.83533  0.76585  0.21424  1.0000
  C   C3076     1.0  0.88054  0.81253  0.20052  1.0000
  H   H3683     1.0  0.86247  0.66935  0.12393  1.0000
  H   H3684     1.0  0.85934  0.78163  0.16688  1.0000
  C   C3077     1.0  0.87367  0.82732  0.15264  1.0000
  H   H3685     1.0  0.90882  0.81162  0.17293  1.0000
  H   H3686     1.0  0.89042  0.74551  0.19232  1.0000
  H   H3687     1.0  0.85809  0.68854  0.16106  1.0000
  C   C3078     1.0  0.86918  0.80061  0.17501  1.0000
  S   S836      1.0  0.81428  0.69163  0.09051  1.0000
  H   H3688     1.0  0.89979  0.75735  0.21373  1.0000
  H   H3689     1.0  0.76479  0.65193  0.12267  1.0000
  C   C3079     1.0  0.83106  0.69402  0.10010  1.0000
  H   H3690     1.0  0.89432  0.93349  0.13295  1.0000
  C   C3080     1.0  0.93481  0.95980  0.11594  1.0000
  H   H3691     1.0  0.92274  0.69711  0.12707  1.0000
  N   N204      1.0  0.96924  0.72673  0.07150  1.0000
  H   H3692     1.0  0.94865  0.88303  0.13458  1.0000
  S   S837      1.0  0.79261  0.65603  0.08204  1.0000
  H   H3693     1.0  0.82261  0.67162  0.18727  1.0000
  C   C3081     1.0  0.73500  0.68355  0.14384  1.0000
  C   C3082     1.0  0.98030  0.77171  0.09766  1.0000
  H   H3694     1.0  0.84359  0.72749  0.16564  1.0000
  H   H3695     1.0  0.97548  0.71861  0.09784  1.0000
  H   H3696     1.0  0.94976  0.71232  0.08979  1.0000
  C   C3083     1.0  0.96753  0.68989  0.12464  1.0000
  C   C3084     1.0  0.98386  0.81488  0.09483  1.0000
  C   C3085     1.0  0.81637  0.70188  0.14875  1.0000
  N   N205      1.0  0.88153  0.82399  0.18231  1.0000
  C   C3086     1.0  0.95878  0.76020  0.06045  1.0000
  S   S838      1.0  0.98324  0.85545  0.04710  1.0000
  C   C3087     1.0  0.82258  0.70770  0.18957  1.0000
  H   H3697     1.0  0.70462  0.67039  0.14618  1.0000
  N   N206      1.0  0.89956  0.65436  0.08399  1.0000
  H   H3698     1.0  0.96672  0.75999  0.04715  1.0000
  C   C3088     1.0  0.84152  0.67902  0.10898  1.0000
  H   H3699     1.0  0.94070  0.96795  0.04031  1.0000
  H   H3700     1.0  0.88422  0.66538  0.99667  1.0000
  H   H3701     1.0  0.98770  0.81468  0.05980  1.0000
  H   H3702     1.0  0.98380  0.74332  0.10842  1.0000
  H   H3703     1.0  0.49377  0.96826  0.13503  1.0000
  H   H3704     1.0  0.96428  0.70065  0.07338  1.0000
  H   H3705     1.0  0.82328  0.73079  0.15832  1.0000
  H   H3706     1.0  0.90889  0.88938  0.22242  1.0000
  H   H3707     1.0  0.87569  0.84737  0.19372  1.0000
  C   C3089     1.0  0.85459  0.68103  0.11690  1.0000
  H   H3708     1.0  0.90756  0.65978  0.99724  1.0000
  C   C3090     1.0  0.94788  0.74674  0.09125  1.0000
  H   H3709     1.0  0.85833  0.65339  0.01031  1.0000
  C   C3091     1.0  0.86236  0.80472  0.14595  1.0000
  C   C3092     1.0  0.87462  0.81728  0.17017  1.0000
  H   H3710     1.0  0.89990  0.97006  0.09274  1.0000
  C   C3093     1.0  0.94928  0.69733  0.12928  1.0000
  H   H3711     1.0  0.92131  0.93236  0.08802  1.0000
  C   C3094     1.0  0.83597  0.72100  0.16005  1.0000
  H   H3712     1.0  0.91422  0.66340  0.09819  1.0000
  C   C3095     1.0  0.91720  0.95647  0.11992  1.0000
  N   N207      1.0  0.91153  0.94635  0.10979  1.0000
  C   C3096     1.0  0.95779  0.81790  0.08311  1.0000
  C   C3097     1.0  0.97085  0.78915  0.10005  1.0000
  C   C3098     1.0  0.86225  0.75487  0.20181  1.0000
  H   H3713     1.0  0.78229  0.67520  0.11350  1.0000
  C   C3099     1.0  0.87109  0.84214  0.18432  1.0000
  H   H3714     1.0  0.87823  0.83978  0.14768  1.0000
  H   H3715     1.0  0.86960  0.79190  0.18792  1.0000
  H   H3716     1.0  0.97714  0.69386  0.12957  1.0000
  H   H3717     1.0  0.85820  0.79969  0.13651  1.0000
  S   S839      1.0  0.96844  0.65865  0.09090  1.0000
  C   C3100     1.0  0.80697  0.69275  0.14263  1.0000
  H   H3718     1.0  0.92931  0.85215  0.21459  1.0000
  H   H3719     1.0  0.94930  0.81094  0.07925  1.0000
  C   C3101     1.0  0.90343  0.66870  0.09042  1.0000
  H   H3720     1.0  0.86658  0.81097  0.20696  1.0000
  H   H3721     1.0  0.93764  0.93124  0.10014  1.0000
  H   H3722     1.0  0.87239  0.85213  0.17156  1.0000
  C   C3102     1.0  0.86585  0.91220  0.21932  1.0000
  H   H3723     1.0  0.89907  0.87293  0.21927  1.0000
  C   C3103     1.0  0.86747  0.82115  0.14082  1.0000
  C   C3104     1.0  0.86317  0.79450  0.16301  1.0000
  C   C3105     1.0  0.90055  0.82500  0.17469  1.0000
  H   H3724     1.0  0.82099  0.69537  0.19986  1.0000
  H   H3725     1.0  0.84410  0.71901  0.14667  1.0000
  C   C3106     1.0  0.88042  0.75273  0.20157  1.0000
  H   H3726     1.0  0.93325  0.67550  0.10706  1.0000
  C   C3107     1.0  0.88570  0.75943  0.21372  1.0000
  H   H3727     1.0  0.95986  0.74628  0.13523  1.0000
  C   C3108     1.0  0.80917  0.66884  0.16842  1.0000
  H   H3728     1.0  0.80272  0.69836  0.13001  1.0000
  N   N208      1.0  0.73075  0.65288  0.14321  1.0000
  H   H3729     1.0  0.87837  0.65206  0.07244  1.0000
  H   H3730     1.0  0.49052  0.91228  0.18992  1.0000
  H   H3731     1.0  0.79654  0.66908  0.14731  1.0000
  H   H3732     1.0  0.94664  0.71919  0.06726  1.0000
  H   H3733     1.0  0.87268  0.66994  0.08379  1.0000
  H   H3734     1.0  0.89150  0.96079  0.13859  1.0000
  C   C3109     1.0  0.97954  0.72667  0.05294  1.0000
  C   C3110     1.0  0.90586  0.93023  0.12203  1.0000
  H   H3735     1.0  0.94511  0.95520  0.10519  1.0000
  H   H3736     1.0  0.71251  0.66048  0.16687  1.0000
  H   H3737     1.0  0.93807  0.86988  0.21624  1.0000
  H   H3738     1.0  0.94969  0.82392  0.09461  1.0000
  H   H3739     1.0  0.83944  0.66586  0.10992  1.0000
  H   H3740     1.0  0.82954  0.71526  0.19476  1.0000
  S   S840      1.0  0.94228  0.71433  0.14164  1.0000
  H   H3741     1.0  0.87332  0.89242  0.20310  1.0000
  C   C3111     1.0  0.95388  0.77502  0.12851  1.0000
  H   H3742     1.0  0.89990  0.65305  0.98104  1.0000
  H   H3743     1.0  0.95354  0.97057  0.12344  1.0000
  H   H3744     1.0  0.93198  0.98059  0.14949  1.0000
  C   C3112     1.0  0.82249  0.69466  0.16504  1.0000
  C   C3113     1.0  0.93991  0.96862  0.12639  1.0000
  C   C3114     1.0  0.94802  0.77668  0.06338  1.0000
  C   C3115     1.0  0.88398  0.66232  0.07523  1.0000
  H   H3745     1.0  0.87234  0.92177  0.20905  1.0000
  C   C3116     1.0  0.80351  0.67622  0.15235  1.0000
  H   H3746     1.0  0.80895  0.71594  0.18868  1.0000
  C   C3117     1.0  0.71236  0.65821  0.15361  1.0000
  H   H3747     1.0  0.93504  0.66024  0.07256  1.0000
  H   H3748     1.0  0.74016  0.70927  0.14287  1.0000
  C   C3118     1.0  0.93690  0.69177  0.12323  1.0000
  C   C3119     1.0  0.96117  0.67259  0.10662  1.0000
  H   H3749     1.0  0.85853  0.69890  0.17856  1.0000
  C   C3120     1.0  0.74138  0.66700  0.13811  1.0000
  C   C3121     1.0  0.91285  0.97723  0.03886  1.0000
  C   C3122     1.0  0.92589  0.94024  0.09507  1.0000
  C   C3123     1.0  0.93716  0.77816  0.08007  1.0000
  C   C3124     1.0  0.96305  0.75813  0.12560  1.0000
  H   H3750     1.0  0.89215  0.95047  0.09353  1.0000
  C   C3125     1.0  0.85030  0.69216  0.17398  1.0000
  C   C3126     1.0  0.93725  0.76329  0.09401  1.0000
  H   H3751     1.0  0.90163  0.92218  0.11485  1.0000
  Fe  Fe420     1.0  0.81640  0.66411  0.08574  1.0000
  C   C3127     1.0  0.97643  0.75650  0.11036  1.0000
  H   H3752     1.0  0.77018  0.70395  0.12317  1.0000
  Fe  Fe421     1.0  0.88369  0.94500  0.22472  1.0000
  C   C3128     1.0  0.89633  0.97231  0.04241  1.0000
  H   H3753     1.0  0.92875  0.76455  0.10699  1.0000
  N   N209      1.0  0.83262  0.70381  0.17191  1.0000
  H   H3754     1.0  0.93325  0.88184  0.16623  1.0000
  H   H3755     1.0  0.89159  0.67491  0.09960  1.0000
  C   C3129     1.0  0.94285  0.67939  0.11198  1.0000
  H   H3756     1.0  0.93038  0.95165  0.08483  1.0000
  C   C3130     1.0  0.74534  0.69667  0.13851  1.0000
  C   C3131     1.0  0.89627  0.95761  0.10175  1.0000
  C   C3132     1.0  0.76906  0.67749  0.12201  1.0000
  H   H3757     1.0  0.80646  0.65595  0.17594  1.0000
  C   C3133     1.0  0.95695  0.71422  0.07563  1.0000
  C   C3134     1.0  0.75886  0.66429  0.12725  1.0000
  H   H3758     1.0  0.88423  0.96149  0.11197  1.0000
  H   H3759     1.0  0.91703  0.92146  0.12839  1.0000
  H   H3760     1.0  0.94779  0.78833  0.05256  1.0000
  S   S841      1.0  0.66398  0.66421  0.22417  1.0000
  H   H3761     1.0  0.97560  0.81859  0.10755  1.0000
  H   H3762     1.0  0.90116  0.97555  0.15687  1.0000
  H   H3763     1.0  0.72235  0.65988  0.11808  1.0000
  C   C3135     1.0  0.89651  0.65472  0.99515  1.0000
  C   C3136     1.0  0.98216  0.71980  0.08354  1.0000
  C   C3137     1.0  0.98622  0.80206  0.06975  1.0000
  C   C3138     1.0  0.87291  0.76873  0.22588  1.0000
  H   H3764     1.0  0.96364  0.65110  0.01228  1.0000
  H   H3765     1.0  0.87643  0.65097  0.02844  1.0000
  C   C3139     1.0  0.93203  0.65066  0.06682  1.0000
  C   C3140     1.0  0.93247  0.85809  0.22440  1.0000
  H   H3766     1.0  0.98043  0.79422  0.06374  1.0000
  H   H3767     1.0  0.98928  0.65577  0.02193  1.0000
  H   H3768     1.0  0.88467  0.98220  0.03919  1.0000
  H   H3769     1.0  0.98662  0.82752  0.08562  1.0000
  Fe  Fe422     1.0  0.71254  0.75401  0.33568  1.0000
  S   S842      1.0  0.72092  0.77466  0.31192  1.0000
  S   S843      1.0  0.71173  0.75794  0.36308  1.0000
  Fe  Fe423     1.0  0.70681  0.73103  0.31291  1.0000
  S   S844      1.0  0.71587  0.74950  0.28720  1.0000
  S   S845      1.0  0.69450  0.70725  0.31580  1.0000
  Fe  Fe424     1.0  0.73747  0.75137  0.30004  1.0000
  S   S846      1.0  0.76616  0.75156  0.28512  1.0000
  Fe  Fe425     1.0  0.69884  0.77116  0.30134  1.0000
  S   S847      1.0  0.68323  0.79581  0.28655  1.0000
  S   S848      1.0  0.73019  0.73059  0.32453  1.0000
  S   S849      1.0  0.68844  0.75283  0.32636  1.0000
  Fe  Fe426     1.0  0.60796  0.82588  0.35894  1.0000
  S   S850      1.0  0.61992  0.80058  0.37584  1.0000
  S   S851      1.0  0.62616  0.84177  0.33807  1.0000
  Fe  Fe427     1.0  0.57015  0.82358  0.37886  1.0000
  S   S852      1.0  0.57935  0.79812  0.39766  1.0000
  S   S853      1.0  0.54036  0.83423  0.38265  1.0000
  Fe  Fe428     1.0  0.60083  0.81144  0.39865  1.0000
  S   S854      1.0  0.61219  0.80870  0.42285  1.0000
  Fe  Fe429     1.0  0.59739  0.79003  0.37293  1.0000
  S   S855      1.0  0.60210  0.76336  0.36564  1.0000
  S   S856      1.0  0.59016  0.83763  0.38191  1.0000
  S   S857      1.0  0.58686  0.81458  0.35400  1.0000
  H   H3770     1.0  0.78696  0.84353  0.35523  1.0000
  H   H3771     1.0  0.76428  0.78896  0.24431  1.0000
  C   C3141     1.0  0.70257  0.70651  0.27987  1.0000
  C   C3142     1.0  0.61662  0.68253  0.26578  1.0000
  C   C3143     1.0  0.54943  0.71373  0.25621  1.0000
  H   H3772     1.0  0.55931  0.79189  0.34470  1.0000
  H   H3773     1.0  0.49223  0.77004  0.34519  1.0000
  H   H3774     1.0  0.79908  0.82646  0.31362  1.0000
  H   H3775     1.0  0.98279  0.87717  0.25389  1.0000
  S   S858      1.0  0.87618  0.81790  0.25911  1.0000
  H   H3776     1.0  0.73028  0.67330  0.31217  1.0000
  Fe  Fe430     1.0  0.82553  0.81846  0.26982  1.0000
  S   S859      1.0  0.84503  0.79574  0.28217  1.0000
  S   S860      1.0  0.79604  0.81991  0.28009  1.0000
  Fe  Fe431     1.0  0.85692  0.81719  0.28553  1.0000
  S   S861      1.0  0.85971  0.81644  0.31336  1.0000
  Fe  Fe432     1.0  0.86223  0.79859  0.25454  1.0000
  C   C3144     1.0  0.71920  0.82122  0.24901  1.0000
  S   S862      1.0  0.83632  0.83989  0.27470  1.0000
  C   C3145     1.0  0.55505  0.82680  0.42723  1.0000
  Fe  Fe433     1.0  0.91824  0.85111  0.35230  1.0000
  S   S863      1.0  0.89154  0.86943  0.35765  1.0000
  S   S864      1.0  0.92534  0.83774  0.32874  1.0000
  Fe  Fe434     1.0  0.93137  0.86044  0.38128  1.0000
  S   S865      1.0  0.90548  0.87933  0.38893  1.0000
  S   S866      1.0  0.95422  0.86130  0.39290  1.0000
  Fe  Fe435     1.0  0.89268  0.85812  0.38645  1.0000
  S   S867      1.0  0.87044  0.84831  0.40793  1.0000
  Fe  Fe436     1.0  0.90704  0.88867  0.35947  1.0000
  S   S868      1.0  0.90267  0.91716  0.34447  1.0000
  S   S869      1.0  0.91859  0.83823  0.38112  1.0000
  S   S870      1.0  0.93369  0.87128  0.35189  1.0000
  H   H3777     1.0  0.50686  0.91304  0.37671  1.0000
  C   C3146     1.0  0.50207  0.65691  0.35516  1.0000
  Fe  Fe437     1.0  0.77677  0.79572  0.39228  1.0000
  S   S871      1.0  0.76144  0.82351  0.39414  1.0000
  S   S872      1.0  0.77845  0.78585  0.36743  1.0000
  Fe  Fe438     1.0  0.79132  0.79107  0.42597  1.0000
  S   S873      1.0  0.77759  0.81870  0.42994  1.0000
  H   H3778     1.0  0.80351  0.80660  0.32952  1.0000
  Fe  Fe439     1.0  0.75418  0.81244  0.42357  1.0000
  S   S874      1.0  0.72757  0.81506  0.44273  1.0000
  Fe  Fe440     1.0  0.78646  0.82680  0.40023  1.0000
  S   S875      1.0  0.79917  0.84996  0.38462  1.0000
  S   S876      1.0  0.76738  0.78418  0.42123  1.0000
  S   S877      1.0  0.80227  0.79962  0.39676  1.0000
  Fe  Fe441     1.0  0.53184  0.72391  0.35075  1.0000
  S   S878      1.0  0.54032  0.73584  0.32195  1.0000
  S   S879      1.0  0.52953  0.74083  0.37033  1.0000
  Fe  Fe442     1.0  0.52683  0.69043  0.34247  1.0000
  S   S880      1.0  0.53479  0.69972  0.31277  1.0000
  Fe  Fe443     1.0  0.55661  0.70862  0.31948  1.0000
  S   S881      1.0  0.58502  0.70791  0.30440  1.0000
  Fe  Fe444     1.0  0.51784  0.72606  0.31802  1.0000
  H   H3779     1.0  0.74236  0.84211  0.25596  1.0000
  S   S882      1.0  0.55006  0.69733  0.34879  1.0000
  S   S883      1.0  0.50780  0.71613  0.34719  1.0000
  H   H3780     1.0  0.95762  0.80398  0.43607  1.0000
  C   C3147     1.0  0.72639  0.66269  0.29142  1.0000
  H   H3781     1.0  0.87995  0.86860  0.32587  1.0000
  H   H3782     1.0  0.50280  0.88018  0.35492  1.0000
  H   H3783     1.0  0.69828  0.82614  0.46980  1.0000
  H   H3784     1.0  0.51358  0.82303  0.30833  1.0000
  S   S884      1.0  0.52226  0.66256  0.35466  1.0000
  H   H3785     1.0  0.85064  0.93425  0.30463  1.0000
  H   H3786     1.0  0.53209  0.74881  0.25162  1.0000
  H   H3787     1.0  0.88623  0.94540  0.30339  1.0000
  C   C3148     1.0  0.81613  0.73841  0.29291  1.0000
  S   S885      1.0  0.93175  0.94251  0.25571  1.0000
  H   H3788     1.0  0.93316  0.90590  0.36177  1.0000
  H   H3789     1.0  0.52173  0.72381  0.26861  1.0000
  C   C3149     1.0  0.61027  0.69315  0.27868  1.0000
  C   C3150     1.0  0.59303  0.69355  0.28927  1.0000
  C   C3151     1.0  0.58219  0.68320  0.28703  1.0000
  C   C3152     1.0  0.93215  0.95463  0.33527  1.0000
  H   H3790     1.0  0.61869  0.70115  0.28036  1.0000
  H   H3791     1.0  0.56900  0.68325  0.29530  1.0000
  C   C3153     1.0  0.95926  0.84626  0.41236  1.0000
  C   C3154     1.0  0.80800  0.81940  0.32313  1.0000
  C   C3155     1.0  0.81497  0.84589  0.32804  1.0000
  H   H3792     1.0  0.96192  0.89701  0.32792  1.0000
  H   H3793     1.0  0.95488  0.87684  0.31750  1.0000
  H   H3794     1.0  0.53980  0.83531  0.30474  1.0000
  H   H3795     1.0  0.73101  0.67329  0.28085  1.0000
  H   H3796     1.0  0.83107  0.81357  0.34509  1.0000
  H   H3797     1.0  0.89157  0.86433  0.43829  1.0000
  C   C3156     1.0  0.91898  0.92828  0.34521  1.0000
  C   C3157     1.0  0.91860  0.94592  0.33581  1.0000
  C   C3158     1.0  0.83944  0.75125  0.29622  1.0000
  H   H3798     1.0  0.90791  0.95283  0.32877  1.0000
  Fe  Fe445     1.0  0.85440  0.83876  0.24796  1.0000
  C   C3159     1.0  0.85071  0.84894  0.40118  1.0000
  C   C3160     1.0  0.84670  0.85995  0.38519  1.0000
  C   C3161     1.0  0.83078  0.86035  0.38021  1.0000
  C   C3162     1.0  0.81900  0.84948  0.39101  1.0000
  C   C3163     1.0  0.82307  0.83838  0.40688  1.0000
  C   C3164     1.0  0.83873  0.83833  0.41211  1.0000
  H   H3799     1.0  0.85558  0.86854  0.37693  1.0000
  H   H3800     1.0  0.82752  0.86916  0.36805  1.0000
  H   H3801     1.0  0.81401  0.83002  0.41525  1.0000
  H   H3802     1.0  0.84160  0.82988  0.42454  1.0000
  H   H3803     1.0  0.67286  0.67236  0.28593  1.0000
  C   C3165     1.0  0.90334  0.87734  0.22949  1.0000
  H   H3804     1.0  0.93068  0.89090  0.28700  1.0000
  H   H3805     1.0  0.73541  0.78746  0.24841  1.0000
  H   H3806     1.0  0.54749  0.84082  0.42634  1.0000
  N   N210      1.0  0.96258  0.90955  0.29995  1.0000
  C   C3166     1.0  0.87825  0.82205  0.31731  1.0000
  C   C3167     1.0  0.87682  0.82657  0.33368  1.0000
  C   C3168     1.0  0.89124  0.83127  0.33732  1.0000
  C   C3169     1.0  0.90728  0.83132  0.32466  1.0000
  C   C3170     1.0  0.90885  0.82650  0.30840  1.0000
  C   C3171     1.0  0.89429  0.82209  0.30461  1.0000
  H   H3807     1.0  0.86445  0.82655  0.34354  1.0000
  H   H3808     1.0  0.88997  0.83475  0.34997  1.0000
  H   H3809     1.0  0.91417  0.87523  0.43937  1.0000
  H   H3810     1.0  0.89555  0.81840  0.29205  1.0000
  C   C3172     1.0  0.94328  0.97432  0.24172  1.0000
  H   H3811     1.0  0.85462  0.93658  0.28084  1.0000
  H   H3812     1.0  0.58189  0.80223  0.46445  1.0000
  H   H3813     1.0  0.85987  0.95263  0.28984  1.0000
  H   H3814     1.0  0.59729  0.97422  0.47018  1.0000
  H   H3815     1.0  0.51608  0.76462  0.33939  1.0000
  C   C3173     1.0  0.78411  0.82390  0.23636  1.0000
  C   C3174     1.0  0.84849  0.90393  0.24903  1.0000
  H   H3816     1.0  0.49568  0.84543  0.34625  1.0000
  H   H3817     1.0  0.77511  0.79044  0.46718  1.0000
  C   C3175     1.0  0.69523  0.87019  0.45057  1.0000
  C   C3176     1.0  0.69159  0.85483  0.46302  1.0000
  C   C3177     1.0  0.70172  0.83801  0.46050  1.0000
  C   C3178     1.0  0.71600  0.83647  0.44587  1.0000
  C   C3179     1.0  0.72041  0.85187  0.43392  1.0000
  C   C3180     1.0  0.70994  0.86876  0.43624  1.0000
  C   C3181     1.0  0.96132  0.87735  0.30368  1.0000
  C   C3182     1.0  0.81975  0.77143  0.47494  1.0000
  H   H3818     1.0  0.73154  0.85075  0.42266  1.0000
  C   C3183     1.0  0.69283  0.70043  0.29684  1.0000
  C   C3184     1.0  0.51814  0.85739  0.33172  1.0000
  C   C3185     1.0  0.53523  0.85915  0.33213  1.0000
  C   C3186     1.0  0.54254  0.85127  0.34741  1.0000
  C   C3187     1.0  0.53266  0.84181  0.36249  1.0000
  C   C3188     1.0  0.51579  0.83962  0.36194  1.0000
  C   C3189     1.0  0.76499  0.80244  0.24411  1.0000
  H   H3819     1.0  0.55556  0.85304  0.34773  1.0000
  H   H3820     1.0  0.50816  0.83219  0.37353  1.0000
  C   C3190     1.0  0.93906  0.96125  0.25693  1.0000
  C   C3191     1.0  0.60947  0.82789  0.43140  1.0000
  C   C3192     1.0  0.61892  0.82719  0.44440  1.0000
  C   C3193     1.0  0.61657  0.84224  0.45174  1.0000
  C   C3194     1.0  0.60458  0.85795  0.44620  1.0000
  C   C3195     1.0  0.59534  0.85867  0.43308  1.0000
  C   C3196     1.0  0.59783  0.84373  0.42565  1.0000
  H   H3821     1.0  0.62786  0.81491  0.44900  1.0000
  S   S886      1.0  0.61339  0.65940  0.24703  1.0000
  H   H3822     1.0  0.58609  0.87081  0.42874  1.0000
  H   H3823     1.0  0.59058  0.84454  0.41560  1.0000
  C   C3197     1.0  0.58197  0.75690  0.36722  1.0000
  C   C3198     1.0  0.56573  0.76563  0.37626  1.0000
  C   C3199     1.0  0.54976  0.76031  0.37754  1.0000
  C   C3200     1.0  0.54987  0.74659  0.36933  1.0000
  C   C3201     1.0  0.56606  0.73802  0.36005  1.0000
  C   C3202     1.0  0.58212  0.74297  0.35928  1.0000
  H   H3824     1.0  0.56544  0.77641  0.38238  1.0000
  H   H3825     1.0  0.53727  0.76703  0.38467  1.0000
  H   H3826     1.0  0.56627  0.72743  0.35366  1.0000
  H   H3827     1.0  0.59463  0.73608  0.35240  1.0000
  C   C3203     1.0  0.77497  0.77013  0.28435  1.0000
  C   C3204     1.0  0.79105  0.77288  0.27244  1.0000
  C   C3205     1.0  0.79810  0.78775  0.27152  1.0000
  C   C3206     1.0  0.78857  0.80038  0.28190  1.0000
  C   C3207     1.0  0.77268  0.79751  0.29395  1.0000
  C   C3208     1.0  0.76618  0.78222  0.29547  1.0000
  H   H3828     1.0  0.79796  0.76362  0.26375  1.0000
  H   H3829     1.0  0.81049  0.78980  0.26228  1.0000
  H   H3830     1.0  0.76552  0.80701  0.30236  1.0000
  H   H3831     1.0  0.75445  0.77981  0.30538  1.0000
  C   C3209     1.0  0.68127  0.68171  0.28421  1.0000
  H   H3832     1.0  0.50673  0.86454  0.38495  1.0000
  C   C3210     1.0  0.66740  0.80831  0.30107  1.0000
  C   C3211     1.0  0.65757  0.79984  0.31689  1.0000
  C   C3212     1.0  0.64456  0.81006  0.32810  1.0000
  C   C3213     1.0  0.64183  0.82874  0.32384  1.0000
  C   C3214     1.0  0.65191  0.83716  0.30816  1.0000
  C   C3215     1.0  0.66447  0.82697  0.29664  1.0000
  H   H3833     1.0  0.65960  0.78544  0.32023  1.0000
  H   H3834     1.0  0.63661  0.80344  0.33993  1.0000
  H   H3835     1.0  0.64976  0.85159  0.30477  1.0000
  H   H3836     1.0  0.67197  0.83356  0.28436  1.0000
  C   C3216     1.0  0.75946  0.77872  0.36641  1.0000
  C   C3217     1.0  0.75847  0.77502  0.35038  1.0000
  C   C3218     1.0  0.74403  0.76836  0.34941  1.0000
  C   C3219     1.0  0.73021  0.76578  0.36434  1.0000
  C   C3220     1.0  0.73097  0.76984  0.38030  1.0000
  C   C3221     1.0  0.74558  0.77630  0.38135  1.0000
  H   H3837     1.0  0.76887  0.77729  0.33865  1.0000
  H   H3838     1.0  0.74369  0.76506  0.33714  1.0000
  H   H3839     1.0  0.72035  0.76783  0.39192  1.0000
  H   H3840     1.0  0.74624  0.77910  0.39379  1.0000
  H   H3841     1.0  0.95696  0.92138  0.36097  1.0000
  N   N211      1.0  0.55612  0.72941  0.25666  1.0000
  S   S887      1.0  0.88022  0.77660  0.24105  1.0000
  C   C3222     1.0  0.85700  0.78992  0.42472  1.0000
  C   C3223     1.0  0.84700  0.79066  0.41227  1.0000
  C   C3224     1.0  0.57568  0.72785  0.24949  1.0000
  H   H3842     1.0  0.93768  0.95298  0.28523  1.0000
  H   H3843     1.0  0.78020  0.84422  0.33509  1.0000
  C   C3225     1.0  0.96403  0.86194  0.29703  1.0000
  H   H3844     1.0  0.80108  0.85439  0.30576  1.0000
  H   H3845     1.0  0.83594  0.74403  0.33278  1.0000
  N   N212      1.0  0.80715  0.82985  0.33655  1.0000
  H   H3846     1.0  0.97119  0.86454  0.41905  1.0000
  S   S888      1.0  0.84157  0.81950  0.24180  1.0000
  H   H3847     1.0  0.51986  0.88037  0.38317  1.0000
  H   H3848     1.0  0.82350  0.82116  0.46017  1.0000
  C   C3226     1.0  0.52354  0.81550  0.31608  1.0000
  H   H3849     1.0  0.56927  0.82718  0.42085  1.0000
  H   H3850     1.0  0.92136  0.82621  0.29872  1.0000
  H   H3851     1.0  0.75191  0.79278  0.46867  1.0000
  C   C3227     1.0  0.94632  0.92827  0.35387  1.0000
  C   C3228     1.0  0.82646  0.85138  0.33579  1.0000
  C   C3229     1.0  0.83330  0.86680  0.32768  1.0000
  C   C3230     1.0  0.81730  0.87256  0.30404  1.0000
  C   C3231     1.0  0.82883  0.87731  0.31180  1.0000
  H   H3852     1.0  0.83029  0.84404  0.34821  1.0000
  H   H3853     1.0  0.84207  0.87062  0.33388  1.0000
  H   H3854     1.0  0.81376  0.88081  0.29172  1.0000
  H   H3855     1.0  0.83419  0.88924  0.30556  1.0000
  N   N213      1.0  0.87837  0.92718  0.29208  1.0000
  C   C3232     1.0  0.86225  0.84201  0.46884  1.0000
  C   C3233     1.0  0.89023  0.93286  0.27471  1.0000
  C   C3234     1.0  0.86008  0.93813  0.29187  1.0000
  C   C3235     1.0  0.87777  0.90809  0.29482  1.0000
  C   C3236     1.0  0.87988  0.89563  0.31106  1.0000
  C   C3237     1.0  0.87411  0.90164  0.28130  1.0000
  C   C3238     1.0  0.87834  0.87792  0.31343  1.0000
  C   C3239     1.0  0.87267  0.88390  0.28381  1.0000
  C   C3240     1.0  0.87469  0.87209  0.29988  1.0000
  C   C3241     1.0  0.88510  0.93117  0.30617  1.0000
  C   C3242     1.0  0.87265  0.79719  0.41967  1.0000
  H   H3856     1.0  0.89867  0.92292  0.30726  1.0000
  S   S889      1.0  0.62757  0.90502  0.46528  1.0000
  H   H3857     1.0  0.71881  0.78812  0.26829  1.0000
  H   H3858     1.0  0.88428  0.93390  0.26315  1.0000
  H   H3859     1.0  0.55841  0.71931  0.28395  1.0000
  H   H3860     1.0  0.98385  0.89879  0.31453  1.0000
  H   H3861     1.0  0.49058  0.90902  0.39670  1.0000
  H   H3862     1.0  0.89664  0.77652  0.45216  1.0000
  H   H3863     1.0  0.87210  0.91036  0.26872  1.0000
  C   C3243     1.0  0.93035  0.88402  0.24651  1.0000
  H   H3864     1.0  0.86983  0.87930  0.27330  1.0000
  H   H3865     1.0  0.87329  0.85843  0.30188  1.0000
  N   N214      1.0  0.63832  0.73879  0.32030  1.0000
  C   C3244     1.0  0.64187  0.71967  0.31926  1.0000
  C   C3245     1.0  0.65203  0.74713  0.30638  1.0000
  C   C3246     1.0  0.64065  0.73934  0.33814  1.0000
  C   C3247     1.0  0.62020  0.74875  0.31772  1.0000
  C   C3248     1.0  0.61452  0.76698  0.31907  1.0000
  C   C3249     1.0  0.60772  0.74084  0.31394  1.0000
  C   C3250     1.0  0.59729  0.77653  0.31733  1.0000
  C   C3251     1.0  0.59053  0.75053  0.31220  1.0000
  C   C3252     1.0  0.58529  0.76829  0.31396  1.0000
  H   H3866     1.0  0.64142  0.71813  0.30582  1.0000
  H   H3867     1.0  0.65544  0.71251  0.32164  1.0000
  H   H3868     1.0  0.63213  0.71252  0.32955  1.0000
  H   H3869     1.0  0.65386  0.73131  0.34086  1.0000
  H   H3870     1.0  0.63998  0.75309  0.33958  1.0000
  H   H3871     1.0  0.62996  0.73407  0.34893  1.0000
  H   H3872     1.0  0.62321  0.77389  0.32199  1.0000
  H   H3873     1.0  0.61070  0.72708  0.31262  1.0000
  H   H3874     1.0  0.59314  0.79026  0.31900  1.0000
  H   H3875     1.0  0.58110  0.74405  0.30985  1.0000
  H   H3876     1.0  0.57185  0.77559  0.31290  1.0000
  H   H3877     1.0  0.95976  0.85009  0.30577  1.0000
  C   C3253     1.0  0.97257  0.83971  0.43838  1.0000
  H   H3878     1.0  0.72357  0.82870  0.27813  1.0000
  H   H3879     1.0  0.90937  0.85198  0.27575  1.0000
  H   H3880     1.0  0.51228  0.89840  0.35358  1.0000
  H   H3881     1.0  0.91619  0.86494  0.29706  1.0000
  H   H3882     1.0  0.78174  0.82401  0.35185  1.0000
  C   C3254     1.0  0.78163  0.80710  0.23646  1.0000
  H   H3883     1.0  0.84153  0.90718  0.26183  1.0000
  C   C3255     1.0  0.78817  0.83565  0.34502  1.0000
  H   H3884     1.0  0.74642  0.82437  0.46805  1.0000
  H   H3885     1.0  0.57767  0.79707  0.43873  1.0000
  H   H3886     1.0  0.55834  0.74264  0.27647  1.0000
  C   C3256     1.0  0.53570  0.68423  0.25544  1.0000
  C   C3257     1.0  0.96903  0.82253  0.44306  1.0000
  C   C3258     1.0  0.94609  0.94587  0.34425  1.0000
  C   C3259     1.0  0.87131  0.80691  0.44661  1.0000
  H   H3887     1.0  0.55779  0.79178  0.43669  1.0000
  H   H3888     1.0  0.71013  0.70412  0.25228  1.0000
  H   H3889     1.0  0.90340  0.92338  0.27319  1.0000
  C   C3260     1.0  0.53462  0.79087  0.33853  1.0000
  H   H3890     1.0  0.62989  0.68241  0.25750  1.0000
  C   C3261     1.0  0.81646  0.81751  0.35051  1.0000
  C   C3262     1.0  0.92833  0.88489  0.27725  1.0000
  C   C3263     1.0  0.75303  0.83195  0.25078  1.0000
  H   H3891     1.0  0.88266  0.89922  0.32218  1.0000
  H   H3892     1.0  0.54271  0.86690  0.32069  1.0000
  H   H3893     1.0  0.57481  0.69807  0.24369  1.0000
  H   H3894     1.0  0.96817  0.93611  0.29346  1.0000
  Fe  Fe446     1.0  0.67761  0.65809  0.24737  1.0000
  H   H3895     1.0  0.58022  0.66465  0.27227  1.0000
  H   H3896     1.0  0.56257  0.82024  0.32309  1.0000
  N   N215      1.0  0.55351  0.81635  0.44583  1.0000
  H   H3897     1.0  0.50493  0.77600  0.35753  1.0000
  H   H3898     1.0  0.58040  0.73963  0.25033  1.0000
  H   H3899     1.0  0.82059  0.73012  0.26798  1.0000
  C   C3264     1.0  0.87764  0.80526  0.40134  1.0000
  C   C3265     1.0  0.56046  0.82478  0.45655  1.0000
  H   H3900     1.0  0.84476  0.77837  0.23525  1.0000
  H   H3901     1.0  0.53795  0.73505  0.28118  1.0000
  H   H3902     1.0  0.57937  0.72682  0.23520  1.0000
  C   C3266     1.0  0.85221  0.79871  0.39445  1.0000
  H   H3903     1.0  0.87599  0.92887  0.31949  1.0000
  H   H3904     1.0  0.68083  0.85584  0.47451  1.0000
  H   H3905     1.0  0.85934  0.80133  0.45402  1.0000
  H   H3906     1.0  0.86170  0.75308  0.27369  1.0000
  C   C3267     1.0  0.73220  0.79120  0.26164  1.0000
  H   H3907     1.0  0.86642  0.82097  0.44010  1.0000
  C   C3268     1.0  0.56063  0.69894  0.24902  1.0000
  H   H3908     1.0  0.89616  0.81826  0.41947  1.0000
  C   C3269     1.0  0.89933  0.80379  0.42566  1.0000
  N   N216      1.0  0.67299  0.80485  0.37504  1.0000
  C   C3270     1.0  0.65751  0.81956  0.37153  1.0000
  C   C3271     1.0  0.68685  0.80567  0.35825  1.0000
  C   C3272     1.0  0.66736  0.78753  0.37898  1.0000
  C   C3273     1.0  0.67919  0.80643  0.39057  1.0000
  C   C3274     1.0  0.69720  0.80711  0.38981  1.0000
  C   C3275     1.0  0.66716  0.80675  0.40735  1.0000
  C   C3276     1.0  0.70269  0.80800  0.40494  1.0000
  C   C3277     1.0  0.67280  0.80765  0.42237  1.0000
  C   C3278     1.0  0.69055  0.80821  0.42118  1.0000
  H   H3909     1.0  0.66112  0.83277  0.36904  1.0000
  H   H3910     1.0  0.65286  0.81905  0.35958  1.0000
  H   H3911     1.0  0.64570  0.81909  0.38276  1.0000
  H   H3912     1.0  0.69152  0.81849  0.35434  1.0000
  H   H3913     1.0  0.68170  0.80449  0.34686  1.0000
  H   H3914     1.0  0.69860  0.79447  0.35950  1.0000
  H   H3915     1.0  0.65577  0.78652  0.39042  1.0000
  H   H3916     1.0  0.66331  0.78538  0.36736  1.0000
  H   H3917     1.0  0.67849  0.77614  0.38235  1.0000
  H   H3918     1.0  0.70745  0.80656  0.37780  1.0000
  H   H3919     1.0  0.65333  0.80589  0.40910  1.0000
  H   H3920     1.0  0.71657  0.80814  0.40419  1.0000
  H   H3921     1.0  0.66340  0.80754  0.43508  1.0000
  H   H3922     1.0  0.69501  0.80861  0.43289  1.0000
  C   C3279     1.0  0.55271  0.84268  0.45848  1.0000
  H   H3923     1.0  0.49656  0.71048  0.30286  1.0000
  H   H3924     1.0  0.51437  0.78087  0.30775  1.0000
  H   H3925     1.0  0.82139  0.77398  0.31880  1.0000
  H   H3926     1.0  0.81454  0.82359  0.36221  1.0000
  C   C3280     1.0  0.80893  0.76887  0.32152  1.0000
  H   H3927     1.0  0.93952  0.92856  0.30963  1.0000
  N   N217      1.0  0.66091  0.87244  0.41283  1.0000
  C   C3281     1.0  0.67461  0.88370  0.40626  1.0000
  C   C3282     1.0  0.64630  0.88108  0.42585  1.0000
  C   C3283     1.0  0.66942  0.85478  0.42232  1.0000
  C   C3284     1.0  0.65343  0.87008  0.39846  1.0000
  C   C3285     1.0  0.65860  0.87821  0.38018  1.0000
  C   C3286     1.0  0.64027  0.85956  0.40263  1.0000
  C   C3287     1.0  0.65081  0.87607  0.36709  1.0000
  C   C3288     1.0  0.63257  0.85753  0.38946  1.0000
  C   C3289     1.0  0.63773  0.86586  0.37173  1.0000
  H   H3928     1.0  0.66892  0.89749  0.39970  1.0000
  H   H3929     1.0  0.67990  0.88521  0.41741  1.0000
  H   H3930     1.0  0.68638  0.87768  0.39688  1.0000
  H   H3931     1.0  0.63872  0.89389  0.41917  1.0000
  H   H3932     1.0  0.65154  0.88406  0.43629  1.0000
  H   H3933     1.0  0.63647  0.87252  0.43307  1.0000
  H   H3934     1.0  0.68010  0.84755  0.41291  1.0000
  H   H3935     1.0  0.67568  0.85615  0.43284  1.0000
  H   H3936     1.0  0.65965  0.84608  0.42926  1.0000
  H   H3937     1.0  0.66851  0.88643  0.37564  1.0000
  H   H3938     1.0  0.63565  0.85304  0.41620  1.0000
  H   H3939     1.0  0.65479  0.88248  0.35324  1.0000
  H   H3940     1.0  0.62243  0.84954  0.39301  1.0000
  H   H3941     1.0  0.63164  0.86430  0.36156  1.0000
  Fe  Fe447     1.0  0.64320  0.65039  0.24381  1.0000
  H   H3942     1.0  0.74180  0.78223  0.26982  1.0000
  N   N218      1.0  0.91343  0.85493  0.46377  1.0000
  H   H3943     1.0  0.83499  0.78517  0.41656  1.0000
  Fe  Fe448     1.0  0.65398  0.88776  0.47023  1.0000
  C   C3290     1.0  0.94900  0.97636  0.27450  1.0000
  H   H3944     1.0  0.84530  0.75723  0.30351  1.0000
  C   C3291     1.0  0.50866  0.84718  0.34651  1.0000
  C   C3292     1.0  0.96803  0.85139  0.42287  1.0000
  S   S890      1.0  0.50881  0.86873  0.31289  1.0000
  H   H3945     1.0  0.50039  0.80290  0.30404  1.0000
  H   H3946     1.0  0.92219  0.87279  0.47458  1.0000
  C   C3293     1.0  0.50600  0.87786  0.38760  1.0000
  H   H3947     1.0  0.90862  0.79655  0.41542  1.0000
  C   C3294     1.0  0.88665  0.85614  0.45092  1.0000
  H   H3948     1.0  0.87648  0.77180  0.45040  1.0000
  H   H3949     1.0  0.71765  0.83577  0.24810  1.0000
  H   H3950     1.0  0.54973  0.82093  0.41883  1.0000
  H   H3951     1.0  0.71342  0.80991  0.28520  1.0000
  C   C3295     1.0  0.92126  0.86963  0.25178  1.0000
  H   H3952     1.0  0.96822  0.91795  0.32147  1.0000
  H   H3953     1.0  0.56207  0.78880  0.45844  1.0000
  C   C3296     1.0  0.94152  0.96261  0.27334  1.0000
  C   C3297     1.0  0.93284  0.91947  0.35431  1.0000
  H   H3954     1.0  0.66585  0.73951  0.30743  1.0000
  H   H3955     1.0  0.78586  0.75152  0.31767  1.0000
  C   C3298     1.0  0.97413  0.89275  0.27439  1.0000
  H   H3956     1.0  0.84363  0.87707  0.25631  1.0000
  C   C3299     1.0  0.91634  0.86285  0.27042  1.0000
  H   H3957     1.0  0.87132  0.81256  0.37520  1.0000
  C   C3300     1.0  0.53438  0.81596  0.45365  1.0000
  C   C3301     1.0  0.81026  0.85723  0.31212  1.0000
  C   C3302     1.0  0.97690  0.87722  0.26786  1.0000
  Fe  Fe449     1.0  0.61809  0.87918  0.47269  1.0000
  S   S891      1.0  0.90757  0.92421  0.23072  1.0000
  H   H3958     1.0  0.84915  0.83919  0.47041  1.0000
  H   H3959     1.0  0.82189  0.81625  0.31526  1.0000
  H   H3960     1.0  0.52585  0.82959  0.45318  1.0000
  H   H3961     1.0  0.85213  0.78387  0.43844  1.0000
  H   H3962     1.0  0.97913  0.84391  0.44644  1.0000
  H   H3963     1.0  0.78775  0.74646  0.34048  1.0000
  C   C3303     1.0  0.79495  0.74397  0.32697  1.0000
  H   H3964     1.0  0.81581  0.74117  0.34873  1.0000
  H   H3965     1.0  0.73633  0.80726  0.28650  1.0000
  H   H3966     1.0  0.79656  0.72943  0.32771  1.0000
  H   H3967     1.0  0.98552  0.91989  0.28343  1.0000
  C   C3304     1.0  0.84226  0.74121  0.26907  1.0000
  C   C3305     1.0  0.92658  0.83939  0.47116  1.0000
  H   H3968     1.0  0.50195  0.87671  0.40231  1.0000
  H   H3969     1.0  0.80109  0.77180  0.33470  1.0000
  H   H3970     1.0  0.67452  0.68332  0.31203  1.0000
  C   C3306     1.0  0.70211  0.69978  0.26526  1.0000
  C   C3307     1.0  0.57475  0.81567  0.46548  1.0000
  H   H3971     1.0  0.80119  0.77693  0.31121  1.0000
  H   H3972     1.0  0.82670  0.72494  0.33496  1.0000
  N   N219      1.0  0.88281  0.79646  0.43323  1.0000
  H   H3973     1.0  0.65144  0.76103  0.30736  1.0000
  C   C3308     1.0  0.85709  0.91640  0.23590  1.0000
  C   C3309     1.0  0.52437  0.69851  0.26253  1.0000
  H   H3974     1.0  0.71297  0.88065  0.42668  1.0000
  H   H3975     1.0  0.84424  0.79958  0.38490  1.0000
  C   C3310     1.0  0.50250  0.79009  0.31386  1.0000
  C   C3311     1.0  0.54673  0.74572  0.24596  1.0000
  C   C3312     1.0  0.55379  0.68443  0.24874  1.0000
  H   H3976     1.0  0.53258  0.80879  0.46788  1.0000
  N   N220      1.0  0.49322  0.89207  0.37830  1.0000
  C   C3313     1.0  0.69168  0.68717  0.26740  1.0000
  C   C3314     1.0  0.90802  0.84713  0.24573  1.0000
  C   C3315     1.0  0.82593  0.73588  0.27598  1.0000
  C   C3316     1.0  0.84902  0.74884  0.27919  1.0000
  H   H3977     1.0  0.65029  0.74758  0.29277  1.0000
  H   H3978     1.0  0.94322  0.84831  0.23055  1.0000
  C   C3317     1.0  0.75016  0.81473  0.25169  1.0000
  S   S892      1.0  0.68064  0.89091  0.45213  1.0000
  H   H3979     1.0  0.88897  0.81165  0.39624  1.0000
  H   H3980     1.0  0.86255  0.85750  0.44222  1.0000
  N   N221      1.0  0.50465  0.79250  0.33111  1.0000
  C   C3318     1.0  0.82256  0.74636  0.30353  1.0000
  N   N222      1.0  0.81248  0.74955  0.32140  1.0000
  C   C3319     1.0  0.92003  0.87033  0.28289  1.0000
  C   C3320     1.0  0.58852  0.67269  0.27403  1.0000
  H   H3981     1.0  0.71094  0.71593  0.27809  1.0000
  C   C3321     1.0  0.82322  0.73948  0.33503  1.0000
  S   S893      1.0  0.60038  0.87686  0.45554  1.0000
  C   C3322     1.0  0.56320  0.79769  0.44497  1.0000
  H   H3982     1.0  0.89120  0.88173  0.23942  1.0000
  H   H3983     1.0  0.90475  0.84238  0.23511  1.0000
  C   C3323     1.0  0.49965  0.89330  0.35873  1.0000
  H   H3984     1.0  0.93438  0.88999  0.23255  1.0000
  H   H3985     1.0  0.81170  0.80771  0.44188  1.0000
  H   H3986     1.0  0.81111  0.80504  0.35591  1.0000
  H   H3987     1.0  0.84966  0.73955  0.25580  1.0000
  H   H3988     1.0  0.56269  0.67326  0.24331  1.0000
  C   C3324     1.0  0.60569  0.67239  0.26338  1.0000
  H   H3989     1.0  0.94009  0.90302  0.25471  1.0000
  S   S894      1.0  0.96355  0.95637  0.34338  1.0000
  H   H3990     1.0  0.89589  0.76911  0.43273  1.0000
  C   C3325     1.0  0.94295  0.91624  0.30415  1.0000
  H   H3991     1.0  0.90682  0.80279  0.43611  1.0000
  H   H3992     1.0  0.53395  0.77859  0.34828  1.0000
  C   C3326     1.0  0.96031  0.81731  0.43252  1.0000
  H   H3993     1.0  0.72335  0.81878  0.23516  1.0000
  H   H3994     1.0  0.49162  0.68151  0.33839  1.0000
  H   H3995     1.0  0.93591  0.90639  0.31440  1.0000
  H   H3996     1.0  0.97382  0.84991  0.27401  1.0000
  H   H3997     1.0  0.96500  0.92912  0.27515  1.0000
  C   C3327     1.0  0.82227  0.80731  0.46445  1.0000
  S   S895      1.0  0.97597  0.80724  0.46164  1.0000
  H   H3998     1.0  0.92835  0.82778  0.46496  1.0000
  C   C3328     1.0  0.54939  0.79837  0.33654  1.0000
  H   H3999     1.0  0.93717  0.91955  0.29200  1.0000
  H   H4000     1.0  0.91705  0.83575  0.25269  1.0000
  S   S896      1.0  0.50086  0.74641  0.30046  1.0000
  S   S897      1.0  0.69323  0.67777  0.24896  1.0000
  C   C3329     1.0  0.52110  0.79934  0.32845  1.0000
  H   H4001     1.0  0.49053  0.78437  0.31554  1.0000
  C   C3330     1.0  0.88820  0.77766  0.44250  1.0000
  C   C3331     1.0  0.92210  0.86220  0.44519  1.0000
  C   C3332     1.0  0.90970  0.86890  0.47433  1.0000
  C   C3333     1.0  0.95514  0.82928  0.41733  1.0000
  H   H4002     1.0  0.94851  0.82522  0.40916  1.0000
  N   N223      1.0  0.73235  0.81029  0.25997  1.0000
  C   C3334     1.0  0.68208  0.68811  0.29894  1.0000
  H   H4003     1.0  0.93167  0.96815  0.32794  1.0000
  C   C3335     1.0  0.55250  0.73173  0.27532  1.0000
  H   H4004     1.0  0.77191  0.84930  0.24353  1.0000
  H   H4005     1.0  0.62362  0.84154  0.46199  1.0000
  C   C3336     1.0  0.76982  0.83632  0.24344  1.0000
  H   H4006     1.0  0.89287  0.94639  0.27318  1.0000
  H   H4007     1.0  0.87852  0.80721  0.45683  1.0000
  C   C3337     1.0  0.53108  0.71305  0.26296  1.0000
  C   C3338     1.0  0.55132  0.81425  0.32430  1.0000
  S   S898      1.0  0.85803  0.93664  0.24061  1.0000
  C   C3339     1.0  0.96636  0.89322  0.29265  1.0000
  H   H4008     1.0  0.53044  0.67300  0.25513  1.0000
  C   C3340     1.0  0.53852  0.82269  0.31395  1.0000
  N   N224      1.0  0.91639  0.86299  0.23822  1.0000
  C   C3341     1.0  0.86750  0.80597  0.38900  1.0000
  H   H4009     1.0  0.80334  0.73444  0.29712  1.0000
  H   H4010     1.0  0.76941  0.82376  0.46688  1.0000
  H   H4011     1.0  0.90041  0.88112  0.46892  1.0000
  C   C3342     1.0  0.81551  0.79975  0.45410  1.0000
  C   C3343     1.0  0.86984  0.85230  0.45298  1.0000
  Fe  Fe450     1.0  0.91940  0.94645  0.23195  1.0000
  H   H4012     1.0  0.89502  0.85030  0.25515  1.0000
  C   C3344     1.0  0.50451  0.77507  0.34386  1.0000
  H   H4013     1.0  0.94002  0.84260  0.46881  1.0000
  S   S899      1.0  0.80655  0.77189  0.44606  1.0000
  C   C3345     1.0  0.97074  0.92420  0.28740  1.0000
  H   H4014     1.0  0.54843  0.74418  0.23200  1.0000
  H   H4015     1.0  0.71932  0.65117  0.27356  1.0000
  H   H4016     1.0  0.52886  0.80910  0.44631  1.0000
  C   C3346     1.0  0.81438  0.78175  0.45923  1.0000
  H   H4017     1.0  0.92424  0.85266  0.43631  1.0000
  H   H4018     1.0  0.93540  0.86493  0.44452  1.0000
  C   C3347     1.0  0.72622  0.81424  0.27818  1.0000
  H   H4019     1.0  0.58353  0.71598  0.25725  1.0000
  C   C3348     1.0  0.84962  0.88691  0.24591  1.0000
  C   C3349     1.0  0.76210  0.79037  0.47688  1.0000
  C   C3350     1.0  0.97186  0.86186  0.27915  1.0000
  C   C3351     1.0  0.93364  0.89164  0.25910  1.0000
  H   H4020     1.0  0.54190  0.85053  0.45202  1.0000
  H   H4021     1.0  0.51027  0.69839  0.26765  1.0000
  C   C3352     1.0  0.89637  0.84977  0.46492  1.0000
  H   H4022     1.0  0.97802  0.90425  0.26481  1.0000
  C   C3353     1.0  0.49351  0.90939  0.38212  1.0000
  C   C3354     1.0  0.96948  0.90557  0.31662  1.0000
  H   H4023     1.0  0.70564  0.81803  0.25477  1.0000
  H   H4024     1.0  0.55187  0.75771  0.24544  1.0000
  S   S900      1.0  0.64498  0.86195  0.47533  1.0000
  H   H4025     1.0  0.55326  0.86478  0.46945  1.0000
  C   C3355     1.0  0.55895  0.85094  0.46858  1.0000
  H   H4026     1.0  0.52808  0.66104  0.31444  1.0000
  H   H4027     1.0  0.79287  0.79737  0.23118  1.0000
  H   H4028     1.0  0.79722  0.82719  0.23108  1.0000
  C   C3356     1.0  0.72599  0.66271  0.30907  1.0000
  H   H4029     1.0  0.97803  0.97390  0.38712  1.0000
  H   H4030     1.0  0.97272  0.97460  0.36649  1.0000
  C   C3357     1.0  0.58071  0.82400  0.47574  1.0000
  C   C3358     1.0  0.98203  0.97858  0.37248  1.0000
  C   C3359     1.0  0.52804  0.65163  0.30662  1.0000
  C   C3360     1.0  0.71942  0.64952  0.32274  1.0000
  H   H4031     1.0  0.55283  0.65567  0.28870  1.0000
  C   C3361     1.0  0.71982  0.64977  0.28738  1.0000
  C   C3362     1.0  0.75657  0.82190  0.47636  1.0000
  C   C3363     1.0  0.85880  0.88264  0.22941  1.0000
  H   H4032     1.0  0.71884  0.64984  0.33648  1.0000
  H   H4033     1.0  0.95144  0.97679  0.28713  1.0000
  H   H4034     1.0  0.49043  0.80831  0.35076  1.0000
  H   H4035     1.0  0.94137  0.97342  0.22897  1.0000
  C   C3364     1.0  0.57288  0.84159  0.47724  1.0000
  S   S901      1.0  0.89450  0.96715  0.22830  1.0000
  Fe  Fe451     1.0  0.63727  0.86512  0.50386  1.0000
  H   H4036     1.0  0.63277  0.93909  0.63939  1.0000
  S   S902      1.0  0.64585  0.84274  0.52595  1.0000
  S   S903      1.0  0.64806  0.88989  0.49886  1.0000
  Fe  Fe452     1.0  0.67054  0.85802  0.60604  1.0000
  S   S904      1.0  0.70033  0.85470  0.59748  1.0000
  S   S905      1.0  0.65274  0.87590  0.58768  1.0000
  Fe  Fe453     1.0  0.67210  0.83775  0.64439  1.0000
  S   S906      1.0  0.70206  0.83226  0.63873  1.0000
  S   S907      1.0  0.65512  0.83476  0.67235  1.0000
  Fe  Fe454     1.0  0.69914  0.86066  0.62396  1.0000
  S   S908      1.0  0.71386  0.87969  0.62762  1.0000
  Fe  Fe455     1.0  0.70070  0.82656  0.61283  1.0000
  S   S909      1.0  0.71948  0.80370  0.60104  1.0000
  S   S910      1.0  0.66938  0.86670  0.63105  1.0000
  S   S911      1.0  0.67064  0.82938  0.61976  1.0000
  H   H4037     1.0  0.90332  0.86425  0.48849  1.0000
  C   C3365     1.0  0.86917  0.65542  0.54649  1.0000
  H   H4038     1.0  0.87900  0.66349  0.53777  1.0000
  H   H4039     1.0  0.60711  0.93874  0.66131  1.0000
  C   C3366     1.0  0.61112  0.93393  0.67403  1.0000
  H   H4040     1.0  0.62039  0.95702  0.56837  1.0000
  H   H4041     1.0  0.59305  0.93799  0.71716  1.0000
  C   C3367     1.0  0.64794  0.89829  0.66333  1.0000
  Fe  Fe456     1.0  0.66913  0.96852  0.67589  1.0000
  Fe  Fe457     1.0  0.84372  0.75824  0.54851  1.0000
  S   S912      1.0  0.84471  0.77235  0.56924  1.0000
  S   S913      1.0  0.84924  0.72817  0.55285  1.0000
  Fe  Fe458     1.0  0.83974  0.79220  0.52015  1.0000
  S   S914      1.0  0.84101  0.80907  0.53840  1.0000
  S   S915      1.0  0.83734  0.80656  0.49202  1.0000
  Fe  Fe459     1.0  0.86307  0.78697  0.54710  1.0000
  S   S916      1.0  0.88909  0.78814  0.55295  1.0000
  Fe  Fe460     1.0  0.82234  0.79325  0.55889  1.0000
  S   S917      1.0  0.80073  0.81002  0.57625  1.0000
  S   S918      1.0  0.86367  0.77143  0.52698  1.0000
  S   S919      1.0  0.81949  0.77779  0.53997  1.0000
  H   H4042     1.0  0.88306  0.66897  0.56549  1.0000
  S   S920      1.0  0.95665  0.81358  0.50843  1.0000
  H   H4043     1.0  0.92280  0.83511  0.48591  1.0000
  H   H4044     1.0  0.82174  0.67434  0.57371  1.0000
  H   H4045     1.0  0.77288  0.81107  0.50391  1.0000
  S   S921      1.0  0.92717  0.65344  0.57956  1.0000
  H   H4046     1.0  0.62099  0.92961  0.60420  1.0000
  Fe  Fe461     1.0  0.95328  0.84206  0.50990  1.0000
  S   S922      1.0  0.92412  0.85499  0.51556  1.0000
  S   S923      1.0  0.67628  0.94480  0.72384  1.0000
  C   C3368     1.0  0.97946  0.70612  0.55709  1.0000
  H   H4047     1.0  0.63427  0.97069  0.66541  1.0000
  C   C3369     1.0  0.97634  0.66540  0.59776  1.0000
  S   S924      1.0  0.97931  0.78497  0.54686  1.0000
  C   C3370     1.0  0.60265  0.93369  0.70576  1.0000
  C   C3371     1.0  0.98372  0.67757  0.60223  1.0000
  Fe  Fe462     1.0  0.67751  0.93253  0.70067  1.0000
  S   S925      1.0  0.68079  0.90289  0.70199  1.0000
  N   N225      1.0  0.94580  0.75268  0.53119  1.0000
  S   S926      1.0  0.65184  0.95011  0.69400  1.0000
  C   C3372     1.0  0.62918  0.94231  0.51019  1.0000
  H   H4048     1.0  0.98799  0.69436  0.56333  1.0000
  C   C3373     1.0  0.96362  0.70473  0.55347  1.0000
  C   C3374     1.0  0.60551  0.96298  0.53382  1.0000
  H   H4049     1.0  0.58598  0.94881  0.53300  1.0000
  H   H4050     1.0  0.65450  0.94059  0.65565  1.0000
  H   H4051     1.0  0.72341  0.79726  0.54649  1.0000
  C   C3375     1.0  0.70840  0.80110  0.52629  1.0000
  H   H4052     1.0  0.60818  0.97065  0.65355  1.0000
  C   C3376     1.0  0.63624  0.92423  0.64310  1.0000
  C   C3377     1.0  0.63182  0.91763  0.69333  1.0000
  C   C3378     1.0  0.67138  0.94457  0.60610  1.0000
  H   H4053     1.0  0.62249  0.91897  0.72113  1.0000
  C   C3379     1.0  0.89733  0.80787  0.54403  1.0000
  C   C3380     1.0  0.88803  0.82286  0.53384  1.0000
  C   C3381     1.0  0.89567  0.83799  0.52607  1.0000
  C   C3382     1.0  0.91276  0.83792  0.52816  1.0000
  C   C3383     1.0  0.92156  0.82326  0.53909  1.0000
  C   C3384     1.0  0.91392  0.80827  0.54693  1.0000
  H   H4054     1.0  0.87507  0.82274  0.53178  1.0000
  H   H4055     1.0  0.88857  0.84948  0.51804  1.0000
  H   H4056     1.0  0.93448  0.82336  0.54129  1.0000
  H   H4057     1.0  0.92106  0.79686  0.55498  1.0000
  H   H4058     1.0  0.68853  0.90075  0.60528  1.0000
  N   N226      1.0  0.85907  0.66307  0.56235  1.0000
  H   H4059     1.0  0.86538  0.82749  0.49513  1.0000
  S   S927      1.0  0.66786  0.98202  0.64750  1.0000
  C   C3385     1.0  0.59973  0.95037  0.52831  1.0000
  S   S928      1.0  0.89395  0.68409  0.61153  1.0000
  H   H4060     1.0  0.83059  0.77098  0.49749  1.0000
  H   H4061     1.0  0.50953  0.96417  0.60749  1.0000
  H   H4062     1.0  0.78669  0.80146  0.48575  1.0000
  S   S929      1.0  0.60924  0.87966  0.50190  1.0000
  C   C3386     1.0  0.88189  0.69660  0.59501  1.0000
  C   C3387     1.0  0.86503  0.70732  0.59999  1.0000
  C   C3388     1.0  0.85518  0.71749  0.58701  1.0000
  C   C3389     1.0  0.86228  0.71718  0.56896  1.0000
  C   C3390     1.0  0.87930  0.70675  0.56395  1.0000
  C   C3391     1.0  0.88911  0.69651  0.57694  1.0000
  H   H4063     1.0  0.85942  0.70749  0.61395  1.0000
  H   H4064     1.0  0.84196  0.72536  0.59098  1.0000
  H   H4065     1.0  0.88483  0.70646  0.55000  1.0000
  H   H4066     1.0  0.90226  0.68857  0.57297  1.0000
  S   S930      1.0  0.60154  0.98040  0.61806  1.0000
  H   H4067     1.0  0.63652  0.89185  0.66484  1.0000
  C   C3392     1.0  0.61921  0.92290  0.70800  1.0000
  H   H4068     1.0  0.65857  0.89401  0.65205  1.0000
  C   C3393     1.0  0.87175  0.66252  0.57346  1.0000
  H   H4069     1.0  0.65340  0.91601  0.56473  1.0000
  H   H4070     1.0  0.69662  0.81368  0.69545  1.0000
  H   H4071     1.0  0.86179  0.68962  0.54742  1.0000
  C   C3394     1.0  0.62827  0.92315  0.67581  1.0000
  H   H4072     1.0  0.94953  0.77145  0.54465  1.0000
  H   H4073     1.0  0.66461  0.90552  0.58941  1.0000
  C   C3395     1.0  0.62295  0.96576  0.52707  1.0000
  H   H4074     1.0  0.91798  0.76614  0.53360  1.0000
  N   N227      1.0  0.64222  0.91803  0.66039  1.0000
  H   H4075     1.0  0.65881  0.93770  0.55490  1.0000
  H   H4076     1.0  0.63522  0.82488  0.70750  1.0000
  H   H4077     1.0  0.65375  0.89256  0.67539  1.0000
  C   C3396     1.0  0.63488  0.95517  0.51551  1.0000
  C   C3397     1.0  0.65668  0.81410  0.68766  1.0000
  C   C3398     1.0  0.64520  0.81326  0.70448  1.0000
  H   H4078     1.0  0.75177  0.79865  0.52574  1.0000
  Fe  Fe463     1.0  0.69139  0.96408  0.70323  1.0000
  C   C3399     1.0  0.66992  0.78264  0.69654  1.0000
  C   C3400     1.0  0.66915  0.79877  0.68369  1.0000
  Fe  Fe464     1.0  0.97803  0.80835  0.52381  1.0000
  H   H4079     1.0  0.67934  0.77072  0.69337  1.0000
  H   H4080     1.0  0.67799  0.79928  0.67070  1.0000
  C   C3401     1.0  0.74183  0.80606  0.59245  1.0000
  C   C3402     1.0  0.75477  0.79191  0.58626  1.0000
  C   C3403     1.0  0.77288  0.79321  0.58042  1.0000
  C   C3404     1.0  0.77807  0.80864  0.58090  1.0000
  C   C3405     1.0  0.76501  0.82301  0.58646  1.0000
  C   C3406     1.0  0.74694  0.82178  0.59210  1.0000
  H   H4081     1.0  0.75085  0.77975  0.58642  1.0000
  H   H4082     1.0  0.78289  0.78206  0.57620  1.0000
  H   H4083     1.0  0.76895  0.83506  0.58661  1.0000
  H   H4084     1.0  0.73703  0.83286  0.59651  1.0000
  C   C3407     1.0  0.70546  0.88557  0.64857  1.0000
  C   C3408     1.0  0.70894  0.90090  0.65149  1.0000
  C   C3409     1.0  0.70176  0.90607  0.66798  1.0000
  C   C3410     1.0  0.69135  0.89578  0.68176  1.0000
  C   C3411     1.0  0.68845  0.88006  0.67901  1.0000
  C   C3412     1.0  0.69517  0.87515  0.66235  1.0000
  H   H4085     1.0  0.71703  0.90892  0.64092  1.0000
  H   H4086     1.0  0.70447  0.91795  0.67002  1.0000
  H   H4087     1.0  0.68058  0.87192  0.68956  1.0000
  H   H4088     1.0  0.69245  0.86325  0.66020  1.0000
  C   C3413     1.0  0.64657  0.85139  0.54401  1.0000
  C   C3414     1.0  0.63844  0.86915  0.54493  1.0000
  C   C3415     1.0  0.64020  0.87646  0.55856  1.0000
  C   C3416     1.0  0.65008  0.86605  0.57134  1.0000
  C   C3417     1.0  0.65804  0.84820  0.57060  1.0000
  C   C3418     1.0  0.65618  0.84084  0.55699  1.0000
  H   H4089     1.0  0.63059  0.87723  0.53528  1.0000
  H   H4090     1.0  0.63388  0.89022  0.55916  1.0000
  H   H4091     1.0  0.66563  0.84008  0.58049  1.0000
  H   H4092     1.0  0.66238  0.82706  0.55641  1.0000
  C   C3419     1.0  0.66616  0.91678  0.59373  1.0000
  H   H4093     1.0  0.63566  0.85394  0.71010  1.0000
  H   H4094     1.0  0.63304  0.91112  0.59375  1.0000
  H   H4095     1.0  0.64842  0.95727  0.51025  1.0000
  N   N228      1.0  0.75460  0.82366  0.64285  1.0000
  C   C3420     1.0  0.74941  0.84026  0.62977  1.0000
  C   C3421     1.0  0.76913  0.82579  0.65027  1.0000
  C   C3422     1.0  0.76201  0.80892  0.63287  1.0000
  C   C3423     1.0  0.73903  0.82044  0.65753  1.0000
  C   C3424     1.0  0.73256  0.80430  0.66222  1.0000
  C   C3425     1.0  0.72980  0.83372  0.66768  1.0000
  C   C3426     1.0  0.71749  0.80197  0.67583  1.0000
  C   C3427     1.0  0.71482  0.83119  0.68131  1.0000
  C   C3428     1.0  0.70856  0.81543  0.68525  1.0000
  H   H4096     1.0  0.74555  0.85244  0.63554  1.0000
  H   H4097     1.0  0.76051  0.84258  0.61804  1.0000
  H   H4098     1.0  0.73780  0.83972  0.62461  1.0000
  H   H4099     1.0  0.77307  0.81382  0.66057  1.0000
  H   H4100     1.0  0.76507  0.83760  0.65665  1.0000
  H   H4101     1.0  0.78127  0.82774  0.63967  1.0000
  H   H4102     1.0  0.75170  0.80666  0.62689  1.0000
  H   H4103     1.0  0.77336  0.81190  0.62159  1.0000
  H   H4104     1.0  0.76730  0.79619  0.64156  1.0000
  H   H4105     1.0  0.73852  0.79345  0.65526  1.0000
  H   H4106     1.0  0.73387  0.84636  0.66491  1.0000
  C   C3429     1.0  0.70905  0.80365  0.50809  1.0000
  H   H4107     1.0  0.70781  0.84169  0.68859  1.0000
  C   C3430     1.0  0.95720  0.73695  0.54056  1.0000
  C   C3431     1.0  0.98698  0.65406  0.58642  1.0000
  H   H4108     1.0  0.64697  0.91976  0.63197  1.0000
  H   H4109     1.0  0.64964  0.96102  0.59487  1.0000
  H   H4110     1.0  0.58568  0.94756  0.68713  1.0000
  H   H4111     1.0  0.69332  0.92540  0.61605  1.0000
  H   H4112     1.0  0.62450  0.91877  0.64348  1.0000
  H   H4113     1.0  0.65916  0.84622  0.70372  1.0000
  H   H4114     1.0  0.66913  0.92154  0.64758  1.0000
  C   C3432     1.0  0.61144  0.94022  0.51628  1.0000
  H   H4115     1.0  0.81890  0.75748  0.47895  1.0000
  H   H4116     1.0  0.94095  0.71784  0.54209  1.0000
  N   N229      1.0  0.64036  0.93648  0.58029  1.0000
  C   C3433     1.0  0.98446  0.72259  0.55248  1.0000
  Fe  Fe465     1.0  0.62058  0.90443  0.49473  1.0000
  C   C3434     1.0  0.82630  0.77905  0.48546  1.0000
  C   C3435     1.0  0.68254  0.92775  0.60904  1.0000
  S   S931      1.0  0.60265  0.92713  0.50729  1.0000
  H   H4117     1.0  0.67913  0.84282  0.72294  1.0000
  H   H4118     1.0  0.63822  0.93463  0.50077  1.0000
  H   H4119     1.0  0.96261  0.75026  0.50550  1.0000
  H   H4120     1.0  0.89443  0.83437  0.49233  1.0000
  C   C3436     1.0  0.95011  0.76994  0.53093  1.0000
  S   S932      1.0  0.97262  0.84849  0.48397  1.0000
  H   H4121     1.0  0.71240  0.78982  0.67883  1.0000
  N   N230      1.0  0.69884  0.86300  0.51548  1.0000
  C   C3437     1.0  0.68951  0.85018  0.51288  1.0000
  C   C3438     1.0  0.68589  0.87518  0.52655  1.0000
  C   C3439     1.0  0.70470  0.87403  0.49762  1.0000
  C   C3440     1.0  0.71366  0.85306  0.52472  1.0000
  C   C3441     1.0  0.70993  0.84282  0.54235  1.0000
  C   C3442     1.0  0.73197  0.85329  0.51681  1.0000
  C   C3443     1.0  0.72356  0.83381  0.55163  1.0000
  C   C3444     1.0  0.74554  0.84409  0.52621  1.0000
  C   C3445     1.0  0.74133  0.83445  0.54360  1.0000
  H   H4122     1.0  0.68414  0.84165  0.52565  1.0000
  H   H4123     1.0  0.67781  0.85715  0.50658  1.0000
  H   H4124     1.0  0.69861  0.84117  0.50415  1.0000
  H   H4125     1.0  0.67502  0.88364  0.51970  1.0000
  H   H4126     1.0  0.69265  0.88421  0.52989  1.0000
  H   H4127     1.0  0.67898  0.86786  0.53932  1.0000
  H   H4128     1.0  0.69313  0.88137  0.49118  1.0000
  H   H4129     1.0  0.71154  0.88430  0.49854  1.0000
  H   H4130     1.0  0.71373  0.86568  0.48818  1.0000
  H   H4131     1.0  0.69636  0.84183  0.54922  1.0000
  H   H4132     1.0  0.73614  0.86071  0.50350  1.0000
  H   H4133     1.0  0.72028  0.82635  0.56521  1.0000
  H   H4134     1.0  0.75941  0.84469  0.52013  1.0000
  H   H4135     1.0  0.75183  0.82754  0.55097  1.0000
  H   H4136     1.0  0.97543  0.68624  0.61109  1.0000
  S   S933      1.0  0.97345  0.83649  0.52715  1.0000
  H   H4137     1.0  0.85997  0.65471  0.53829  1.0000
  C   C3446     1.0  0.74141  0.80268  0.50143  1.0000
  H   H4138     1.0  0.69579  0.80046  0.53578  1.0000
  C   C3447     1.0  0.92657  0.75377  0.53983  1.0000
  C   C3448     1.0  0.74028  0.80012  0.52012  1.0000
  H   H4139     1.0  0.84163  0.68363  0.54719  1.0000
  C   C3449     1.0  0.77418  0.80078  0.49613  1.0000
  Fe  Fe466     1.0  0.91148  0.65757  0.60662  1.0000
  C   C3450     1.0  0.67986  0.91387  0.60294  1.0000
  H   H4140     1.0  0.59189  0.81697  0.48211  1.0000
  H   H4141     1.0  0.75257  0.83250  0.48433  1.0000
  H   H4142     1.0  0.94440  0.73879  0.51168  1.0000
  H   H4143     1.0  0.95995  0.69178  0.55698  1.0000
  H   H4144     1.0  0.94050  0.78163  0.52512  1.0000
  H   H4145     1.0  0.96326  0.75202  0.57967  1.0000
  N   N231      1.0  0.89361  0.74706  0.59814  1.0000
  C   C3451     1.0  0.88091  0.76385  0.60178  1.0000
  C   C3452     1.0  0.88922  0.74215  0.58323  1.0000
  C   C3453     1.0  0.89040  0.73297  0.61446  1.0000
  C   C3454     1.0  0.91262  0.74866  0.59327  1.0000
  C   C3455     1.0  0.92659  0.73320  0.59250  1.0000
  C   C3456     1.0  0.91788  0.76545  0.58813  1.0000
  C   C3457     1.0  0.94461  0.73443  0.58788  1.0000
  C   C3458     1.0  0.93596  0.76653  0.58337  1.0000
  C   C3459     1.0  0.94928  0.75106  0.58339  1.0000
  H   H4146     1.0  0.88077  0.77461  0.58957  1.0000
  H   H4147     1.0  0.86682  0.76201  0.60640  1.0000
  H   H4148     1.0  0.88420  0.76879  0.61223  1.0000
  H   H4149     1.0  0.89720  0.72889  0.58078  1.0000
  H   H4150     1.0  0.89179  0.75213  0.57062  1.0000
  H   H4151     1.0  0.87484  0.74159  0.58591  1.0000
  H   H4152     1.0  0.87598  0.73233  0.61903  1.0000
  H   H4153     1.0  0.89726  0.71932  0.61233  1.0000
  H   H4154     1.0  0.89499  0.73532  0.62564  1.0000
  H   H4155     1.0  0.92372  0.71999  0.59536  1.0000
  H   H4156     1.0  0.90827  0.77800  0.58741  1.0000
  H   H4157     1.0  0.95504  0.72241  0.58769  1.0000
  H   H4158     1.0  0.93972  0.77947  0.57949  1.0000
  C   C3460     1.0  0.64880  0.85576  0.71111  1.0000
  C   C3461     1.0  0.65476  0.93381  0.59013  1.0000
  C   C3462     1.0  0.61970  0.97524  0.64460  1.0000
  C   C3463     1.0  0.87145  0.83542  0.48274  1.0000
  C   C3464     1.0  0.65798  0.92574  0.65851  1.0000
  S   S934      1.0  0.71428  0.97461  0.70560  1.0000
  H   H4159     1.0  0.64464  0.90966  0.69577  1.0000
  H   H4160     1.0  0.61595  0.92731  0.58413  1.0000
  H   H4161     1.0  0.66351  0.92156  0.67080  1.0000
  H   H4162     1.0  0.63999  0.96429  0.56809  1.0000
  S   S935      1.0  0.69486  0.95017  0.68092  1.0000
  C   C3465     1.0  0.62703  0.92567  0.59108  1.0000
  H   H4163     1.0  0.67348  0.95536  0.61093  1.0000
  H   H4164     1.0  0.62345  0.96042  0.58864  1.0000
  C   C3466     1.0  0.84552  0.65248  0.57299  1.0000
  C   C3467     1.0  0.95272  0.71984  0.54515  1.0000
  H   H4165     1.0  0.63759  0.93351  0.55481  1.0000
  H   H4166     1.0  0.65010  0.86954  0.70384  1.0000
  C   C3468     1.0  0.65767  0.94765  0.59679  1.0000
  H   H4167     1.0  0.96244  0.66477  0.60316  1.0000
  C   C3469     1.0  0.82699  0.66021  0.57759  1.0000
  C   C3470     1.0  0.50327  0.97289  0.59681  1.0000
  C   C3471     1.0  0.64619  0.79732  0.71735  1.0000
  C   C3472     1.0  0.72398  0.79931  0.53228  1.0000
  C   C3473     1.0  0.63070  0.95538  0.57626  1.0000
  C   C3474     1.0  0.64793  0.93065  0.56299  1.0000
  C   C3475     1.0  0.97361  0.73781  0.54425  1.0000
  Fe  Fe467     1.0  0.97726  0.81937  0.48391  1.0000
  H   H4168     1.0  0.76275  0.77663  0.48520  1.0000
  H   H4169     1.0  0.92114  0.74265  0.53864  1.0000
  H   H4170     1.0  0.72507  0.80661  0.48182  1.0000
  H   H4171     1.0  0.59071  0.96645  0.49370  1.0000
  H   H4172     1.0  0.57801  0.84821  0.48466  1.0000
  C   C3476     1.0  0.88819  0.83931  0.48091  1.0000
  H   H4173     1.0  0.69690  0.80497  0.50347  1.0000
  Fe  Fe468     1.0  0.65208  0.96383  0.71531  1.0000
  C   C3477     1.0  0.65837  0.78187  0.71341  1.0000
  H   H4174     1.0  0.96358  0.77143  0.52268  1.0000
  C   C3478     1.0  0.94832  0.75102  0.51248  1.0000
  H   H4175     1.0  0.92432  0.75404  0.55420  1.0000
  H   H4176     1.0  0.94019  0.76271  0.50479  1.0000
  H   H4177     1.0  0.80049  0.65585  0.59074  1.0000
  H   H4178     1.0  0.97844  0.75008  0.54087  1.0000
  H   H4179     1.0  0.86500  0.66941  0.58478  1.0000
  N   N232      1.0  0.75833  0.80386  0.48808  1.0000
  C   C3479     1.0  0.72525  0.80452  0.49581  1.0000
  C   C3480     1.0  0.59858  0.93911  0.68883  1.0000
  H   H4180     1.0  0.84451  0.68926  0.56687  1.0000
  H   H4181     1.0  0.77649  0.78727  0.50489  1.0000
  H   H4182     1.0  0.67277  0.86633  0.72216  1.0000
  C   C3481     1.0  0.63446  0.97525  0.65131  1.0000
  C   C3482     1.0  0.85131  0.68214  0.55572  1.0000
  C   C3483     1.0  0.82774  0.79697  0.48011  1.0000
  H   H4183     1.0  0.59618  0.97111  0.54263  1.0000
  H   H4184     1.0  0.56192  0.97658  0.50263  1.0000
  C   C3484     1.0  0.59736  0.97650  0.48344  1.0000
  C   C3485     1.0  0.64925  0.98147  0.63975  1.0000
  H   H4185     1.0  0.61151  0.97306  0.48508  1.0000
  C   C3486     1.0  0.61967  0.98147  0.62638  1.0000
  C   C3487     1.0  0.81457  0.64970  0.58747  1.0000
  C   C3488     1.0  0.64765  0.83469  0.73934  1.0000
  C   C3489     1.0  0.51311  0.86239  0.85274  1.0000
  C   C3490     1.0  0.63709  0.86647  0.73866  1.0000
  Fe  Fe469     1.0  0.64117  0.76382  0.75640  1.0000
  S   S936      1.0  0.65244  0.77224  0.77538  1.0000
  H   H4186     1.0  0.65351  0.91859  0.90807  1.0000
  Fe  Fe470     1.0  0.60589  0.76038  0.78322  1.0000
  S   S937      1.0  0.61459  0.76878  0.80397  1.0000
  S   S938      1.0  0.57713  0.75742  0.79147  1.0000
  Fe  Fe471     1.0  0.62518  0.78961  0.78150  1.0000
  S   S939      1.0  0.61779  0.81937  0.77993  1.0000
  Fe  Fe472     1.0  0.64080  0.75037  0.79584  1.0000
  S   S940      1.0  0.65500  0.73191  0.81724  1.0000
  S   S941      1.0  0.61453  0.78253  0.76124  1.0000
  S   S942      1.0  0.63141  0.74056  0.77644  1.0000
  Fe  Fe473     1.0  0.61613  0.88134  0.83318  1.0000
  S   S943      1.0  0.60301  0.88746  0.86035  1.0000
  S   S944      1.0  0.63885  0.85777  0.82924  1.0000
  Fe  Fe474     1.0  0.58975  0.90984  0.81480  1.0000
  S   S945      1.0  0.57388  0.91813  0.84027  1.0000
  S   S946      1.0  0.58034  0.92316  0.78920  1.0000
  Fe  Fe475     1.0  0.60066  0.91626  0.84627  1.0000
  S   S947      1.0  0.59979  0.93982  0.85799  1.0000
  Fe  Fe476     1.0  0.57732  0.88894  0.85241  1.0000
  S   S948      1.0  0.55667  0.87519  0.87283  1.0000
  S   S949      1.0  0.61636  0.91008  0.81969  1.0000
  S   S950      1.0  0.59053  0.88073  0.82637  1.0000
  H   H4187     1.0  0.57159  0.95352  0.76222  1.0000
  C   C3491     1.0  0.60508  0.81041  0.84395  1.0000
  H   H4188     1.0  0.62864  0.69379  0.83884  1.0000
  H   H4189     1.0  0.61631  0.81702  0.84271  1.0000
  H   H4190     1.0  0.60448  0.80016  0.85659  1.0000
  S   S951      1.0  0.66367  0.96095  0.87682  1.0000
  H   H4191     1.0  0.60910  0.80343  0.83258  1.0000
  S   S952      1.0  0.55571  0.68793  0.78610  1.0000
  C   C3492     1.0  0.52553  0.82108  0.81491  1.0000
  C   C3493     1.0  0.53372  0.80621  0.80659  1.0000
  H   H4192     1.0  0.51912  0.77846  0.78930  1.0000
  H   H4193     1.0  0.58468  0.79781  0.82785  1.0000
  S   S953      1.0  0.49823  0.77325  0.86620  1.0000
  H   H4194     1.0  0.59341  0.67355  0.79750  1.0000
  H   H4195     1.0  0.64837  0.83220  0.75366  1.0000
  C   C3494     1.0  0.61796  0.94523  0.86288  1.0000
  C   C3495     1.0  0.63548  0.93549  0.85895  1.0000
  C   C3496     1.0  0.64947  0.94038  0.86332  1.0000
  C   C3497     1.0  0.64595  0.95496  0.87161  1.0000
  C   C3498     1.0  0.62842  0.96464  0.87547  1.0000
  C   C3499     1.0  0.61452  0.95987  0.87101  1.0000
  H   H4196     1.0  0.63821  0.92414  0.85274  1.0000
  H   H4197     1.0  0.66301  0.93280  0.86035  1.0000
  S   S954      1.0  0.49037  0.81602  0.88388  1.0000
  C   C3500     1.0  0.54412  0.79620  0.85514  1.0000
  C   C3501     1.0  0.53777  0.87762  0.84721  1.0000
  H   H4198     1.0  0.54595  0.88673  0.83846  1.0000
  C   C3502     1.0  0.59402  0.93613  0.77270  1.0000
  C   C3503     1.0  0.63830  0.96228  0.92655  1.0000
  H   H4199     1.0  0.61724  0.71855  0.81713  1.0000
  N   N233      1.0  0.60055  0.70333  0.83860  1.0000
  C   C3504     1.0  0.56115  0.81838  0.79652  1.0000
  C   C3505     1.0  0.61260  0.93255  0.77123  1.0000
  H   H4200     1.0  0.62150  0.94343  0.95626  1.0000
  Fe  Fe477     1.0  0.49231  0.68874  0.78295  1.0000
  C   C3506     1.0  0.62675  0.82978  0.79161  1.0000
  C   C3507     1.0  0.62181  0.84839  0.78944  1.0000
  C   C3508     1.0  0.62658  0.85716  0.80019  1.0000
  C   C3509     1.0  0.63624  0.84732  0.81329  1.0000
  C   C3510     1.0  0.64233  0.82882  0.81462  1.0000
  C   C3511     1.0  0.63748  0.81999  0.80385  1.0000
  H   H4201     1.0  0.61353  0.85599  0.78000  1.0000
  H   H4202     1.0  0.62225  0.87149  0.79872  1.0000
  H   H4203     1.0  0.65004  0.82121  0.82459  1.0000
  H   H4204     1.0  0.64151  0.80562  0.80544  1.0000
  C   C3512     1.0  0.57142  0.73868  0.78822  1.0000
  C   C3513     1.0  0.58431  0.72538  0.78069  1.0000
  C   C3514     1.0  0.57936  0.70999  0.77947  1.0000
  C   C3515     1.0  0.56156  0.70792  0.78580  1.0000
  C   C3516     1.0  0.54864  0.72148  0.79284  1.0000
  C   C3517     1.0  0.55358  0.73677  0.79409  1.0000
  H   H4205     1.0  0.59805  0.72690  0.77590  1.0000
  H   H4206     1.0  0.58931  0.69970  0.77364  1.0000
  H   H4207     1.0  0.53488  0.72003  0.79766  1.0000
  H   H4208     1.0  0.54354  0.74699  0.79983  1.0000
  H   H4209     1.0  0.50394  0.72650  0.83389  1.0000
  H   H4210     1.0  0.61890  0.92132  0.78017  1.0000
  H   H4211     1.0  0.51294  0.74032  0.85404  1.0000
  C   C3518     1.0  0.66477  0.67118  0.82409  1.0000
  C   C3519     1.0  0.67061  0.67864  0.83516  1.0000
  C   C3520     1.0  0.66782  0.69731  0.83273  1.0000
  C   C3521     1.0  0.65942  0.70857  0.81909  1.0000
  C   C3522     1.0  0.65426  0.70102  0.80761  1.0000
  C   C3523     1.0  0.65677  0.68239  0.81021  1.0000
  H   H4212     1.0  0.67676  0.67005  0.84595  1.0000
  H   H4213     1.0  0.67192  0.70306  0.84163  1.0000
  H   H4214     1.0  0.64818  0.70946  0.79683  1.0000
  H   H4215     1.0  0.65243  0.67668  0.80145  1.0000
  C   C3524     1.0  0.64178  0.87913  0.74557  1.0000
  H   H4216     1.0  0.53312  0.78939  0.85795  1.0000
  N   N234      1.0  0.58778  0.82350  0.84383  1.0000
  C   C3525     1.0  0.58830  0.83509  0.82584  1.0000
  C   C3526     1.0  0.58621  0.83501  0.85652  1.0000
  C   C3527     1.0  0.57280  0.81411  0.84807  1.0000
  C   C3528     1.0  0.55703  0.81806  0.86114  1.0000
  C   C3529     1.0  0.54294  0.80923  0.86452  1.0000
  C   C3530     1.0  0.57341  0.80103  0.83846  1.0000
  H   H4217     1.0  0.57549  0.84505  0.82520  1.0000
  H   H4218     1.0  0.59912  0.84269  0.82232  1.0000
  C   C3531     1.0  0.55247  0.83314  0.80417  1.0000
  H   H4219     1.0  0.57445  0.84629  0.85584  1.0000
  H   H4220     1.0  0.59800  0.84141  0.85334  1.0000
  H   H4221     1.0  0.58516  0.82728  0.87050  1.0000
  H   H4222     1.0  0.55518  0.82803  0.86886  1.0000
  H   H4223     1.0  0.53098  0.81258  0.87445  1.0000
  C   C3532     1.0  0.66173  0.94821  0.78805  1.0000
  H   H4224     1.0  0.74396  0.67869  0.77670  1.0000
  S   S955      1.0  0.51127  0.69238  0.82227  1.0000
  C   C3533     1.0  0.50442  0.79733  0.81350  1.0000
  C   C3534     1.0  0.55935  0.79210  0.84214  1.0000
  C   C3535     1.0  0.58594  0.95070  0.76112  1.0000
  C   C3536     1.0  0.53482  0.83435  0.81356  1.0000
  H   H4225     1.0  0.58767  0.94001  0.91934  1.0000
  H   H4226     1.0  0.65549  0.87955  0.74488  1.0000
  H   H4227     1.0  0.60261  0.91890  0.89923  1.0000
  H   H4228     1.0  0.66646  0.93960  0.91250  1.0000
  N   N235      1.0  0.52413  0.79216  0.80733  1.0000
  H   H4229     1.0  0.50647  0.90997  0.93442  1.0000
  C   C3537     1.0  0.63524  0.96887  0.77980  1.0000
  H   H4230     1.0  0.52181  0.88006  0.82803  1.0000
  C   C3538     1.0  0.65335  0.96087  0.77533  1.0000
  H   H4231     1.0  0.54145  0.78109  0.78486  1.0000
  C   C3539     1.0  0.52980  0.85821  0.87577  1.0000
  H   H4232     1.0  0.55893  0.67114  0.87773  1.0000
  H   H4233     1.0  0.59143  0.88084  0.74966  1.0000
  C   C3540     1.0  0.58415  0.69598  0.84283  1.0000
  H   H4234     1.0  0.56024  0.78209  0.83468  1.0000
  C   C3541     1.0  0.57312  0.69894  0.83032  1.0000
  H   H4235     1.0  0.49240  0.91358  0.90960  1.0000
  H   H4236     1.0  0.67170  0.85067  0.74340  1.0000
  H   H4237     1.0  0.59842  0.94903  0.82182  1.0000
  H   H4238     1.0  0.62695  0.94726  0.82347  1.0000
  H   H4239     1.0  0.52420  0.80019  0.77918  1.0000
  C   C3542     1.0  0.54043  0.87001  0.86457  1.0000
  H   H4240     1.0  0.61395  0.85838  0.73535  1.0000
  C   C3543     1.0  0.57855  0.68576  0.86009  1.0000
  H   H4241     1.0  0.66375  0.97010  0.83301  1.0000
  H   H4242     1.0  0.66080  0.96425  0.76175  1.0000
  C   C3544     1.0  0.56295  0.67895  0.86449  1.0000
  H   H4243     1.0  0.62600  0.66374  0.79682  1.0000
  C   C3545     1.0  0.61042  0.92325  0.90609  1.0000
  C   C3546     1.0  0.52408  0.87385  0.84135  1.0000
  H   H4244     1.0  0.52530  0.90085  0.90844  1.0000
  H   H4245     1.0  0.61024  0.72217  0.84716  1.0000
  C   C3547     1.0  0.62491  0.96426  0.79729  1.0000
  C   C3548     1.0  0.60482  0.71326  0.81985  1.0000
  H   H4246     1.0  0.57618  0.70653  0.81693  1.0000
  C   C3549     1.0  0.61618  0.68862  0.84161  1.0000
  H   H4247     1.0  0.60705  0.70458  0.81011  1.0000
  H   H4248     1.0  0.59674  0.70918  0.86471  1.0000
  C   C3550     1.0  0.63395  0.95147  0.80996  1.0000
  C   C3551     1.0  0.53075  0.77577  0.81983  1.0000
  C   C3552     1.0  0.51613  0.85443  0.86992  1.0000
  H   H4249     1.0  0.64640  0.96796  0.93242  1.0000
  C   C3553     1.0  0.61474  0.95867  0.74720  1.0000
  H   H4250     1.0  0.60043  0.90211  0.76183  1.0000
  H   H4251     1.0  0.51191  0.82291  0.82248  1.0000
  C   C3554     1.0  0.59837  0.71589  0.85039  1.0000
  C   C3555     1.0  0.61057  0.89240  0.75525  1.0000
  H   H4252     1.0  0.58640  0.72687  0.84888  1.0000
  H   H4253     1.0  0.70852  0.67482  0.81838  1.0000
  H   H4254     1.0  0.60689  0.97310  0.82928  1.0000
  C   C3556     1.0  0.63921  0.92338  0.91139  1.0000
  H   H4255     1.0  0.60507  0.95064  0.93429  1.0000
  C   C3557     1.0  0.62864  0.89178  0.75381  1.0000
  H   H4256     1.0  0.58975  0.97380  0.74025  1.0000
  C   C3558     1.0  0.52737  0.78788  0.78940  1.0000
  H   H4257     1.0  0.52817  0.84573  0.81975  1.0000
  C   C3559     1.0  0.49590  0.86135  0.94904  1.0000
  H   H4258     1.0  0.55944  0.79372  0.79191  1.0000
  H   H4259     1.0  0.59083  0.82734  0.81524  1.0000
  H   H4260     1.0  0.70166  0.70356  0.80167  1.0000
  H   H4261     1.0  0.62415  0.96882  0.93104  1.0000
  C   C3560     1.0  0.52147  0.88758  0.91239  1.0000
  C   C3561     1.0  0.66934  0.85324  0.72961  1.0000
  C   C3562     1.0  0.71147  0.65463  0.79528  1.0000
  H   H4262     1.0  0.59401  0.72511  0.81680  1.0000
  H   H4263     1.0  0.58611  0.68309  0.87040  1.0000
  H   H4264     1.0  0.66475  0.92090  0.93129  1.0000
  N   N236      1.0  0.60566  0.97229  0.80253  1.0000
  C   C3563     1.0  0.66117  0.93570  0.92713  1.0000
  H   H4265     1.0  0.57503  0.81729  0.78945  1.0000
  C   C3564     1.0  0.61665  0.65689  0.80717  1.0000
  H   H4266     1.0  0.67569  0.94183  0.78440  1.0000
  C   C3565     1.0  0.49619  0.73912  0.83699  1.0000
  Fe  Fe478     1.0  0.52586  0.68993  0.79435  1.0000
  H   H4267     1.0  0.68675  0.97135  0.82418  1.0000
  S   S956      1.0  0.51410  0.66732  0.79342  1.0000
  C   C3566     1.0  0.73760  0.66690  0.78016  1.0000
  C   C3567     1.0  0.68678  0.71624  0.76318  1.0000
  C   C3568     1.0  0.55751  0.69215  0.83489  1.0000
  H   H4268     1.0  0.73740  0.66350  0.76749  1.0000
  H   H4269     1.0  0.50778  0.84560  0.87877  1.0000
  S   S957      1.0  0.62672  0.97466  0.73326  1.0000
  C   C3569     1.0  0.59622  0.96213  0.74865  1.0000
  C   C3570     1.0  0.62303  0.94364  0.75822  1.0000
  H   H4270     1.0  0.52801  0.77816  0.83361  1.0000
  H   H4271     1.0  0.68391  0.72878  0.78501  1.0000
  C   C3571     1.0  0.61853  0.86758  0.74024  1.0000
  C   C3572     1.0  0.50350  0.89634  0.93942  1.0000
  C   C3573     1.0  0.50124  0.74695  0.84841  1.0000
  C   C3574     1.0  0.50003  0.86971  0.93069  1.0000
  C   C3575     1.0  0.55201  0.80500  0.79785  1.0000
  H   H4272     1.0  0.52196  0.88381  0.89967  1.0000
  C   C3576     1.0  0.62891  0.91725  0.90324  1.0000
  H   H4273     1.0  0.55943  0.84368  0.80283  1.0000
  C   C3577     1.0  0.60206  0.93525  0.91733  1.0000
  H   H4274     1.0  0.49741  0.78712  0.81273  1.0000
  H   H4275     1.0  0.64185  0.96653  0.91179  1.0000
  C   C3578     1.0  0.69413  0.70088  0.75617  1.0000
  H   H4276     1.0  0.61847  0.67896  0.83282  1.0000
  H   H4277     1.0  0.63256  0.90111  0.75917  1.0000
  H   H4278     1.0  0.63734  0.94101  0.75725  1.0000
  H   H4279     1.0  0.61472  0.68101  0.85560  1.0000
  S   S958      1.0  0.49566  0.85841  0.84523  1.0000
  H   H4280     1.0  0.72795  0.68443  0.80697  1.0000
  Fe  Fe479     1.0  0.49798  0.67125  0.82041  1.0000
  H   H4281     1.0  0.54540  0.77079  0.81573  1.0000
  H   H4282     1.0  0.66862  0.94131  0.93378  1.0000
  C   C3579     1.0  0.50061  0.85963  0.91807  1.0000
  H   H4283     1.0  0.49811  0.83479  0.91347  1.0000
  H   H4284     1.0  0.59751  0.94959  0.79946  1.0000
  H   H4285     1.0  0.52698  0.65805  0.83677  1.0000
  C   C3580     1.0  0.70809  0.68632  0.78209  1.0000
  H   H4286     1.0  0.67858  0.72766  0.75600  1.0000
  C   C3581     1.0  0.70026  0.70217  0.78893  1.0000
  N   N237      1.0  0.64152  0.94252  0.93180  1.0000
  C   C3582     1.0  0.68988  0.71687  0.77948  1.0000
  C   C3583     1.0  0.70466  0.68614  0.76542  1.0000
  H   H4287     1.0  0.54934  0.69454  0.82509  1.0000
  H   H4288     1.0  0.59929  0.97817  0.77650  1.0000
  H   H4289     1.0  0.73044  0.66094  0.81537  1.0000
  C   C3584     1.0  0.55238  0.68227  0.85194  1.0000
  H   H4290     1.0  0.53215  0.85196  0.88905  1.0000
  H   H4291     1.0  0.49119  0.82096  0.94547  1.0000
  H   H4292     1.0  0.63737  0.92261  0.95589  1.0000
  H   H4293     1.0  0.58043  0.96355  0.81252  1.0000
  C   C3585     1.0  0.67339  0.97910  0.82964  1.0000
  C   C3586     1.0  0.60552  0.88041  0.74837  1.0000
  H   H4294     1.0  0.62551  0.97576  0.88197  1.0000
  H   H4295     1.0  0.52407  0.76477  0.82056  1.0000
  C   C3587     1.0  0.59510  0.95805  0.80937  1.0000
  H   H4296     1.0  0.54017  0.67718  0.85542  1.0000
  H   H4297     1.0  0.60096  0.96738  0.87413  1.0000
  H   H4298     1.0  0.63436  0.83258  0.73909  1.0000
  H   H4299     1.0  0.63536  0.90819  0.89417  1.0000
  C   C3588     1.0  0.61218  0.94131  0.92573  1.0000
  N   N238      1.0  0.71944  0.67057  0.79151  1.0000
  C   C3589     1.0  0.63111  0.93566  0.92293  1.0000
  H   H4300     1.0  0.74657  0.65530  0.78707  1.0000
  H   H4301     1.0  0.71004  0.67456  0.75942  1.0000
  H   H4302     1.0  0.65852  0.93352  0.81522  1.0000
  C   C3590     1.0  0.65206  0.94356  0.80536  1.0000
  C   C3591     1.0  0.63576  0.93738  0.95146  1.0000
  S   S959      1.0  0.50560  0.71115  0.78121  1.0000
  H   H4303     1.0  0.49873  0.81022  0.80528  1.0000
  C   C3592     1.0  0.49794  0.84210  0.92336  1.0000
  C   C3593     1.0  0.72162  0.67290  0.80879  1.0000
  C   C3594     1.0  0.49405  0.83426  0.94141  1.0000
  H   H4304     1.0  0.57208  0.65811  0.82085  1.0000
  H   H4305     1.0  0.63727  0.79694  0.73022  1.0000
  C   C3595     1.0  0.59835  0.66250  0.80753  1.0000
  N   N239      1.0  0.65058  0.85283  0.72988  1.0000
  H   H4306     1.0  0.68331  0.97902  0.73416  1.0000
  H   H4307     1.0  0.50271  0.86546  0.90400  1.0000
  H   H4308     1.0  0.69159  0.70047  0.74349  1.0000
  H   H4309     1.0  0.51370  0.88825  0.94731  1.0000
  H   H4310     1.0  0.64368  0.94191  0.95856  1.0000
  N   N240      1.0  0.50363  0.88803  0.92458  1.0000
  C   C3596     1.0  0.58631  0.65371  0.82073  1.0000
  H   H4311     1.0  0.69758  0.65706  0.80323  1.0000
  H   H4312     1.0  0.53213  0.87777  0.91870  1.0000
  S   S960      1.0  0.65910  0.76158  0.72937  1.0000
  C   C3597     1.0  0.49126  0.76334  0.85248  1.0000
  H   H4313     1.0  0.49426  0.86818  0.95969  1.0000
  H   H4314     1.0  0.65775  0.82402  0.73330  1.0000
  H   H4315     1.0  0.67469  0.98197  0.84222  1.0000
  H   H4316     1.0  0.62959  0.97825  0.76910  1.0000
  H   H4317     1.0  0.50073  0.79843  0.82778  1.0000
  C   C3598     1.0  0.60311  0.98213  0.81690  1.0000
  C   C3599     1.0  0.49293  0.84390  0.95421  1.0000
  H   H4318     1.0  0.71090  0.65080  0.78297  1.0000
  H   H4319     1.0  0.49005  0.89798  0.94855  1.0000
  H   H4320     1.0  0.65808  0.98228  0.80216  1.0000
  Fe  Fe480     1.0  0.48996  0.71175  0.80910  1.0000
  C   C3600     1.0  0.48984  0.89980  0.91476  1.0000
