data_image0
_chemical_formula_structural       FeS2FeS2FeSFeS3FeS2HSFeHFeCS2FeS2FeH2FeHFeHS2H2FeS2FeSFeHFeCS2HSH2C2H3CHC3H6SCH4C2H3C6H4C6H4C3H2C6H5NC9H12CHNC8HCH2CH8C2H3C6HCHNCH2CH2CSNC5HSH2CH4CHFeCHCHCH5CH5C2SHCHCH2C2H2CNHC6FeH2C2H2CHCHNHCHC4H2SH4CH2S2H2CH2CH3CSCHSH2SHCH2CHCFeSHC2SNC3HCFeH5CH3C2NHCHC2HCH3SH2C8HSHSHCHCHCHC4H3S2FeH4FeCH3SH2C3S2FeSFeS2FeS2FeSFeS3FeS2HC2SHCSCH3C4H3C7H4C6H7C6H4C6H2CH3SC2HCHC2HSHCFeCH2NC9H14SHNH2CNHCHC2H2C2H2CHCH4C2HCH5C2HC2HCFeH2CH3CHSH2CH2C2HC2HCH7CH2NSNCH3C5HC2HNHSCH4CH2C3HSH2FeHC2H2C2SFeH2FeS2FeS2FeSFeS3FeS2HS2HCHFeS2FeSHCSH3C3SC2HCHC6H4C6H4CHC6H5CFe2HC6H2SH7C2HCH2C3HCH3S2HCHC3HNCHCHSH3CH3C2HC2FeH4CH4CHCNC7HCH3SCH6SCHC2HCNC9H12FeH2CH2C2H2CFeCH3C2H3CHC3H4CH5NCHC2HNC2NHSC2HCNC3HCH2CHC2HCH2C2H3NCHC2HSHCH3CHFeCHS2FeHCHNH3C3SH2CHC3H3CHCHCH3CH2SCHC4HCH2CFeCH2SCHCH3CH3CH4NHFeCSH2SC2S2FeS2FeS2FeSFeS3FeS2FeS2FeSFeS3FeHSCFeSCFeSHFeHFeSHSCH3C2H5C8H5C3H2CFeC4FeCH2C6H4C6H4C2SH2C6H3NC9H14NC7H8SH3C6HFeH4CH5SH2CH2NC9H14CSHC4HSCH2SC2HCHC3SH6NH2CHCH3CSC2H2C5HC2HNH2SH2CHCN2H2CH4CHC2HCH5CH3C2SFeH2CH2S2H3FeS2NC2HCH2SC2H4NC3SH4CHC2SH2C3HCHC2HC3HCHC2H2SCHC2SHCHC2H2FeHNCH8CHNCH2SCH3C2HCH6C3H2C2HC2H2FeC3H3CHCSH2FeSCFeSCFeSHSFeS2FeHSFeSFeHS2CH2CSH2CHCFeSHFeCHFeS2FeS2FeS2FeSFeS3FeSHCFeC6SH3CH2C2H2FeCNCSC2SH2CHSCH2SH3CHC3HC3HSH2NC6SH3SHC6H4C4SHC6H7CH3CHC2H4C5HFeHSHNC9H14NC9H14NC9H15C3HFeCHCHCHSCH4CHSFeH4C2HC2HCHC2H2CFeC2HNH2CHSC5SHCHNSH2SH4C2H3CFeC3H3C4HC2HSHC3H2C2H3CHCH3SFeNCFeSHSCH2CSCH2FeCSHCHSH2S2C6H3C3HC2FeSFeHSH3SH2C2HC2HC7H4C2HCHC2SHCH3NC3HFeHC11H9CH2SH3CH3C4HNCH3CHCH3C2SHC3HCH2CHCHSH2CH3NH5FeHCFeS2FeNHS2CH4CHCHCH2SHCHCHSHCH2C2H2C10HC3H6CHCNC2HNSCH2C2HCFeHCH5SC2HCFeCH3C3H3CH2CHCH5SHCH2SHCHCSC2NSH2C2HFeSFeS2H2S2HC2FeS2FeS2HSH3FeS2FeS2FeCFeHS2NCFeCSFeSHSFeSCFeS2FeSFeS3C6H5C4H2C8H4SC3H2CSHC3H2C8FeCNH2NHFeHCHCH5C6H4C4H2CH3FeCH3C3NC8H10NC9H17CH2CH3CSHCH2C3H2CH2CH3C2SCHC2HCHCSC2FeHSNHSC2HCHCFeH2C2N2C2H2CHCH5C2HCHCH4CHCH3NC3H3SCHSHCHC2SHC2H3NCH3SC4H3FeCH3FeHCH6FeH3NHC3HSHCHC2H2FeC2SCSH2CSH4CH2SH2C2FeC2HFeC2H3SH2C3H2C2HCSHC2HCSH3C3H3CSH5C3SNH2C2H3CH5CHC2H2C2NHC3HSC2FeCH5CH2CH3C2H2C2NH4C2H5C2HFeH5CFeC3SHC
_chemical_formula_sum              "Fe128 S256 H1152 C960 N64"
_cell_length_a       51.0586
_cell_length_b       51.8464
_cell_length_c       51.0467
_cell_angle_alpha    89.9113
_cell_angle_beta     87.5769
_cell_angle_gamma    88.8308

_space_group_name_H-M_alt    "P 1"
_space_group_IT_number       1

loop_
  _space_group_symop_operation_xyz
  'x, y, z'

loop_
  _atom_site_type_symbol
  _atom_site_label
  _atom_site_symmetry_multiplicity
  _atom_site_fract_x
  _atom_site_fract_y
  _atom_site_fract_z
  _atom_site_occupancy
  Fe  Fe1       1.0  0.20682  0.15560  0.19724  1.0000
  S   S1        1.0  0.18947  0.19422  0.20992  1.0000
  S   S2        1.0  0.19044  0.12263  0.17333  1.0000
  Fe  Fe2       1.0  0.25781  0.16467  0.22603  1.0000
  S   S3        1.0  0.24500  0.20393  0.23991  1.0000
  S   S4        1.0  0.29491  0.14749  0.24173  1.0000
  Fe  Fe3       1.0  0.20633  0.18581  0.24919  1.0000
  S   S5        1.0  0.18628  0.19016  0.28919  1.0000
  Fe  Fe4       1.0  0.22974  0.20934  0.19971  1.0000
  S   S6        1.0  0.23666  0.24566  0.17605  1.0000
  S   S7        1.0  0.22002  0.14595  0.23770  1.0000
  S   S8        1.0  0.24623  0.17135  0.18456  1.0000
  Fe  Fe5       1.0  0.08089  0.06662  0.07564  1.0000
  S   S9        1.0  0.03870  0.07081  0.06425  1.0000
  S   S10       1.0  0.09360  0.10048  0.10115  1.0000
  H   H1        1.0  0.39013  0.13119  0.22003  1.0000
  S   S11       1.0  0.04702  0.01808  0.02944  1.0000
  Fe  Fe6       1.0  0.05295  0.06024  0.02345  1.0000
  H   H2        1.0  0.38069  0.20355  0.35115  1.0000
  Fe  Fe7       1.0  0.03564  0.02835  0.07084  1.0000
  C   C1        1.0  0.47971  0.04500  0.40656  1.0000
  S   S12       1.0  0.09533  0.05920  0.03374  1.0000
  S   S13       1.0  0.07647  0.02432  0.08572  1.0000
  Fe  Fe8       1.0  0.25129  0.26009  0.40667  1.0000
  S   S14       1.0  0.24551  0.22631  0.43395  1.0000
  S   S15       1.0  0.24817  0.26420  0.36260  1.0000
  Fe  Fe9       1.0  0.26901  0.29439  0.45064  1.0000
  H   H3        1.0  0.47479  0.02698  0.41621  1.0000
  H   H4        1.0  0.15847  0.24180  0.44530  1.0000
  Fe  Fe10      1.0  0.28456  0.23740  0.45036  1.0000
  H   H5        1.0  0.36500  0.23866  0.27740  1.0000
  Fe  Fe11      1.0  0.22643  0.25577  0.46209  1.0000
  H   H6        1.0  0.17476  0.30809  0.44247  1.0000
  S   S16       1.0  0.29091  0.26933  0.42123  1.0000
  S   S17       1.0  0.23003  0.28850  0.43349  1.0000
  H   H7        1.0  0.47905  0.14267  0.39666  1.0000
  H   H8        1.0  0.23825  0.31926  0.49278  1.0000
  Fe  Fe12      1.0  0.42721  0.21882  0.25118  1.0000
  S   S18       1.0  0.46614  0.21714  0.22930  1.0000
  S   S19       1.0  0.39147  0.22085  0.22682  1.0000
  Fe  Fe13      1.0  0.45241  0.22891  0.30272  1.0000
  S   S20       1.0  0.44106  0.23297  0.34577  1.0000
  Fe  Fe14      1.0  0.47501  0.25333  0.25173  1.0000
  H   H9        1.0  0.45527  0.15725  0.23296  1.0000
  Fe  Fe15      1.0  0.47986  0.19336  0.26350  1.0000
  C   C2        1.0  0.44228  0.15170  0.18290  1.0000
  S   S21       1.0  0.43541  0.25513  0.27260  1.0000
  S   S22       1.0  0.43988  0.19254  0.28352  1.0000
  H   H10       1.0  0.40573  0.09058  0.21302  1.0000
  S   S23       1.0  0.47746  0.16268  0.47489  1.0000
  H   H11       1.0  0.18012  0.23251  0.10935  1.0000
  H   H12       1.0  0.36668  0.17741  0.45005  1.0000
  C   C3        1.0  0.47420  0.08692  0.28185  1.0000
  C   C4        1.0  0.46475  0.27817  0.40439  1.0000
  H   H13       1.0  0.45485  0.07912  0.28522  1.0000
  H   H14       1.0  0.45955  0.12588  0.27554  1.0000
  H   H15       1.0  0.40219  0.31537  0.28512  1.0000
  C   C5        1.0  0.15580  0.26021  0.48307  1.0000
  H   H16       1.0  0.40805  0.27381  0.21770  1.0000
  C   C6        1.0  0.46454  0.21839  0.36565  1.0000
  C   C7        1.0  0.45889  0.21474  0.39248  1.0000
  C   C8        1.0  0.47778  0.20367  0.40850  1.0000
  H   H17       1.0  0.39464  0.26830  0.36882  1.0000
  H   H18       1.0  0.49285  0.27062  0.43388  1.0000
  H   H19       1.0  0.44001  0.22059  0.40101  1.0000
  H   H20       1.0  0.47331  0.20112  0.42922  1.0000
  H   H21       1.0  0.11044  0.24438  0.43893  1.0000
  H   H22       1.0  0.19146  0.31493  0.31888  1.0000
  S   S24       1.0  0.31936  0.20856  0.45329  1.0000
  C   C9        1.0  0.39765  0.29228  0.21894  1.0000
  H   H23       1.0  0.48998  0.10765  0.42058  1.0000
  H   H24       1.0  0.30999  0.15518  0.33502  1.0000
  H   H25       1.0  0.45798  0.12960  0.37272  1.0000
  H   H26       1.0  0.42516  0.17436  0.22772  1.0000
  C   C10       1.0  0.48994  0.06865  0.36658  1.0000
  C   C11       1.0  0.28369  0.19997  0.34442  1.0000
  H   H27       1.0  0.32108  0.22177  0.27893  1.0000
  H   H28       1.0  0.27927  0.15451  0.31941  1.0000
  H   H29       1.0  0.17312  0.32236  0.48830  1.0000
  C   C12       1.0  0.32171  0.16796  0.23810  1.0000
  C   C13       1.0  0.34465  0.16263  0.25149  1.0000
  C   C14       1.0  0.36612  0.17910  0.24880  1.0000
  C   C15       1.0  0.36479  0.20052  0.23220  1.0000
  C   C16       1.0  0.34183  0.20584  0.21895  1.0000
  C   C17       1.0  0.32023  0.18975  0.22210  1.0000
  H   H30       1.0  0.34574  0.14584  0.26404  1.0000
  H   H31       1.0  0.38362  0.17517  0.25943  1.0000
  H   H32       1.0  0.34078  0.22239  0.20606  1.0000
  H   H33       1.0  0.30259  0.19394  0.21170  1.0000
  C   C18       1.0  0.20234  0.21135  0.31001  1.0000
  C   C19       1.0  0.20123  0.20749  0.33728  1.0000
  C   C20       1.0  0.21489  0.22373  0.35386  1.0000
  C   C21       1.0  0.22950  0.24403  0.34318  1.0000
  C   C22       1.0  0.23005  0.24824  0.31603  1.0000
  C   C23       1.0  0.21658  0.23198  0.29952  1.0000
  H   H34       1.0  0.19007  0.19171  0.34556  1.0000
  H   H35       1.0  0.21425  0.22042  0.37482  1.0000
  H   H36       1.0  0.24111  0.26403  0.30763  1.0000
  H   H37       1.0  0.21689  0.23566  0.27868  1.0000
  C   C24       1.0  0.23695  0.27380  0.19551  1.0000
  C   C25       1.0  0.22950  0.27271  0.22212  1.0000
  C   C26       1.0  0.24456  0.29750  0.18447  1.0000
  H   H38       1.0  0.22294  0.25481  0.23071  1.0000
  H   H39       1.0  0.25001  0.29856  0.16379  1.0000
  C   C27       1.0  0.12101  0.10634  0.12070  1.0000
  C   C28       1.0  0.12250  0.13028  0.13358  1.0000
  C   C29       1.0  0.14347  0.13569  0.14977  1.0000
  C   C30       1.0  0.16334  0.11717  0.15325  1.0000
  C   C31       1.0  0.16191  0.09328  0.14034  1.0000
  C   C32       1.0  0.14093  0.08787  0.12416  1.0000
  H   H40       1.0  0.10717  0.14468  0.13110  1.0000
  H   H41       1.0  0.14414  0.15410  0.15958  1.0000
  H   H42       1.0  0.17715  0.07879  0.14285  1.0000
  H   H43       1.0  0.14010  0.06938  0.11446  1.0000
  H   H44       1.0  0.47961  0.28273  0.38938  1.0000
  N   N1        1.0  0.13690  0.12116  0.23959  1.0000
  C   C33       1.0  0.14489  0.14768  0.23246  1.0000
  C   C34       1.0  0.12158  0.12213  0.26494  1.0000
  C   C35       1.0  0.16121  0.10569  0.24374  1.0000
  C   C36       1.0  0.12062  0.11069  0.21888  1.0000
  C   C37       1.0  0.09682  0.12345  0.21253  1.0000
  C   C38       1.0  0.12781  0.08809  0.20428  1.0000
  C   C39       1.0  0.08137  0.11432  0.19268  1.0000
  C   C40       1.0  0.11203  0.07899  0.18468  1.0000
  C   C41       1.0  0.08899  0.09215  0.17876  1.0000
  H   H45       1.0  0.12796  0.16139  0.23154  1.0000
  H   H46       1.0  0.15814  0.15586  0.24703  1.0000
  H   H47       1.0  0.15538  0.14781  0.21289  1.0000
  H   H48       1.0  0.10419  0.13530  0.26429  1.0000
  H   H49       1.0  0.13355  0.12935  0.28108  1.0000
  H   H50       1.0  0.11449  0.10264  0.27060  1.0000
  H   H51       1.0  0.17428  0.10509  0.22568  1.0000
  H   H52       1.0  0.17298  0.11405  0.25943  1.0000
  H   H53       1.0  0.15673  0.08557  0.24979  1.0000
  H   H54       1.0  0.09016  0.14084  0.22259  1.0000
  H   H55       1.0  0.14586  0.07743  0.20704  1.0000
  H   H56       1.0  0.06359  0.12465  0.18770  1.0000
  C   C42       1.0  0.20073  0.32287  0.33645  1.0000
  H   H57       1.0  0.07741  0.08550  0.16284  1.0000
  N   N2        1.0  0.20227  0.19714  0.11521  1.0000
  C   C43       1.0  0.23052  0.18973  0.11542  1.0000
  C   C44       1.0  0.19073  0.19478  0.14217  1.0000
  C   C45       1.0  0.18829  0.17984  0.09770  1.0000
  C   C46       1.0  0.18988  0.15267  0.10114  1.0000
  C   C47       1.0  0.17165  0.18921  0.07796  1.0000
  C   C48       1.0  0.17584  0.13597  0.08577  1.0000
  C   C49       1.0  0.15748  0.17228  0.06288  1.0000
  C   C50       1.0  0.15946  0.14574  0.06689  1.0000
  H   H58       1.0  0.23963  0.18971  0.09522  1.0000
  C   C51       1.0  0.46952  0.10995  0.21161  1.0000
  H   H59       1.0  0.23390  0.17029  0.12402  1.0000
  H   H60       1.0  0.19999  0.20826  0.15581  1.0000
  C   C52       1.0  0.37032  0.19342  0.46288  1.0000
  H   H61       1.0  0.19332  0.17496  0.15017  1.0000
  H   H62       1.0  0.20134  0.14404  0.11633  1.0000
  H   H63       1.0  0.16892  0.20951  0.07401  1.0000
  H   H64       1.0  0.17705  0.11532  0.08905  1.0000
  H   H65       1.0  0.14457  0.17974  0.04821  1.0000
  H   H66       1.0  0.14800  0.13267  0.05561  1.0000
  H   H67       1.0  0.41317  0.25839  0.45786  1.0000
  H   H68       1.0  0.20839  0.30570  0.34699  1.0000
  C   C53       1.0  0.31411  0.29411  0.22164  1.0000
  C   C54       1.0  0.48379  0.04557  0.37943  1.0000
  H   H69       1.0  0.11817  0.06212  0.17329  1.0000
  H   H70       1.0  0.42701  0.04943  0.22193  1.0000
  H   H71       1.0  0.26005  0.19243  0.30023  1.0000
  C   C55       1.0  0.42684  0.09028  0.21353  1.0000
  C   C56       1.0  0.24481  0.31993  0.20008  1.0000
  C   C57       1.0  0.44191  0.11291  0.20992  1.0000
  C   C58       1.0  0.24332  0.32727  0.31495  1.0000
  C   C59       1.0  0.41192  0.31486  0.21905  1.0000
  C   C60       1.0  0.37020  0.29331  0.22026  1.0000
  H   H72       1.0  0.39397  0.23058  0.39637  1.0000
  C   C61       1.0  0.49215  0.09206  0.38081  1.0000
  H   H73       1.0  0.30916  0.15655  0.29988  1.0000
  N   N3        1.0  0.32719  0.31945  0.22256  1.0000
  C   C62       1.0  0.48127  0.08592  0.21643  1.0000
  H   H74       1.0  0.21204  0.23712  0.12086  1.0000
  H   H75       1.0  0.26292  0.19373  0.34579  1.0000
  C   C63       1.0  0.42689  0.26441  0.44253  1.0000
  H   H76       1.0  0.27781  0.22170  0.29725  1.0000
  H   H77       1.0  0.36308  0.27884  0.38118  1.0000
  C   C64       1.0  0.11824  0.25237  0.45649  1.0000
  S   S25       1.0  0.06662  0.26382  0.47069  1.0000
  N   N4        1.0  0.39042  0.26941  0.41110  1.0000
  C   C65       1.0  0.38441  0.27974  0.38481  1.0000
  C   C66       1.0  0.38289  0.24196  0.41182  1.0000
  C   C67       1.0  0.37371  0.28392  0.43083  1.0000
  C   C68       1.0  0.41846  0.27121  0.41723  1.0000
  C   C69       1.0  0.43828  0.27822  0.39826  1.0000
  H   H78       1.0  0.32578  0.32602  0.18100  1.0000
  S   S26       1.0  0.99925  0.00951  0.08797  1.0000
  H   H79       1.0  0.38711  0.23283  0.43088  1.0000
  H   H80       1.0  0.48059  0.10932  0.33143  1.0000
  C   C70       1.0  0.37531  0.22253  0.31438  1.0000
  H   H81       1.0  0.43258  0.17068  0.17884  1.0000
  H   H82       1.0  0.39654  0.12641  0.18514  1.0000
  H   H83       1.0  0.31955  0.28351  0.20318  1.0000
  H   H84       1.0  0.36152  0.23965  0.40902  1.0000
  C   C71       1.0  0.43883  0.06637  0.21861  1.0000
  H   H85       1.0  0.43318  0.31386  0.21802  1.0000
  Fe  Fe16      1.0  0.03230  0.28578  0.49130  1.0000
  C   C72       1.0  0.23761  0.31861  0.22681  1.0000
  H   H86       1.0  0.47508  0.04583  0.22505  1.0000
  C   C73       1.0  0.10096  0.26377  0.47556  1.0000
  H   H87       1.0  0.29233  0.29639  0.22228  1.0000
  C   C74       1.0  0.47228  0.27122  0.42940  1.0000
  H   H88       1.0  0.48024  0.15482  0.36420  1.0000
  H   H89       1.0  0.36056  0.27496  0.21995  1.0000
  H   H90       1.0  0.28348  0.22136  0.34650  1.0000
  H   H91       1.0  0.37390  0.27503  0.45065  1.0000
  H   H92       1.0  0.29307  0.19170  0.36187  1.0000
  C   C75       1.0  0.45335  0.26446  0.44846  1.0000
  H   H93       1.0  0.38020  0.30420  0.43259  1.0000
  H   H94       1.0  0.43407  0.28292  0.37825  1.0000
  H   H95       1.0  0.13817  0.32358  0.49245  1.0000
  H   H96       1.0  0.23908  0.31733  0.37326  1.0000
  H   H97       1.0  0.31901  0.28175  0.23866  1.0000
  C   C76       1.0  0.48824  0.09070  0.40850  1.0000
  C   C77       1.0  0.15530  0.31801  0.44108  1.0000
  S   S27       1.0  0.48329  0.28919  0.22611  1.0000
  H   H98       1.0  0.22380  0.29378  0.25817  1.0000
  C   C78       1.0  0.35527  0.23256  0.48474  1.0000
  H   H99       1.0  0.44124  0.13948  0.16507  1.0000
  C   C79       1.0  0.35018  0.21195  0.46816  1.0000
  H   H100      1.0  0.14092  0.30337  0.44763  1.0000
  H   H101      1.0  0.00685  0.10484  0.03365  1.0000
  C   C80       1.0  0.36713  0.20764  0.33579  1.0000
  C   C81       1.0  0.47679  0.11352  0.27622  1.0000
  H   H102      1.0  0.46322  0.15609  0.18559  1.0000
  H   H103      1.0  0.15221  0.32230  0.42006  1.0000
  C   C82       1.0  0.47803  0.13674  0.37580  1.0000
  N   N5        1.0  0.29713  0.19188  0.31929  1.0000
  H   H104      1.0  0.45919  0.25873  0.46787  1.0000
  C   C83       1.0  0.28016  0.20033  0.29782  1.0000
  C   C84       1.0  0.29902  0.16331  0.31847  1.0000
  C   C85       1.0  0.32381  0.20264  0.31726  1.0000
  C   C86       1.0  0.33294  0.21769  0.29551  1.0000
  C   C87       1.0  0.40116  0.13844  0.20231  1.0000
  C   C88       1.0  0.35828  0.22754  0.29432  1.0000
  Fe  Fe17      1.0  0.08803  0.01730  0.04314  1.0000
  H   H105      1.0  0.24166  0.20324  0.12759  1.0000
  H   H106      1.0  0.16929  0.19925  0.14280  1.0000
  C   C89       1.0  0.34180  0.19778  0.33728  1.0000
  C   C90       1.0  0.43407  0.15471  0.22959  1.0000
  H   H107      1.0  0.28804  0.19333  0.27838  1.0000
  H   H108      1.0  0.39502  0.22993  0.31318  1.0000
  C   C91       1.0  0.39530  0.19572  0.47353  1.0000
  H   H109      1.0  0.33644  0.18612  0.35417  1.0000
  C   C92       1.0  0.14552  0.25090  0.46003  1.0000
  H   H110      1.0  0.48212  0.02790  0.36823  1.0000
  N   N6        1.0  0.42987  0.13882  0.20615  1.0000
  H   H111      1.0  0.23651  0.31758  0.29711  1.0000
  C   C93       1.0  0.22986  0.29496  0.23766  1.0000
  H   H112      1.0  0.41063  0.18160  0.46872  1.0000
  C   C94       1.0  0.40027  0.21620  0.49037  1.0000
  C   C95       1.0  0.46595  0.06421  0.22016  1.0000
  C   C96       1.0  0.35622  0.31736  0.22169  1.0000
  C   C97       1.0  0.48193  0.06752  0.42110  1.0000
  H   H113      1.0  0.39292  0.15818  0.19878  1.0000
  H   H114      1.0  0.42522  0.14567  0.24758  1.0000
  S   S28       1.0  0.26495  0.26344  0.48100  1.0000
  H   H115      1.0  0.20871  0.22793  0.08734  1.0000
  H   H116      1.0  0.35268  0.28449  0.42576  1.0000
  H   H117      1.0  0.39011  0.30028  0.38283  1.0000
  H   H118      1.0  0.47853  0.06706  0.44221  1.0000
  C   C98       1.0  0.20063  0.22482  0.10767  1.0000
  H   H119      1.0  0.25215  0.31201  0.32737  1.0000
  H   H120      1.0  0.48223  0.12639  0.21038  1.0000
  S   S29       1.0  0.49154  0.03641  0.28769  1.0000
  S   S30       1.0  0.18967  0.25696  0.48970  1.0000
  H   H121      1.0  0.32467  0.32229  0.26466  1.0000
  H   H122      1.0  0.49278  0.06750  0.34549  1.0000
  C   C99       1.0  0.48901  0.21044  0.35490  1.0000
  H   H123      1.0  0.00305  0.13277  0.01424  1.0000
  H   H124      1.0  0.10373  0.32133  0.46016  1.0000
  C   C100      1.0  0.49630  0.07022  0.28273  1.0000
  H   H125      1.0  0.34003  0.24690  0.48918  1.0000
  H   H126      1.0  0.44962  0.31870  0.27381  1.0000
  H   H127      1.0  0.49360  0.21293  0.33434  1.0000
  C   C101      1.0  0.49463  0.32156  0.22808  1.0000
  S   S31       1.0  0.49311  0.22946  0.28381  1.0000
  C   C102      1.0  0.37999  0.23444  0.49599  1.0000
  H   H128      1.0  0.49718  0.00624  0.47780  1.0000
  S   S32       1.0  0.42835  0.01948  0.53767  1.0000
  H   H129      1.0  0.42742  0.06623  0.50666  1.0000
  H   H130      1.0  0.02840  0.22628  0.65101  1.0000
  S   S33       1.0  0.49459  0.18408  0.53236  1.0000
  H   H131      1.0  0.45575  0.08400  0.59016  1.0000
  C   C103      1.0  0.04800  0.23614  0.61421  1.0000
  H   H132      1.0  0.38347  0.25034  0.50904  1.0000
  H   H133      1.0  0.04233  0.22989  0.54636  1.0000
  C   C104      1.0  0.00847  0.30566  0.62763  1.0000
  H   H134      1.0  0.08555  0.19359  0.57696  1.0000
  C   C105      1.0  0.04099  0.21939  0.63471  1.0000
  Fe  Fe18      1.0  0.01841  0.01891  0.84867  1.0000
  S   S34       1.0  0.03767  0.02070  0.80831  1.0000
  H   H135      1.0  0.01162  0.06043  0.89853  1.0000
  C   C106      1.0  0.42859  0.14777  0.52190  1.0000
  C   C107      1.0  0.04980  0.19381  0.63426  1.0000
  S   S35       1.0  0.03398  0.07974  0.98914  1.0000
  N   N7        1.0  0.41131  0.14933  0.54587  1.0000
  C   C108      1.0  0.41219  0.12402  0.55935  1.0000
  C   C109      1.0  0.06375  0.23370  0.54536  1.0000
  C   C110      1.0  0.07305  0.20143  0.59274  1.0000
  H   H136      1.0  0.11134  0.22819  0.56460  1.0000
  C   C111      1.0  0.39301  0.08225  0.57115  1.0000
  Fe  Fe19      1.0  0.00954  0.31541  0.53872  1.0000
  H   H137      1.0  0.37688  0.06900  0.57062  1.0000
  H   H138      1.0  0.00807  0.08547  0.94019  1.0000
  H   H139      1.0  0.44930  0.14328  0.52645  1.0000
  H   H140      1.0  0.10834  0.25395  0.58808  1.0000
  H   H141      1.0  0.38448  0.17701  0.52905  1.0000
  C   C112      1.0  0.41621  0.07425  0.58235  1.0000
  H   H142      1.0  0.00366  0.28521  0.66437  1.0000
  H   H143      1.0  0.37248  0.11147  0.55110  1.0000
  H   H144      1.0  0.07024  0.01109  0.93157  1.0000
  C   C113      1.0  0.44546  0.06566  0.51705  1.0000
  C   C114      1.0  0.43563  0.11510  0.57073  1.0000
  N   N8        1.0  0.07221  0.24472  0.57041  1.0000
  H   H145      1.0  0.06724  0.28134  0.59052  1.0000
  C   C115      1.0  0.06425  0.22759  0.59247  1.0000
  H   H146      1.0  0.37725  0.14438  0.52262  1.0000
  C   C116      1.0  0.45089  0.04460  0.53345  1.0000
  C   C117      1.0  0.47425  0.04390  0.54678  1.0000
  H   H147      1.0  0.04022  0.25561  0.61590  1.0000
  C   C118      1.0  0.46335  0.08590  0.51405  1.0000
  H   H148      1.0  0.06762  0.24689  0.52843  1.0000
  H   H149      1.0  0.07413  0.21526  0.54015  1.0000
  H   H150      1.0  0.04407  0.18094  0.65017  1.0000
  S   S36       1.0  0.04409  0.01505  0.88362  1.0000
  H   H151      1.0  0.10789  0.26055  0.55353  1.0000
  H   H152      1.0  0.40958  0.17043  0.58222  1.0000
  C   C119      1.0  0.03677  0.06205  0.95962  1.0000
  C   C120      1.0  0.02148  0.06911  0.93839  1.0000
  C   C121      1.0  0.02352  0.05502  0.91478  1.0000
  C   C122      1.0  0.04110  0.03402  0.91227  1.0000
  C   C123      1.0  0.05644  0.02715  0.93345  1.0000
  C   C124      1.0  0.05414  0.04095  0.95710  1.0000
  C   C125      1.0  0.10116  0.24692  0.56912  1.0000
  C   C126      1.0  0.06073  0.27124  0.57277  1.0000
  H   H153      1.0  0.41877  0.18945  0.55388  1.0000
  S   S37       1.0  0.43108  0.21982  0.50526  1.0000
  H   H154      1.0  0.45317  0.12645  0.56989  1.0000
  S   S38       1.0  0.00793  0.27367  0.52679  1.0000
  H   H155      1.0  0.06639  0.28356  0.55565  1.0000
  C   C127      1.0  0.43742  0.09069  0.58226  1.0000
  H   H156      1.0  0.06622  0.03554  0.97321  1.0000
  C   C128      1.0  0.38465  0.15732  0.53792  1.0000
  H   H157      1.0  0.07266  0.16489  0.61307  1.0000
  C   C129      1.0  0.13850  0.27156  0.50217  1.0000
  H   H158      1.0  0.42215  0.13248  0.50845  1.0000
  C   C130      1.0  0.42079  0.16998  0.56304  1.0000
  C   C131      1.0  0.48645  0.08529  0.52786  1.0000
  C   C132      1.0  0.39085  0.10677  0.55984  1.0000
  C   C133      1.0  0.06584  0.18483  0.61333  1.0000
  H   H159      1.0  0.44195  0.16775  0.56693  1.0000
  H   H160      1.0  0.41809  0.05488  0.59022  1.0000
  H   H161      1.0  0.00707  0.00309  0.94574  1.0000
  S   S39       1.0  0.03651  0.32638  0.50503  1.0000
  S   S40       1.0  0.00002  0.25390  0.72525  1.0000
  Fe  Fe20      1.0  0.47110  0.19901  0.49866  1.0000
  H   H162      1.0  0.03893  0.27093  0.57376  1.0000
  H   H163      1.0  0.37041  0.15788  0.55504  1.0000
  H   H164      1.0  0.14627  0.27876  0.52008  1.0000
  H   H165      1.0  0.42852  0.16627  0.51092  1.0000
  Fe  Fe21      1.0  0.00228  0.04504  0.79755  1.0000
  C   C134      1.0  0.00250  0.30624  0.60111  1.0000
  H   H166      1.0  0.45935  0.10181  0.50105  1.0000
  H   H167      1.0  0.09838  0.28309  0.51279  1.0000
  H   H168      1.0  0.47848  0.02799  0.55978  1.0000
  S   S41       1.0  0.00226  0.08041  0.76982  1.0000
  H   H169      1.0  0.02096  0.32014  0.63545  1.0000
  H   H170      1.0  0.00232  0.12243  0.73277  1.0000
  C   C135      1.0  0.49195  0.06412  0.54395  1.0000
  C   C136      1.0  0.11134  0.27391  0.49818  1.0000
  C   C137      1.0  0.99879  0.28585  0.64394  1.0000
  S   S42       1.0  0.01720  0.32853  0.57953  1.0000
  S   S43       1.0  0.03090  0.51143  0.41755  1.0000
  Fe  Fe22      1.0  0.46498  0.48215  0.21002  1.0000
  S   S44       1.0  0.42510  0.49374  0.22740  1.0000
  Fe  Fe23      1.0  0.25460  0.38537  0.24147  1.0000
  S   S45       1.0  0.23119  0.42260  0.24154  1.0000
  S   S46       1.0  0.23783  0.34559  0.24780  1.0000
  Fe  Fe24      1.0  0.30472  0.41353  0.25045  1.0000
  S   S47       1.0  0.28516  0.45272  0.25229  1.0000
  S   S48       1.0  0.34744  0.40340  0.25226  1.0000
  Fe  Fe25      1.0  0.25330  0.43350  0.27725  1.0000
  S   S49       1.0  0.22711  0.44392  0.31391  1.0000
  Fe  Fe26      1.0  0.26495  0.43854  0.21654  1.0000
  S   S50       1.0  0.26162  0.46679  0.18192  1.0000
  S   S51       1.0  0.27519  0.39557  0.27785  1.0000
  S   S52       1.0  0.28634  0.40019  0.21391  1.0000
  Fe  Fe27      1.0  0.21427  0.48101  0.46917  1.0000
  S   S53       1.0  0.17751  0.45779  0.47043  1.0000
  S   S54       1.0  0.23902  0.48672  0.43090  1.0000
  H   H171      1.0  0.43633  0.41006  0.23782  1.0000
  C   C138      1.0  0.25332  0.37550  0.39777  1.0000
  C   C139      1.0  0.43467  0.38333  0.28116  1.0000
  S   S55       1.0  0.29945  0.52259  0.00537  1.0000
  H   H172      1.0  0.48075  0.42900  0.29137  1.0000
  C   C140      1.0  0.07986  0.35404  0.45200  1.0000
  S   S56       1.0  0.35741  0.49806  0.01954  1.0000
  C   C141      1.0  0.37393  0.43723  0.05880  1.0000
  H   H173      1.0  0.41653  0.58164  0.00070  1.0000
  H   H174      1.0  0.39423  0.39720  0.28999  1.0000
  H   H175      1.0  0.32559  0.35502  0.20025  1.0000
  C   C142      1.0  0.07853  0.38041  0.44703  1.0000
  C   C143      1.0  0.25681  0.35241  0.47521  1.0000
  C   C144      1.0  0.25578  0.37928  0.47265  1.0000
  C   C145      1.0  0.31855  0.33487  0.19987  1.0000
  H   H176      1.0  0.43811  0.42025  0.09330  1.0000
  H   H177      1.0  0.17455  0.55594  0.44234  1.0000
  H   H178      1.0  0.27084  0.38899  0.46108  1.0000
  C   C146      1.0  0.39220  0.64470  0.04412  1.0000
  C   C147      1.0  0.23167  0.45466  0.34669  1.0000
  C   C148      1.0  0.21106  0.45186  0.36570  1.0000
  C   C149      1.0  0.21339  0.46045  0.39178  1.0000
  C   C150      1.0  0.23613  0.47276  0.39910  1.0000
  C   C151      1.0  0.25670  0.47559  0.38009  1.0000
  C   C152      1.0  0.25467  0.46634  0.35419  1.0000
  H   H179      1.0  0.19320  0.44281  0.36022  1.0000
  H   H180      1.0  0.19740  0.45792  0.40605  1.0000
  H   H181      1.0  0.27437  0.48513  0.38539  1.0000
  H   H182      1.0  0.27069  0.46878  0.33990  1.0000
  C   C153      1.0  0.27346  0.46476  0.14846  1.0000
  C   C154      1.0  0.26906  0.48582  0.13156  1.0000
  C   C155      1.0  0.27908  0.48569  0.10529  1.0000
  C   C156      1.0  0.29331  0.46424  0.09536  1.0000
  C   C157      1.0  0.29742  0.44307  0.11218  1.0000
  C   C158      1.0  0.28784  0.44340  0.13857  1.0000
  H   H183      1.0  0.25788  0.50243  0.13888  1.0000
  H   H184      1.0  0.27548  0.50204  0.09265  1.0000
  H   H185      1.0  0.30799  0.42618  0.10469  1.0000
  H   H186      1.0  0.29133  0.42700  0.15116  1.0000
  H   H187      1.0  0.18271  0.56941  0.41056  1.0000
  H   H188      1.0  0.19442  0.37253  0.32034  1.0000
  H   H189      1.0  0.47552  0.33319  0.19296  1.0000
  C   C159      1.0  0.40227  0.46923  0.23236  1.0000
  C   C160      1.0  0.40500  0.44590  0.21881  1.0000
  C   C161      1.0  0.38762  0.42585  0.22449  1.0000
  C   C162      1.0  0.36698  0.42946  0.24310  1.0000
  C   C163      1.0  0.36320  0.45336  0.25546  1.0000
  C   C164      1.0  0.38096  0.47319  0.25021  1.0000
  H   H190      1.0  0.42080  0.44306  0.20435  1.0000
  H   H191      1.0  0.39036  0.40744  0.21467  1.0000
  H   H192      1.0  0.34723  0.45620  0.26987  1.0000
  H   H193      1.0  0.37858  0.49137  0.26051  1.0000
  C   C165      1.0  0.05588  0.51029  0.44021  1.0000
  C   C166      1.0  0.07935  0.49645  0.43435  1.0000
  C   C167      1.0  0.09932  0.49538  0.45254  1.0000
  C   C168      1.0  0.09608  0.50874  0.47628  1.0000
  C   C169      1.0  0.07262  0.52247  0.48206  1.0000
  C   C170      1.0  0.05255  0.52313  0.46418  1.0000
  H   H194      1.0  0.08194  0.48645  0.41580  1.0000
  H   H195      1.0  0.11706  0.48422  0.44823  1.0000
  C   C171      1.0  0.39711  0.42653  0.09762  1.0000
  H   H196      1.0  0.03467  0.53407  0.46870  1.0000
  H   H197      1.0  0.35579  0.44207  0.04948  1.0000
  H   H198      1.0  0.17817  0.37468  0.46256  1.0000
  S   S57       1.0  0.28195  0.33455  0.45863  1.0000
  C   C172      1.0  0.45370  0.41274  0.24967  1.0000
  C   C173      1.0  0.40736  0.38076  0.28704  1.0000
  H   H199      1.0  0.37497  0.35512  0.29273  1.0000
  C   C174      1.0  0.17648  0.35765  0.44955  1.0000
  H   H200      1.0  0.08612  0.56441  0.43698  1.0000
  C   C175      1.0  0.47193  0.40951  0.29228  1.0000
  C   C176      1.0  0.10353  0.54319  0.37580  1.0000
  H   H201      1.0  0.25919  0.34059  0.30852  1.0000
  S   S58       1.0  0.19564  0.51399  0.49280  1.0000
  H   H202      1.0  0.49046  0.37851  0.19379  1.0000
  C   C177      1.0  0.44218  0.40934  0.01598  1.0000
  Fe  Fe28      1.0  0.31522  0.48634  0.02478  1.0000
  C   C178      1.0  0.18276  0.55135  0.42236  1.0000
  H   H203      1.0  0.15661  0.51278  0.44611  1.0000
  H   H204      1.0  0.33909  0.64994  0.06219  1.0000
  N   N9        1.0  0.34189  0.50243  0.18265  1.0000
  C   C179      1.0  0.35651  0.51832  0.20111  1.0000
  C   C180      1.0  0.31604  0.51560  0.17969  1.0000
  C   C181      1.0  0.33722  0.47676  0.19450  1.0000
  C   C182      1.0  0.35695  0.49881  0.15739  1.0000
  C   C183      1.0  0.38433  0.49303  0.15678  1.0000
  C   C184      1.0  0.34470  0.49910  0.13288  1.0000
  C   C185      1.0  0.39871  0.48952  0.13306  1.0000
  C   C186      1.0  0.35918  0.49526  0.10930  1.0000
  C   C187      1.0  0.38619  0.49088  0.10936  1.0000
  H   H205      1.0  0.36258  0.53685  0.19189  1.0000
  H   H206      1.0  0.34467  0.52284  0.21941  1.0000
  H   H207      1.0  0.37437  0.50840  0.20793  1.0000
  H   H208      1.0  0.30226  0.50342  0.16927  1.0000
  H   H209      1.0  0.31813  0.53420  0.16898  1.0000
  H   H210      1.0  0.30575  0.51960  0.19899  1.0000
  H   H211      1.0  0.35591  0.46600  0.19746  1.0000
  H   H212      1.0  0.32653  0.47833  0.21392  1.0000
  H   H213      1.0  0.32520  0.46467  0.18175  1.0000
  H   H214      1.0  0.39497  0.49094  0.17455  1.0000
  H   H215      1.0  0.32385  0.50201  0.13140  1.0000
  H   H216      1.0  0.41969  0.48555  0.13311  1.0000
  H   H217      1.0  0.34927  0.49539  0.09086  1.0000
  H   H218      1.0  0.39731  0.48795  0.09101  1.0000
  S   S59       1.0  0.47382  0.44664  0.18593  1.0000
  H   H219      1.0  0.39637  0.44018  0.02314  1.0000
  N   N10       1.0  0.44726  0.40871  0.27787  1.0000
  H   H220      1.0  0.24855  0.41195  0.37853  1.0000
  H   H221      1.0  0.26180  0.38377  0.41488  1.0000
  C   C188      1.0  0.16682  0.50811  0.42696  1.0000
  N   N11       1.0  0.44589  0.42687  0.03845  1.0000
  H   H222      1.0  0.22530  0.37335  0.30177  1.0000
  C   C189      1.0  0.10140  0.39468  0.44601  1.0000
  H   H223      1.0  0.48757  0.39639  0.28375  1.0000
  C   C190      1.0  0.42145  0.42890  0.05508  1.0000
  C   C191      1.0  0.39738  0.43578  0.04377  1.0000
  H   H224      1.0  0.05965  0.38968  0.44407  1.0000
  H   H225      1.0  0.34107  0.64054  0.02810  1.0000
  C   C192      1.0  0.39591  0.35648  0.28862  1.0000
  C   C193      1.0  0.03698  0.44850  0.47299  1.0000
  H   H226      1.0  0.42465  0.61834  0.05015  1.0000
  H   H227      1.0  0.35544  0.43407  0.09718  1.0000
  C   C194      1.0  0.37373  0.43255  0.08564  1.0000
  H   H228      1.0  0.37857  0.62916  0.04684  1.0000
  C   C195      1.0  0.12468  0.55013  0.42475  1.0000
  H   H229      1.0  0.27573  0.61594  0.01482  1.0000
  H   H230      1.0  0.01875  0.45942  0.46817  1.0000
  H   H231      1.0  0.45523  0.46659  0.04450  1.0000
  H   H232      1.0  0.41263  0.43306  0.27552  1.0000
  C   C196      1.0  0.37147  0.33996  0.22199  1.0000
  C   C197      1.0  0.44940  0.36020  0.27630  1.0000
  H   H233      1.0  0.42406  0.42838  0.30827  1.0000
  C   C198      1.0  0.24578  0.39132  0.37726  1.0000
  H   H234      1.0  0.20154  0.35074  0.29354  1.0000
  H   H235      1.0  0.41007  0.35621  0.22104  1.0000
  H   H236      1.0  0.14266  0.39475  0.44862  1.0000
  H   H237      1.0  0.30733  0.57958  0.02008  1.0000
  H   H238      1.0  0.39692  0.42338  0.11864  1.0000
  C   C199      1.0  0.33757  0.65705  0.04173  1.0000
  C   C200      1.0  0.23518  0.38068  0.35495  1.0000
  H   H239      1.0  0.46850  0.39855  0.24205  1.0000
  C   C201      1.0  0.41877  0.63811  0.04607  1.0000
  C   C202      1.0  0.46870  0.41662  0.05265  1.0000
  H   H240      1.0  0.19527  0.34653  0.45133  1.0000
  C   C203      1.0  0.43784  0.33602  0.27799  1.0000
  Fe  Fe29      1.0  0.99927  0.33461  0.48459  1.0000
  H   H241      1.0  0.23395  0.41425  0.48167  1.0000
  H   H242      1.0  0.47102  0.45224  0.01570  1.0000
  C   C204      1.0  0.12790  0.35544  0.45373  1.0000
  H   H243      1.0  0.43568  0.39003  0.02289  1.0000
  H   H244      1.0  0.10023  0.41531  0.44257  1.0000
  H   H245      1.0  0.46846  0.40426  0.31326  1.0000
  C   C205      1.0  0.43033  0.43074  0.28728  1.0000
  H   H246      1.0  0.23015  0.39408  0.33967  1.0000
  S   S60       1.0  0.48493  0.50902  0.18172  1.0000
  H   H247      1.0  0.17605  0.50561  0.37591  1.0000
  H   H248      1.0  0.17574  0.36440  0.42890  1.0000
  C   C206      1.0  0.08794  0.55346  0.39643  1.0000
  H   H249      1.0  0.09498  0.54001  0.35701  1.0000
  H   H250      1.0  0.46479  0.39722  0.06113  1.0000
  C   C207      1.0  0.12979  0.53635  0.37945  1.0000
  C   C208      1.0  0.25048  0.34895  0.39602  1.0000
  H   H251      1.0  0.13145  0.55202  0.44442  1.0000
  C   C209      1.0  0.24004  0.33808  0.37385  1.0000
  C   C210      1.0  0.23176  0.35360  0.35270  1.0000
  H   H252      1.0  0.03806  0.43088  0.46055  1.0000
  C   C211      1.0  0.42073  0.42477  0.08270  1.0000
  H   H253      1.0  0.06734  0.55788  0.39379  1.0000
  H   H254      1.0  0.18668  0.50067  0.43137  1.0000
  H   H255      1.0  0.14055  0.52807  0.36275  1.0000
  H   H256      1.0  0.18492  0.53900  0.37072  1.0000
  H   H257      1.0  0.44058  0.44948  0.28527  1.0000
  H   H258      1.0  0.48661  0.41456  0.03950  1.0000
  H   H259      1.0  0.43698  0.46100  0.01584  1.0000
  C   C212      1.0  0.12578  0.38252  0.44939  1.0000
  H   H260      1.0  0.20362  0.54543  0.42515  1.0000
  H   H261      1.0  0.15618  0.49208  0.41793  1.0000
  N   N12       1.0  0.16823  0.53075  0.40933  1.0000
  S   S61       1.0  0.30638  0.46259  0.06232  1.0000
  N   N13       1.0  0.22156  0.34147  0.32904  1.0000
  C   C213      1.0  0.18393  0.52303  0.38530  1.0000
  H   H262      1.0  0.18504  0.33222  0.34913  1.0000
  H   H263      1.0  0.47400  0.42973  0.06874  1.0000
  H   H264      1.0  0.20456  0.51773  0.38976  1.0000
  C   C214      1.0  0.48764  0.33938  0.20855  1.0000
  C   C215      1.0  0.45256  0.45278  0.02817  1.0000
  C   C216      1.0  0.10404  0.34173  0.45571  1.0000
  C   C217      1.0  0.14118  0.53962  0.40416  1.0000
  C   C218      1.0  0.29455  0.61607  0.00423  1.0000
  H   H265      1.0  0.05364  0.46081  0.46671  1.0000
  C   C219      1.0  0.09856  0.55714  0.42078  1.0000
  C   C220      1.0  0.21017  0.36040  0.31055  1.0000
  H   H266      1.0  0.36230  0.35890  0.22318  1.0000
  N   N14       1.0  0.15337  0.34188  0.45720  1.0000
  H   H267      1.0  0.46992  0.36065  0.27051  1.0000
  S   S62       1.0  0.36011  0.57125  0.99945  1.0000
  C   C221      1.0  0.23504  0.39367  0.48464  1.0000
  H   H268      1.0  0.06197  0.34302  0.45288  1.0000
  H   H269      1.0  0.42729  0.41686  0.00250  1.0000
  H   H270      1.0  0.46168  0.43224  0.24563  1.0000
  H   H271      1.0  0.29680  0.33649  0.19962  1.0000
  C   C222      1.0  0.15534  0.33467  0.48513  1.0000
  H   H272      1.0  0.25011  0.33824  0.19139  1.0000
  H   H273      1.0  0.25687  0.33664  0.41174  1.0000
  C   C223      1.0  0.41115  0.33415  0.28429  1.0000
  C   C224      1.0  0.31236  0.59545  0.00716  1.0000
  C   C225      1.0  0.39887  0.33867  0.22064  1.0000
  H   H274      1.0  0.29586  0.33386  0.24873  1.0000
  S   S63       1.0  0.49212  0.47931  0.11605  1.0000
  H   H275      1.0  0.32449  0.35283  0.24811  1.0000
  H   H276      1.0  0.45849  0.65157  0.04351  1.0000
  Fe  Fe30      1.0  0.16027  0.48918  0.49647  1.0000
  H   H277      1.0  0.46058  0.40662  0.00368  1.0000
  C   C226      1.0  0.23742  0.34002  0.49049  1.0000
  C   C227      1.0  0.43786  0.65674  0.04239  1.0000
  H   H278      1.0  0.45463  0.55312  0.00205  1.0000
  H   H279      1.0  0.01360  0.40859  0.49578  1.0000
  C   C228      1.0  0.31771  0.33263  0.24707  1.0000
  C   C229      1.0  0.49621  0.36513  0.20888  1.0000
  S   S64       1.0  0.00059  0.36793  0.45639  1.0000
  Fe  Fe31      1.0  0.49724  0.47321  0.15949  1.0000
  H   H280      1.0  0.49525  0.54028  0.01976  1.0000
  H   H281      1.0  0.99821  0.41745  0.43234  1.0000
  Fe  Fe32      1.0  0.21778  0.56245  0.75617  1.0000
  S   S65       1.0  0.23412  0.52187  0.75550  1.0000
  S   S66       1.0  0.17442  0.56934  0.76220  1.0000
  Fe  Fe33      1.0  0.27001  0.58594  0.74251  1.0000
  S   S67       1.0  0.28976  0.54691  0.73971  1.0000
  S   S68       1.0  0.29655  0.62016  0.73935  1.0000
  Fe  Fe34      1.0  0.25453  0.53484  0.71777  1.0000
  S   S69       1.0  0.25627  0.50807  0.68178  1.0000
  Fe  Fe35      1.0  0.26742  0.53814  0.77778  1.0000
  S   S70       1.0  0.29244  0.52165  0.81072  1.0000
  S   S71       1.0  0.23668  0.57481  0.71784  1.0000
  S   S72       1.0  0.24912  0.57786  0.78112  1.0000
  Fe  Fe36      1.0  0.07572  0.50299  0.68442  1.0000
  S   S73       1.0  0.04772  0.50386  0.71947  1.0000
  S   S74       1.0  0.11935  0.49730  0.68244  1.0000
  H   H282      1.0  0.10776  0.48521  0.77753  1.0000
  S   S75       1.0  0.05011  0.47858  0.66082  1.0000
  S   S76       1.0  0.06208  0.54022  0.66735  1.0000
  H   H283      1.0  0.26794  0.58519  0.66970  1.0000
  C   C230      1.0  0.01966  0.40541  0.72498  1.0000
  H   H284      1.0  0.30651  0.60593  0.85217  1.0000
  Fe  Fe37      1.0  0.35743  0.47818  0.98074  1.0000
  S   S77       1.0  0.31626  0.46436  0.98643  1.0000
  S   S78       1.0  0.38995  0.45002  0.96835  1.0000
  Fe  Fe38      1.0  0.30436  0.50147  0.96652  1.0000
  S   S79       1.0  0.27400  0.50485  0.93466  1.0000
  H   H285      1.0  0.08006  0.63361  0.70153  1.0000
  C   C231      1.0  0.06378  0.40148  0.51332  1.0000
  S   S80       1.0  0.34572  0.51336  0.95814  1.0000
  H   H286      1.0  0.25947  0.61272  0.96534  1.0000
  H   H287      1.0  0.12854  0.43921  0.50666  1.0000
  H   H288      1.0  0.01364  0.38618  0.59642  1.0000
  C   C232      1.0  0.11040  0.42871  0.50857  1.0000
  C   C233      1.0  0.03362  0.43317  0.60214  1.0000
  C   C234      1.0  0.32536  0.63691  0.97421  1.0000
  S   S81       1.0  0.00312  0.33006  0.74282  1.0000
  C   C235      1.0  0.28809  0.64970  0.72465  1.0000
  C   C236      1.0  0.33851  0.45293  0.90989  1.0000
  H   H289      1.0  0.03430  0.41901  0.73031  1.0000
  C   C237      1.0  0.34355  0.61666  0.97777  1.0000
  H   H290      1.0  0.33086  0.54749  0.65976  1.0000
  C   C238      1.0  0.28641  0.51949  0.84539  1.0000
  C   C239      1.0  0.26150  0.51462  0.85659  1.0000
  C   C240      1.0  0.25817  0.50994  0.88380  1.0000
  C   C241      1.0  0.27954  0.51057  0.90036  1.0000
  C   C242      1.0  0.30434  0.51617  0.88930  1.0000
  C   C243      1.0  0.30775  0.52033  0.86199  1.0000
  H   H291      1.0  0.24492  0.51357  0.84414  1.0000
  H   H292      1.0  0.23888  0.50567  0.89207  1.0000
  H   H293      1.0  0.32097  0.51673  0.90167  1.0000
  H   H294      1.0  0.32715  0.52384  0.85357  1.0000
  C   C244      1.0  0.15871  0.54983  0.73988  1.0000
  C   C245      1.0  0.17320  0.53838  0.71896  1.0000
  C   C246      1.0  0.16083  0.52300  0.70091  1.0000
  C   C247      1.0  0.13397  0.51851  0.70394  1.0000
  C   C248      1.0  0.11925  0.53055  0.72439  1.0000
  C   C249      1.0  0.13164  0.54615  0.74242  1.0000
  H   H295      1.0  0.19399  0.54126  0.71660  1.0000
  H   H296      1.0  0.17219  0.51459  0.68463  1.0000
  H   H297      1.0  0.09844  0.52738  0.72675  1.0000
  H   H298      1.0  0.12031  0.55498  0.75854  1.0000
  C   C250      1.0  0.11081  0.49924  0.57769  1.0000
  H   H299      1.0  0.03688  0.37370  0.74637  1.0000
  C   C251      1.0  0.22687  0.51645  0.59727  1.0000
  C   C252      1.0  0.22525  0.53757  0.61470  1.0000
  C   C253      1.0  0.23334  0.53522  0.64079  1.0000
  C   C254      1.0  0.24371  0.51176  0.64974  1.0000
  C   C255      1.0  0.24510  0.49059  0.63241  1.0000
  C   C256      1.0  0.23657  0.49282  0.60647  1.0000
  H   H300      1.0  0.21776  0.55595  0.60790  1.0000
  H   H301      1.0  0.23192  0.55166  0.65381  1.0000
  H   H302      1.0  0.25317  0.47235  0.63896  1.0000
  H   H303      1.0  0.23815  0.47641  0.59339  1.0000
  H   H304      1.0  0.29440  0.54430  0.63301  1.0000
  C   C257      1.0  0.00178  0.36162  0.72827  1.0000
  Fe  Fe39      1.0  0.19346  0.44173  0.50749  1.0000
  Fe  Fe40      1.0  0.03383  0.51607  0.64603  1.0000
  H   H305      1.0  0.25742  0.63477  0.70166  1.0000
  C   C258      1.0  0.47057  0.48384  0.94982  1.0000
  C   C259      1.0  0.44881  0.50030  0.95498  1.0000
  C   C260      1.0  0.42404  0.49009  0.96117  1.0000
  C   C261      1.0  0.42082  0.46338  0.96143  1.0000
  C   C262      1.0  0.44248  0.44695  0.95592  1.0000
  C   C263      1.0  0.46740  0.45713  0.95055  1.0000
  H   H306      1.0  0.45112  0.52100  0.95424  1.0000
  H   H307      1.0  0.40741  0.50292  0.96542  1.0000
  S   S82       1.0  0.18927  0.39915  0.51459  1.0000
  H   H308      1.0  0.48399  0.44435  0.94616  1.0000
  H   H309      1.0  0.29448  0.58525  0.69161  1.0000
  H   H310      1.0  0.29193  0.60909  0.60615  1.0000
  H   H311      1.0  0.30199  0.44393  0.93035  1.0000
  H   H312      1.0  0.34668  0.57247  0.64069  1.0000
  H   H313      1.0  0.29742  0.45707  0.84784  1.0000
  H   H314      1.0  0.09814  0.63156  0.74615  1.0000
  C   C264      1.0  0.02102  0.37963  0.73416  1.0000
  C   C265      1.0  0.04222  0.62397  0.74980  1.0000
  H   H315      1.0  0.14386  0.50532  0.61591  1.0000
  C   C266      1.0  0.13150  0.64721  0.70804  1.0000
  H   H316      1.0  0.11173  0.51542  0.62714  1.0000
  H   H317      1.0  0.06025  0.58776  0.61742  1.0000
  C   C267      1.0  0.15882  0.65064  0.70274  1.0000
  C   C268      1.0  0.31821  0.62463  0.66459  1.0000
  C   C269      1.0  0.08784  0.38914  0.51779  1.0000
  H   H318      1.0  0.09842  0.53956  0.54087  1.0000
  C   C270      1.0  0.08650  0.44119  0.50396  1.0000
  H   H319      1.0  0.16094  0.51578  0.57316  1.0000
  H   H320      1.0  0.12903  0.61513  0.75044  1.0000
  H   H321      1.0  0.14511  0.60340  0.68045  1.0000
  S   S83       1.0  0.17242  0.47063  0.53382  1.0000
  S   S84       1.0  0.21756  0.52112  0.56411  1.0000
  H   H322      1.0  0.01287  0.42089  0.52887  1.0000
  C   C271      1.0  0.04345  0.65124  0.74981  1.0000
  H   H323      1.0  0.46429  0.64344  0.97194  1.0000
  C   C272      1.0  0.06916  0.57745  0.60075  1.0000
  C   C273      1.0  0.10070  0.54478  0.58309  1.0000
  C   C274      1.0  0.02661  0.62457  0.70586  1.0000
  H   H324      1.0  0.15449  0.59754  0.71382  1.0000
  N   N15       1.0  0.00613  0.42580  0.60849  1.0000
  C   C275      1.0  0.03481  0.46606  0.51674  1.0000
  H   H325      1.0  0.12756  0.58122  0.70111  1.0000
  C   C276      1.0  0.48477  0.60760  0.97904  1.0000
  H   H326      1.0  0.12501  0.48307  0.58091  1.0000
  S   S85       1.0  0.12016  0.50826  0.49991  1.0000
  H   H327      1.0  0.04766  0.61331  0.76705  1.0000
  H   H328      1.0  0.36258  0.61693  0.96761  1.0000
  H   H329      1.0  0.33029  0.65254  0.96111  1.0000
  C   C277      1.0  0.08965  0.55962  0.60436  1.0000
  H   H330      1.0  0.32435  0.61723  0.68325  1.0000
  H   H331      1.0  0.01987  0.61458  0.68890  1.0000
  H   H332      1.0  0.04666  0.38960  0.51516  1.0000
  C   C278      1.0  0.43801  0.61435  0.98648  1.0000
  C   C279      1.0  0.00618  0.39757  0.61378  1.0000
  H   H333      1.0  0.28468  0.55554  0.67778  1.0000
  C   C280      1.0  0.02729  0.65188  0.70609  1.0000
  C   C281      1.0  0.30104  0.63689  0.98786  1.0000
  Fe  Fe41      1.0  0.20880  0.49409  0.52967  1.0000
  H   H334      1.0  0.01897  0.39223  0.63019  1.0000
  H   H335      1.0  0.13739  0.53874  0.62175  1.0000
  H   H336      1.0  0.14149  0.53050  0.54897  1.0000
  H   H337      1.0  0.15265  0.54947  0.57554  1.0000
  C   C282      1.0  0.21589  0.38140  0.50027  1.0000
  H   H338      1.0  0.23899  0.63941  0.75867  1.0000
  H   H339      1.0  0.26258  0.64205  0.93290  1.0000
  H   H340      1.0  0.10702  0.49915  0.55641  1.0000
  H   H341      1.0  0.06277  0.57085  0.53527  1.0000
  C   C283      1.0  0.43572  0.58891  0.99492  1.0000
  H   H342      1.0  0.41155  0.47672  0.85805  1.0000
  C   C284      1.0  0.12872  0.52093  0.61402  1.0000
  N   N16       1.0  0.26209  0.58751  0.93174  1.0000
  C   C285      1.0  0.28378  0.57217  0.94289  1.0000
  C   C286      1.0  0.24694  0.60016  0.95382  1.0000
  C   C287      1.0  0.24399  0.56976  0.91911  1.0000
  C   C288      1.0  0.27314  0.60586  0.91214  1.0000
  C   C289      1.0  0.28648  0.59660  0.88890  1.0000
  C   C290      1.0  0.27169  0.63309  0.91563  1.0000
  C   C291      1.0  0.01386  0.42640  0.50781  1.0000
  H   H343      1.0  0.10066  0.62536  0.67337  1.0000
  C   C292      1.0  0.09085  0.54989  0.55797  1.0000
  H   H344      1.0  0.30265  0.65323  0.85909  1.0000
  H   H345      1.0  0.27649  0.55856  0.95834  1.0000
  H   H346      1.0  0.00890  0.43293  0.64989  1.0000
  S   S86       1.0  0.23122  0.46352  0.50566  1.0000
  C   C293      1.0  0.11108  0.40276  0.51556  1.0000
  H   H347      1.0  0.23859  0.58579  0.96793  1.0000
  H   H348      1.0  0.23587  0.55526  0.93326  1.0000
  H   H349      1.0  0.22733  0.58056  0.91055  1.0000
  H   H350      1.0  0.25379  0.55841  0.90307  1.0000
  H   H351      1.0  0.28906  0.57614  0.88515  1.0000
  H   H352      1.0  0.23030  0.61210  0.94676  1.0000
  S   S87       1.0  0.03273  0.57584  0.72930  1.0000
  C   C294      1.0  0.29985  0.61997  0.62189  1.0000
  H   H353      1.0  0.29826  0.58490  0.95184  1.0000
  C   C295      1.0  0.30822  0.60812  0.64536  1.0000
  C   C296      1.0  0.28230  0.64979  0.89663  1.0000
  H   H354      1.0  0.09603  0.55735  0.62409  1.0000
  C   C297      1.0  0.14493  0.53031  0.57033  1.0000
  N   N17       1.0  0.18718  0.45150  0.71207  1.0000
  C   C298      1.0  0.17867  0.45147  0.68455  1.0000
  C   C299      1.0  0.21107  0.46739  0.71263  1.0000
  C   C300      1.0  0.19454  0.42478  0.71948  1.0000
  C   C301      1.0  0.16566  0.46091  0.73025  1.0000
  C   C302      1.0  0.16960  0.47921  0.75037  1.0000
  C   C303      1.0  0.14006  0.45087  0.72899  1.0000
  C   C304      1.0  0.14892  0.48766  0.76727  1.0000
  C   C305      1.0  0.11947  0.45960  0.74586  1.0000
  C   C306      1.0  0.12387  0.47806  0.76487  1.0000
  H   H355      1.0  0.17005  0.47051  0.67922  1.0000
  H   H356      1.0  0.19525  0.44727  0.67021  1.0000
  H   H357      1.0  0.16373  0.43677  0.68101  1.0000
  H   H358      1.0  0.20650  0.48803  0.70838  1.0000
  H   H359      1.0  0.22639  0.46107  0.69767  1.0000
  H   H360      1.0  0.22062  0.46613  0.73178  1.0000
  H   H361      1.0  0.17776  0.41152  0.71824  1.0000
  H   H362      1.0  0.21084  0.41689  0.70647  1.0000
  H   H363      1.0  0.20104  0.42398  0.74004  1.0000
  H   H364      1.0  0.18830  0.48783  0.75314  1.0000
  H   H365      1.0  0.13553  0.43652  0.71467  1.0000
  H   H366      1.0  0.15222  0.50236  0.78182  1.0000
  Fe  Fe42      1.0  0.03253  0.54092  0.70115  1.0000
  H   H367      1.0  0.09988  0.45236  0.74386  1.0000
  H   H368      1.0  0.04309  0.59467  0.57333  1.0000
  C   C307      1.0  0.28749  0.57637  0.67341  1.0000
  H   H369      1.0  0.19449  0.62268  0.76778  1.0000
  H   H370      1.0  0.03699  0.51382  0.54618  1.0000
  C   C308      1.0  0.03392  0.61036  0.72783  1.0000
  C   C309      1.0  0.29467  0.64007  0.87379  1.0000
  H   H371      1.0  0.08707  0.60081  0.69479  1.0000
  H   H372      1.0  0.12972  0.39321  0.51909  1.0000
  C   C310      1.0  0.35148  0.45947  0.88569  1.0000
  Fe  Fe43      1.0  0.02035  0.48207  0.69417  1.0000
  C   C311      1.0  0.30912  0.45529  0.86505  1.0000
  H   H373      1.0  0.34373  0.46559  0.84395  1.0000
  H   H374      1.0  0.27603  0.44629  0.89070  1.0000
  H   H375      1.0  0.39158  0.42529  0.88065  1.0000
  C   C312      1.0  0.05948  0.58142  0.57593  1.0000
  C   C313      1.0  0.33183  0.56877  0.65680  1.0000
  H   H376      1.0  0.34893  0.45192  0.92788  1.0000
  H   H377      1.0  0.38014  0.49012  0.85075  1.0000
  H   H378      1.0  0.37242  0.50428  0.89768  1.0000
  C   C314      1.0  0.07054  0.56791  0.55452  1.0000
  H   H379      1.0  0.33936  0.57667  0.67521  1.0000
  C   C315      1.0  0.33594  0.46036  0.86317  1.0000
  C   C316      1.0  0.29700  0.44925  0.88916  1.0000
  C   C317      1.0  0.29591  0.56528  0.62832  1.0000
  H   H380      1.0  0.30906  0.56682  0.61046  1.0000
  H   H381      1.0  0.03698  0.46225  0.53801  1.0000
  H   H382      1.0  0.44000  0.42628  0.95566  1.0000
  H   H383      1.0  0.29455  0.56013  0.92783  1.0000
  C   C318      1.0  0.38471  0.48705  0.90247  1.0000
  H   H384      1.0  0.38808  0.45652  0.84377  1.0000
  H   H385      1.0  0.41646  0.44584  0.89286  1.0000
  H   H386      1.0  0.38956  0.43660  0.91380  1.0000
  H   H387      1.0  0.38023  0.48213  0.92330  1.0000
  H   H388      1.0  0.40566  0.49274  0.90147  1.0000
  N   N18       1.0  0.12095  0.52428  0.58644  1.0000
  C   C319      1.0  0.29682  0.61351  0.86995  1.0000
  H   H389      1.0  0.48866  0.52778  0.98756  1.0000
  C   C320      1.0  0.39024  0.47244  0.85809  1.0000
  C   C321      1.0  0.39500  0.44226  0.89330  1.0000
  H   H390      1.0  0.27575  0.57176  0.62349  1.0000
  N   N19       1.0  0.37982  0.46523  0.88466  1.0000
  C   C322      1.0  0.31167  0.44803  0.91152  1.0000
  C   C323      1.0  0.19729  0.64330  0.76567  1.0000
  N   N20       1.0  0.30589  0.58012  0.65059  1.0000
  H   H391      1.0  0.09200  0.49476  0.58849  1.0000
  S   S88       1.0  0.03530  0.51263  0.60169  1.0000
  C   C324      1.0  0.26851  0.65158  0.70635  1.0000
  C   C325      1.0  0.17591  0.66038  0.76827  1.0000
  H   H392      1.0  0.17255  0.63458  0.70072  1.0000
  C   C326      1.0  0.13758  0.60011  0.70092  1.0000
  N   N21       1.0  0.11959  0.62140  0.71016  1.0000
  C   C327      1.0  0.09596  0.62032  0.69421  1.0000
  C   C328      1.0  0.00574  0.53921  0.53438  1.0000
  C   C329      1.0  0.46249  0.62366  0.97860  1.0000
  H   H393      1.0  0.04696  0.42685  0.61776  1.0000
  C   C330      1.0  0.02092  0.52638  0.55282  1.0000
  H   H394      1.0  0.03576  0.45445  0.60049  1.0000
  H   H395      1.0  0.01032  0.53659  0.51373  1.0000
  C   C331      1.0  0.06237  0.42811  0.50648  1.0000
  H   H396      1.0  0.01538  0.47585  0.51447  1.0000
  C   C332      1.0  0.21733  0.35457  0.50347  1.0000
  C   C333      1.0  0.01592  0.53017  0.57976  1.0000
  H   H397      1.0  0.08845  0.36881  0.52287  1.0000
  C   C334      1.0  0.22232  0.65274  0.76055  1.0000
  H   H398      1.0  0.08711  0.46119  0.49824  1.0000
  H   H399      1.0  0.99859  0.46039  0.63182  1.0000
  C   C335      1.0  0.33702  0.59591  0.99424  1.0000
  C   C336      1.0  0.45793  0.57268  0.99564  1.0000
  H   H400      1.0  0.20294  0.34502  0.51599  1.0000
  H   H401      1.0  0.04952  0.48055  0.51044  1.0000
  H   H402      1.0  0.15647  0.65292  0.77234  1.0000
  N   N22       1.0  0.03738  0.44185  0.50122  1.0000
  C   C337      1.0  0.48327  0.58165  0.98784  1.0000
  H   H403      1.0  0.10122  0.59767  0.74014  1.0000
  C   C338      1.0  0.11169  0.61628  0.73792  1.0000
  C   C339      1.0  0.30116  0.64670  0.61827  1.0000
  H   H404      1.0  0.04102  0.42433  0.58334  1.0000
  S   S89       1.0  0.00239  0.51915  0.67839  1.0000
  H   H405      1.0  0.29433  0.65546  0.60043  1.0000
  C   C340      1.0  0.31964  0.65125  0.66063  1.0000
  H   H406      1.0  0.06988  0.53268  0.50047  1.0000
  H   H407      1.0  0.04975  0.66125  0.76695  1.0000
  H   H408      1.0  0.42077  0.62688  0.98596  1.0000
  C   C341      1.0  0.99863  0.41383  0.71019  1.0000
  H   H409      1.0  0.15647  0.35208  0.49779  1.0000
  Fe  Fe44      1.0  0.34187  0.53222  0.99763  1.0000
  C   C342      1.0  0.10356  0.93442  0.01168  1.0000
  H   H410      1.0  0.03119  0.94668  0.00729  1.0000
  S   S90       1.0  0.05682  0.80580  0.02713  1.0000
  S   S91       1.0  0.05513  0.87774  0.03817  1.0000
  Fe  Fe45      1.0  0.02066  0.79734  0.00494  1.0000
  H   H411      1.0  0.10903  0.81119  0.06356  1.0000
  C   C343      1.0  0.16064  0.91069  0.04438  1.0000
  H   H412      1.0  0.00342  0.92731  0.05795  1.0000
  N   N23       1.0  0.13260  0.84332  0.05040  1.0000
  H   H413      1.0  0.17546  0.92061  0.03258  1.0000
  H   H414      1.0  0.44548  0.69643  0.03384  1.0000
  H   H415      1.0  0.35985  0.71766  0.04903  1.0000
  C   C344      1.0  0.38399  0.67048  0.03852  1.0000
  C   C345      1.0  0.11165  0.83207  0.06774  1.0000
  C   C346      1.0  0.35225  0.68688  0.00853  1.0000
  S   S92       1.0  0.11306  0.98420  0.02677  1.0000
  H   H416      1.0  0.16429  0.83053  0.07400  1.0000
  H   H417      1.0  0.36208  0.70539  0.00411  1.0000
  C   C347      1.0  0.12471  0.84030  0.02304  1.0000
  H   H418      1.0  0.09614  0.89510  0.00048  1.0000
  C   C348      1.0  0.13705  0.87099  0.05551  1.0000
  C   C349      1.0  0.12118  0.88584  0.07370  1.0000
  C   C350      1.0  0.49080  0.92825  0.46901  1.0000
  H   H419      1.0  0.33112  0.69014  0.00465  1.0000
  H   H420      1.0  0.12014  0.81989  0.01854  1.0000
  H   H421      1.0  0.02062  0.91492  0.01403  1.0000
  C   C351      1.0  0.47934  0.96642  0.44408  1.0000
  H   H422      1.0  0.14027  0.84609  0.00846  1.0000
  C   C352      1.0  0.01393  0.93391  0.00650  1.0000
  H   H423      1.0  0.09222  0.84157  0.06468  1.0000
  C   C353      1.0  0.14473  0.92465  0.06231  1.0000
  H   H424      1.0  0.17303  0.83310  0.03961  1.0000
  H   H425      1.0  0.11232  0.92340  0.09035  1.0000
  H   H426      1.0  0.35284  0.69460  0.07454  1.0000
  C   C354      1.0  0.43047  0.68207  0.03689  1.0000
  H   H427      1.0  0.10495  0.87780  0.08499  1.0000
  H   H428      1.0  0.15388  0.80688  0.05092  1.0000
  S   S93       1.0  0.49500  0.96586  0.31648  1.0000
  C   C355      1.0  0.09661  0.95475  0.02894  1.0000
  H   H429      1.0  0.46694  0.95989  0.48439  1.0000
  C   C356      1.0  0.09086  0.91060  0.01395  1.0000
  C   C357      1.0  0.07161  0.90700  0.03386  1.0000
  C   C358      1.0  0.06498  0.92723  0.05121  1.0000
  C   C359      1.0  0.07703  0.95117  0.04846  1.0000
  H   H430      1.0  0.10695  0.85239  0.01956  1.0000
  C   C360      1.0  0.15702  0.82789  0.05395  1.0000
  H   H431      1.0  0.05052  0.92437  0.06699  1.0000
  H   H432      1.0  0.07176  0.96665  0.06201  1.0000
  C   C361      1.0  0.12516  0.91223  0.07702  1.0000
  Fe  Fe46      1.0  0.05499  0.84509  0.00897  1.0000
  C   C362      1.0  0.15697  0.88425  0.04100  1.0000
  H   H433      1.0  0.46916  0.98487  0.44311  1.0000
  H   H434      1.0  0.11623  0.83369  0.08878  1.0000
  S   S94       1.0  0.49558  0.97674  0.39383  1.0000
  C   C363      1.0  0.40401  0.68889  0.03472  1.0000
  H   H435      1.0  0.39942  0.70868  0.02961  1.0000
  C   C364      1.0  0.47810  0.95229  0.46754  1.0000
  H   H436      1.0  0.48873  0.84647  0.25167  1.0000
  H   H437      1.0  0.16941  0.87443  0.02638  1.0000
  H   H438      1.0  0.49658  0.88766  0.22873  1.0000
  C   C365      1.0  0.34888  0.69984  0.05390  1.0000
  H   H439      1.0  0.01418  0.95967  0.05267  1.0000
  H   H440      1.0  0.14698  0.94534  0.06420  1.0000
  H   H441      1.0  0.32772  0.70535  0.05299  1.0000
  C   C366      1.0  0.49352  0.95687  0.42191  1.0000
  H   H442      1.0  0.46135  0.74533  0.00110  1.0000
  H   H443      1.0  0.41803  0.76773  0.99785  1.0000
  H   H444      1.0  0.00386  0.98347  0.01383  1.0000
  H   H445      1.0  0.31677  0.66335  0.03938  1.0000
  N   N24       1.0  0.35612  0.67820  0.03581  1.0000
  H   H446      1.0  0.49616  0.78299  0.17711  1.0000
  Fe  Fe47      1.0  0.44788  0.93482  0.58782  1.0000
  C   C367      1.0  0.12640  0.69448  0.70853  1.0000
  S   S95       1.0  0.43169  0.90923  0.62132  1.0000
  H   H447      1.0  0.16096  0.71626  0.69963  1.0000
  H   H448      1.0  0.37473  0.79776  0.60977  1.0000
  S   S96       1.0  0.48047  0.69426  0.98233  1.0000
  C   C368      1.0  0.05385  0.90221  0.93696  1.0000
  C   C369      1.0  0.38541  0.74536  0.81136  1.0000
  S   S97       1.0  0.43406  0.94268  0.54701  1.0000
  S   S98       1.0  0.01788  0.83745  0.98860  1.0000
  Fe  Fe48      1.0  0.31948  0.79051  0.73888  1.0000
  S   S99       1.0  0.33337  0.77340  0.69981  1.0000
  S   S100      1.0  0.33956  0.79008  0.77745  1.0000
  Fe  Fe49      1.0  0.27008  0.81375  0.71784  1.0000
  S   S101      1.0  0.27944  0.79889  0.67744  1.0000
  S   S102      1.0  0.23316  0.83586  0.73010  1.0000
  Fe  Fe50      1.0  0.29114  0.76207  0.69729  1.0000
  S   S103      1.0  0.27374  0.72569  0.68150  1.0000
  Fe  Fe51      1.0  0.32080  0.81183  0.68280  1.0000
  S   S104      1.0  0.33680  0.83268  0.64592  1.0000
  S   S105      1.0  0.27854  0.77612  0.73747  1.0000
  S   S106      1.0  0.31016  0.82967  0.72214  1.0000
  Fe  Fe52      1.0  0.04789  0.79323  0.76378  1.0000
  S   S107      1.0  0.08974  0.79485  0.77549  1.0000
  S   S108      1.0  0.01954  0.82842  0.76691  1.0000
  Fe  Fe53      1.0  0.05275  0.73355  0.75054  1.0000
  S   S109      1.0  0.09434  0.73193  0.76305  1.0000
  S   S110      1.0  0.03593  0.70007  0.72705  1.0000
  Fe  Fe54      1.0  0.08056  0.75774  0.79627  1.0000
  S   S111      1.0  0.09472  0.75245  0.83694  1.0000
  Fe  Fe55      1.0  0.09928  0.76898  0.74106  1.0000
  S   S112      1.0  0.13334  0.76925  0.71162  1.0000
  S   S113      1.0  0.03817  0.75667  0.78618  1.0000
  S   S114      1.0  0.05829  0.77022  0.72702  1.0000
  Fe  Fe56      1.0  0.04498  0.82249  0.95603  1.0000
  H   H449      1.0  0.38622  0.89466  0.59110  1.0000
  S   S115      1.0  0.03859  0.83308  0.91410  1.0000
  C   C370      1.0  0.40836  0.82748  0.55966  1.0000
  Fe  Fe57      1.0  0.33097  0.74036  0.95917  1.0000
  S   S116      1.0  0.32766  0.70238  0.93876  1.0000
  C   C371      1.0  0.20485  0.77928  0.96775  1.0000
  Fe  Fe58      1.0  0.27145  0.75372  0.95455  1.0000
  S   S117      1.0  0.26461  0.71637  0.93424  1.0000
  H   H450      1.0  0.06472  0.84098  0.66042  1.0000
  Fe  Fe59      1.0  0.29078  0.69850  0.96373  1.0000
  H   H451      1.0  0.41714  0.79879  0.82964  1.0000
  Fe  Fe60      1.0  0.30200  0.72396  0.91108  1.0000
  S   S118      1.0  0.30235  0.71381  0.86801  1.0000
  H   H452      1.0  0.04339  0.85550  0.71644  1.0000
  S   S119      1.0  0.30778  0.76258  0.92937  1.0000
  C   C372      1.0  0.40705  0.76705  0.85529  1.0000
  H   H453      1.0  0.37931  0.93476  0.66250  1.0000
  H   H454      1.0  0.07124  0.96399  0.94776  1.0000
  H   H455      1.0  0.37170  0.80744  0.56255  1.0000
  C   C373      1.0  0.42928  0.69973  0.96793  1.0000
  C   C374      1.0  0.40458  0.71225  0.96629  1.0000
  H   H456      1.0  0.06214  0.92346  0.97165  1.0000
  H   H457      1.0  0.38888  0.70276  0.95682  1.0000
  H   H458      1.0  0.35927  0.75191  0.89659  1.0000
  H   H459      1.0  0.02312  0.90087  0.86488  1.0000
  H   H460      1.0  0.42268  0.87349  0.53648  1.0000
  C   C375      1.0  0.05237  0.90295  0.90970  1.0000
  C   C376      1.0  0.07923  0.89387  0.71612  1.0000
  C   C377      1.0  0.08121  0.77650  0.85791  1.0000
  C   C378      1.0  0.08672  0.77622  0.88457  1.0000
  C   C379      1.0  0.07436  0.79419  0.90183  1.0000
  C   C380      1.0  0.05663  0.81257  0.89240  1.0000
  C   C381      1.0  0.05212  0.81360  0.86556  1.0000
  C   C382      1.0  0.06414  0.79542  0.84838  1.0000
  H   H461      1.0  0.09999  0.76170  0.89202  1.0000
  H   H462      1.0  0.07830  0.79352  0.92246  1.0000
  H   H463      1.0  0.03875  0.82797  0.85809  1.0000
  H   H464      1.0  0.05972  0.79580  0.82787  1.0000
  H   H465      1.0  0.40585  0.83183  0.53920  1.0000
  C   C383      1.0  0.43892  0.87623  0.54994  1.0000
  C   C384      1.0  0.41177  0.81624  0.61288  1.0000
  C   C385      1.0  0.39039  0.80790  0.59938  1.0000
  H   H466      1.0  0.38943  0.76462  0.90735  1.0000
  H   H467      1.0  0.17518  0.73917  0.78069  1.0000
  C   C386      1.0  0.02522  0.86163  0.77404  1.0000
  Fe  Fe61      1.0  0.44768  0.98331  0.55312  1.0000
  C   C387      1.0  0.45001  0.71148  0.98047  1.0000
  C   C388      1.0  0.03262  0.91550  0.78183  1.0000
  C   C389      1.0  0.05401  0.89786  0.78069  1.0000
  C   C390      1.0  0.05040  0.87116  0.77701  1.0000
  Fe  Fe62      1.0  0.01490  0.98488  0.79971  1.0000
  C   C391      1.0  0.43049  0.83623  0.57280  1.0000
  H   H468      1.0  0.07364  0.90495  0.78234  1.0000
  H   H469      1.0  0.06717  0.85807  0.77599  1.0000
  C   C392      1.0  0.32629  0.77028  0.80260  1.0000
  C   C393      1.0  0.32949  0.77690  0.82892  1.0000
  C   C394      1.0  0.32136  0.76018  0.84927  1.0000
  C   C395      1.0  0.31063  0.73641  0.84332  1.0000
  C   C396      1.0  0.30689  0.73002  0.81705  1.0000
  C   C397      1.0  0.31445  0.74701  0.79675  1.0000
  H   H470      1.0  0.33878  0.79482  0.83352  1.0000
  H   H471      1.0  0.32403  0.76544  0.86942  1.0000
  H   H472      1.0  0.29863  0.71163  0.81232  1.0000
  H   H473      1.0  0.31224  0.74157  0.77651  1.0000
  C   C398      1.0  0.20520  0.81759  0.72519  1.0000
  C   C399      1.0  0.20614  0.79783  0.70660  1.0000
  C   C400      1.0  0.18381  0.78338  0.70247  1.0000
  C   C401      1.0  0.16059  0.78817  0.71735  1.0000
  C   C402      1.0  0.15963  0.80768  0.73631  1.0000
  C   C403      1.0  0.18186  0.82263  0.73996  1.0000
  H   H474      1.0  0.22400  0.79385  0.69506  1.0000
  H   H475      1.0  0.18463  0.76834  0.68775  1.0000
  H   H476      1.0  0.14175  0.81144  0.74791  1.0000
  H   H477      1.0  0.18109  0.83792  0.75440  1.0000
  C   C404      1.0  0.27896  0.69678  0.69875  1.0000
  C   C405      1.0  0.29775  0.69514  0.71781  1.0000
  S   S120      1.0  0.29521  0.73531  0.98611  1.0000
  H   H478      1.0  0.30917  0.71182  0.72224  1.0000
  H   H479      1.0  0.10644  0.81858  0.71243  1.0000
  C   C406      1.0  0.40489  0.88827  0.62761  1.0000
  C   C407      1.0  0.40325  0.87499  0.65170  1.0000
  C   C408      1.0  0.38240  0.85824  0.65785  1.0000
  C   C409      1.0  0.36293  0.85446  0.63987  1.0000
  C   C410      1.0  0.36459  0.86769  0.61574  1.0000
  C   C411      1.0  0.38537  0.88455  0.60963  1.0000
  H   H480      1.0  0.41821  0.87772  0.66577  1.0000
  H   H481      1.0  0.38153  0.84813  0.67641  1.0000
  H   H482      1.0  0.34977  0.86477  0.60158  1.0000
  N   N25       1.0  0.22459  0.77323  0.87547  1.0000
  C   C412      1.0  0.21005  0.75996  0.89728  1.0000
  C   C413      1.0  0.24698  0.75611  0.86690  1.0000
  C   C414      1.0  0.23507  0.79733  0.88619  1.0000
  C   C415      1.0  0.20827  0.77951  0.85289  1.0000
  C   C416      1.0  0.18090  0.77479  0.85295  1.0000
  C   C417      1.0  0.21960  0.79132  0.83006  1.0000
  C   C418      1.0  0.16600  0.78156  0.83151  1.0000
  C   C419      1.0  0.20448  0.79808  0.80875  1.0000
  C   C420      1.0  0.17771  0.79325  0.80954  1.0000
  H   H483      1.0  0.20172  0.74149  0.89075  1.0000
  H   H484      1.0  0.22300  0.75501  0.91365  1.0000
  H   H485      1.0  0.19402  0.77244  0.90617  1.0000
  H   H486      1.0  0.24015  0.73800  0.85798  1.0000
  H   H487      1.0  0.25918  0.75048  0.88365  1.0000
  H   H488      1.0  0.26061  0.76545  0.85242  1.0000
  H   H489      1.0  0.21890  0.81073  0.89308  1.0000
  H   H490      1.0  0.24743  0.79338  0.90329  1.0000
  H   H491      1.0  0.24764  0.80778  0.87158  1.0000
  H   H492      1.0  0.17034  0.76616  0.86942  1.0000
  H   H493      1.0  0.24021  0.79584  0.82868  1.0000
  H   H494      1.0  0.14507  0.77800  0.83214  1.0000
  H   H495      1.0  0.21350  0.80749  0.79169  1.0000
  H   H496      1.0  0.16590  0.79880  0.79322  1.0000
  N   N26       1.0  0.20944  0.72533  0.75819  1.0000
  C   C421      1.0  0.22735  0.73353  0.77863  1.0000
  C   C422      1.0  0.22187  0.73091  0.73207  1.0000
  C   C423      1.0  0.18516  0.74156  0.76104  1.0000
  C   C424      1.0  0.20478  0.69729  0.76065  1.0000
  C   C425      1.0  0.17943  0.68700  0.76579  1.0000
  C   C426      1.0  0.46121  0.83724  0.53498  1.0000
  C   C427      1.0  0.00736  0.90585  0.77990  1.0000
  H   H497      1.0  0.46740  0.87032  0.59151  1.0000
  H   H498      1.0  0.13334  0.85360  0.71506  1.0000
  H   H499      1.0  0.24700  0.72386  0.77649  1.0000
  H   H500      1.0  0.23098  0.75463  0.77760  1.0000
  H   H501      1.0  0.28090  0.67047  0.89958  1.0000
  H   H502      1.0  0.20990  0.72384  0.71595  1.0000
  H   H503      1.0  0.46922  0.81792  0.54043  1.0000
  H   H504      1.0  0.22473  0.75192  0.72896  1.0000
  S   S121      1.0  0.48926  0.92438  0.57383  1.0000
  H   H505      1.0  0.18943  0.76246  0.75889  1.0000
  H   H506      1.0  0.17108  0.73708  0.74567  1.0000
  H   H507      1.0  0.16195  0.69903  0.76797  1.0000
  C   C428      1.0  0.30250  0.67156  0.73048  1.0000
  C   C429      1.0  0.09401  0.87085  0.71063  1.0000
  C   C430      1.0  0.15963  0.79642  0.97245  1.0000
  C   C431      1.0  0.43148  0.83038  0.59999  1.0000
  C   C432      1.0  0.38392  0.73229  0.83534  1.0000
  C   C433      1.0  0.37998  0.70460  0.88365  1.0000
  H   H508      1.0  0.11380  0.71155  0.71058  1.0000
  Fe  Fe63      1.0  0.47607  0.93487  0.53372  1.0000
  H   H509      1.0  0.41559  0.77630  0.87177  1.0000
  H   H510      1.0  0.36034  0.67239  0.99415  1.0000
  H   H511      1.0  0.43100  0.74285  0.89657  1.0000
  H   H512      1.0  0.48307  0.83981  0.58208  1.0000
  C   C434      1.0  0.31087  0.66232  0.63767  1.0000
  H   H513      1.0  0.06415  0.94964  0.83207  1.0000
  H   H514      1.0  0.47722  0.84798  0.52445  1.0000
  H   H515      1.0  0.41253  0.81254  0.63376  1.0000
  H   H516      1.0  0.37358  0.71433  0.83554  1.0000
  H   H517      1.0  0.32685  0.66350  0.67586  1.0000
  S   S122      1.0  0.03885  0.94930  0.78398  1.0000
  H   H518      1.0  0.07453  0.90533  0.83294  1.0000
  H   H519      1.0  0.24168  0.72188  0.72951  1.0000
  C   C435      1.0  0.02943  0.92052  0.85900  1.0000
  H   H520      1.0  0.19012  0.67745  0.69555  1.0000
  H   H521      1.0  0.48872  0.86828  0.56300  1.0000
  N   N27       1.0  0.28370  0.89243  0.65757  1.0000
  C   C436      1.0  0.28146  0.88038  0.63139  1.0000
  C   C437      1.0  0.27822  0.87213  0.67753  1.0000
  C   C438      1.0  0.26316  0.91288  0.66112  1.0000
  C   C439      1.0  0.30987  0.90399  0.65949  1.0000
  C   C440      1.0  0.32685  0.89812  0.68019  1.0000
  C   C441      1.0  0.31890  0.92217  0.64048  1.0000
  C   C442      1.0  0.35137  0.90952  0.68137  1.0000
  C   C443      1.0  0.34362  0.93315  0.64167  1.0000
  C   C444      1.0  0.35984  0.92678  0.66203  1.0000
  H   H522      1.0  0.29798  0.86642  0.62721  1.0000
  H   H523      1.0  0.26295  0.86956  0.63003  1.0000
  H   H524      1.0  0.28167  0.89470  0.61521  1.0000
  H   H525      1.0  0.29301  0.85614  0.67561  1.0000
  H   H526      1.0  0.25871  0.86329  0.67538  1.0000
  H   H527      1.0  0.27799  0.87985  0.69788  1.0000
  H   H528      1.0  0.26460  0.92262  0.68044  1.0000
  H   H529      1.0  0.26482  0.92801  0.64571  1.0000
  H   H530      1.0  0.24312  0.90488  0.66039  1.0000
  H   H531      1.0  0.32201  0.88430  0.69538  1.0000
  H   H532      1.0  0.30704  0.92785  0.62435  1.0000
  H   H533      1.0  0.36433  0.90422  0.69687  1.0000
  H   H534      1.0  0.35050  0.94636  0.62652  1.0000
  H   H535      1.0  0.01540  0.93465  0.86858  1.0000
  C   C445      1.0  0.18631  0.79945  0.96467  1.0000
  S   S123      1.0  0.04542  0.78149  0.97060  1.0000
  H   H536      1.0  0.35917  0.70711  0.87814  1.0000
  C   C446      1.0  0.22609  0.67929  0.75803  1.0000
  C   C447      1.0  0.38866  0.81353  0.57282  1.0000
  C   C448      1.0  0.03575  0.66548  0.72801  1.0000
  C   C449      1.0  0.16976  0.75306  0.98669  1.0000
  H   H537      1.0  0.04680  0.88549  0.90004  1.0000
  S   S124      1.0  0.23837  0.78429  0.95809  1.0000
  C   C450      1.0  0.07429  0.90507  0.85477  1.0000
  H   H538      1.0  0.06814  0.88537  0.86070  1.0000
  H   H539      1.0  0.09477  0.90747  0.86088  1.0000
  S   S125      1.0  0.08193  0.83428  0.97455  1.0000
  C   C451      1.0  0.06454  0.95041  0.85384  1.0000
  C   C452      1.0  0.40035  0.73692  0.97694  1.0000
  H   H540      1.0  0.08479  0.95567  0.85868  1.0000
  C   C453      1.0  0.06591  0.94693  0.93704  1.0000
  H   H541      1.0  0.02717  0.92206  0.83743  1.0000
  C   C454      1.0  0.09976  0.82623  0.69340  1.0000
  C   C455      1.0  0.39730  0.76925  0.80936  1.0000
  C   C456      1.0  0.19633  0.75595  0.97857  1.0000
  S   S126      1.0  0.36960  0.75371  0.97538  1.0000
  H   H542      1.0  0.12430  0.92962  0.74616  1.0000
  H   H543      1.0  0.05889  0.89577  0.71122  1.0000
  H   H544      1.0  0.14565  0.81205  0.96980  1.0000
  H   H545      1.0  0.39012  0.69075  0.86980  1.0000
  H   H546      1.0  0.37945  0.69520  0.90329  1.0000
  H   H547      1.0  0.37635  0.73746  0.79435  1.0000
  N   N28       1.0  0.05668  0.92563  0.86622  1.0000
  H   H548      1.0  0.44613  0.83439  0.52027  1.0000
  H   H549      1.0  0.19262  0.81757  0.95626  1.0000
  C   C457      1.0  0.16928  0.67530  0.69986  1.0000
  H   H550      1.0  0.43084  0.88753  0.56709  1.0000
  C   C458      1.0  0.06449  0.94787  0.90974  1.0000
  H   H551      1.0  0.05090  0.96648  0.85995  1.0000
  H   H552      1.0  0.06857  0.96624  0.90056  1.0000
  H   H553      1.0  0.39747  0.77966  0.79090  1.0000
  C   C459      1.0  0.05801  0.92566  0.89516  1.0000
  S   S127      1.0  0.45778  0.97652  0.59501  1.0000
  C   C460      1.0  0.47343  0.85762  0.57458  1.0000
  C   C461      1.0  0.40815  0.78006  0.83126  1.0000
  H   H554      1.0  0.04974  0.88442  0.94748  1.0000
  H   H555      1.0  0.21027  0.74025  0.98113  1.0000
  C   C462      1.0  0.11580  0.66998  0.71180  1.0000
  C   C463      1.0  0.06076  0.92412  0.95058  1.0000
  C   C464      1.0  0.37905  0.74649  0.90338  1.0000
  C   C465      1.0  0.05880  0.84022  0.71342  1.0000
  C   C466      1.0  0.12048  0.87017  0.71838  1.0000
  H   H556      1.0  0.37631  0.73674  0.92266  1.0000
  C   C467      1.0  0.42042  0.72475  0.89292  1.0000
  C   C468      1.0  0.00376  0.87918  0.77582  1.0000
  H   H557      1.0  0.11729  0.83085  0.68068  1.0000
  N   N29       1.0  0.39349  0.72971  0.88395  1.0000
  H   H558      1.0  0.42031  0.71388  0.91175  1.0000
  H   H559      1.0  0.21908  0.72907  0.79862  1.0000
  S   S128      1.0  0.48836  0.97576  0.53669  1.0000
  H   H560      1.0  0.44685  0.83711  0.61199  1.0000
  H   H561      1.0  0.43239  0.71334  0.87814  1.0000
  C   C469      1.0  0.39480  0.74279  0.85812  1.0000
  H   H562      1.0  0.31767  0.67017  0.74464  1.0000
  C   C470      1.0  0.15302  0.69715  0.70238  1.0000
  N   N30       1.0  0.45076  0.85148  0.55852  1.0000
  N   N31       1.0  0.08185  0.84896  0.69741  1.0000
  H   H563      1.0  0.01799  0.73841  0.86781  1.0000
  H   H564      1.0  0.24948  0.67635  0.67857  1.0000
  C   C471      1.0  0.13119  0.89120  0.73099  1.0000
  H   H565      1.0  0.06472  0.83391  0.73319  1.0000
  H   H566      1.0  0.31131  0.68310  0.63512  1.0000
  H   H567      1.0  0.15134  0.89017  0.73693  1.0000
  H   H568      1.0  0.09000  0.80988  0.68386  1.0000
  C   C472      1.0  0.11606  0.91344  0.73614  1.0000
  H   H569      1.0  0.07822  0.93194  0.73320  1.0000
  C   C473      1.0  0.26411  0.67508  0.69327  1.0000
  C   C474      1.0  0.44568  0.73603  0.99136  1.0000
  H   H570      1.0  0.43231  0.68068  0.95961  1.0000
  C   C475      1.0  0.07305  0.85727  0.67134  1.0000
  H   H571      1.0  0.24594  0.68558  0.75406  1.0000
  H   H572      1.0  0.08967  0.86506  0.65913  1.0000
  H   H573      1.0  0.09509  0.66916  0.71716  1.0000
  H   H574      1.0  0.05744  0.87253  0.67288  1.0000
  H   H575      1.0  0.04905  0.82368  0.70429  1.0000
  C   C476      1.0  0.09017  0.91480  0.72864  1.0000
  H   H576      1.0  0.45361  0.88832  0.53916  1.0000
  H   H577      1.0  0.03408  0.76180  0.88666  1.0000
  H   H578      1.0  0.02109  0.66258  0.68915  1.0000
  C   C477      1.0  0.15122  0.77323  0.98377  1.0000
  C   C478      1.0  0.42105  0.74868  0.98947  1.0000
  S   S129      1.0  0.48976  0.91077  0.49875  1.0000
  Fe  Fe64      1.0  0.08139  0.79417  0.99125  1.0000
  H   H579      1.0  0.00927  0.93126  0.98558  1.0000
  H   H580      1.0  0.02021  0.73403  0.90226  1.0000
  C   C479      1.0  0.01706  0.74883  0.88683  1.0000
  H   H581      1.0  0.00842  0.78703  0.92160  1.0000
  H   H582      1.0  0.16353  0.73504  0.99542  1.0000
  S   S130      1.0  0.11817  0.76864  0.99540  1.0000
  S   S131      1.0  0.27836  0.66255  0.98523  1.0000
  H   H583      1.0  0.11879  0.93714  0.99660  1.0000
  H   H584      1.0  0.73143  0.14560  0.48065  1.0000
  H   H585      1.0  0.59403  0.06549  0.19467  1.0000
  Fe  Fe65      1.0  0.86513  0.00055  0.01740  1.0000
  S   S132      1.0  0.50626  0.21981  0.48117  1.0000
  S   S133      1.0  0.82584  0.02007  0.01305  1.0000
  N   N32       1.0  0.49836  0.11698  0.36800  1.0000
  C   C480      1.0  0.96843  0.09782  0.00143  1.0000
  C   C481      1.0  0.52114  0.08068  0.27810  1.0000
  H   H586      1.0  0.71623  0.17486  0.41592  1.0000
  C   C482      1.0  0.50157  0.12375  0.27051  1.0000
  H   H587      1.0  0.62368  0.19128  0.45645  1.0000
  H   H588      1.0  0.93297  0.30585  0.47435  1.0000
  S   S134      1.0  0.90116  0.02532  0.01715  1.0000
  C   C483      1.0  0.68675  0.16723  0.45953  1.0000
  C   C484      1.0  0.52369  0.10711  0.27167  1.0000
  H   H589      1.0  0.54299  0.11471  0.26739  1.0000
  H   H590      1.0  0.53834  0.06825  0.27877  1.0000
  H   H591      1.0  0.53266  0.06298  0.49560  1.0000
  H   H592      1.0  0.56319  0.99880  0.44472  1.0000
  N   N33       1.0  0.53913  0.01139  0.47831  1.0000
  C   C485      1.0  0.91489  0.07695  0.06489  1.0000
  C   C486      1.0  0.54325  0.00679  0.44977  1.0000
  C   C487      1.0  0.92732  0.09155  0.04515  1.0000
  S   S135      1.0  0.67966  0.01380  0.48013  1.0000
  H   H593      1.0  0.89645  0.31716  0.41358  1.0000
  H   H594      1.0  0.75438  0.16273  0.46056  1.0000
  H   H595      1.0  0.52455  0.12847  0.39790  1.0000
  H   H596      1.0  0.60088  0.32794  0.00804  1.0000
  C   C488      1.0  0.55899  0.02963  0.48700  1.0000
  H   H597      1.0  0.64975  0.11289  0.46699  1.0000
  C   C489      1.0  0.58593  0.02214  0.48687  1.0000
  C   C490      1.0  0.63951  0.17717  0.45826  1.0000
  S   S136      1.0  0.52567  0.18077  0.41690  1.0000
  H   H598      1.0  0.97973  0.07965  0.00502  1.0000
  H   H599      1.0  0.57260  0.03302  0.26963  1.0000
  C   C491      1.0  0.96660  0.09210  0.07014  1.0000
  C   C492      1.0  0.97311  0.02953  0.04643  1.0000
  C   C493      1.0  0.58502  0.03283  0.25183  1.0000
  H   H600      1.0  0.50722  0.03836  0.47154  1.0000
  C   C494      1.0  0.92806  0.01945  0.03696  1.0000
  H   H601      1.0  0.64424  0.23133  0.48643  1.0000
  C   C495      1.0  0.95127  0.13789  0.01985  1.0000
  C   C496      1.0  0.73404  0.15527  0.46131  1.0000
  H   H602      1.0  0.66900  0.20548  0.45458  1.0000
  C   C497      1.0  0.60482  0.01398  0.24843  1.0000
  C   C498      1.0  0.97180  0.01355  0.06849  1.0000
  C   C499      1.0  0.50232  0.19599  0.39763  1.0000
  H   H603      1.0  0.96467  0.07084  0.10652  1.0000
  C   C500      1.0  0.52421  0.12563  0.37633  1.0000
  H   H604      1.0  0.50229  0.08434  0.21856  1.0000
  C   C501      1.0  0.74886  0.00189  0.37659  1.0000
  C   C502      1.0  0.49956  0.11565  0.33893  1.0000
  H   H605      1.0  0.99082  0.03990  0.04156  1.0000
  H   H606      1.0  0.96125  0.14989  0.00446  1.0000
  S   S137      1.0  0.50600  0.15655  0.26042  1.0000
  C   C503      1.0  0.63380  0.15120  0.46165  1.0000
  H   H607      1.0  0.93159  0.13370  0.01260  1.0000
  C   C504      1.0  0.68023  0.14088  0.46299  1.0000
  C   C505      1.0  0.71974  0.18849  0.43219  1.0000
  S   S138      1.0  0.53582  0.00657  0.34120  1.0000
  H   H608      1.0  0.91638  0.09572  0.02794  1.0000
  C   C506      1.0  0.51168  0.02085  0.48323  1.0000
  H   H609      1.0  0.54088  0.02499  0.43842  1.0000
  C   C507      1.0  0.95364  0.09951  0.04708  1.0000
  C   C508      1.0  0.65412  0.13313  0.46413  1.0000
  H   H610      1.0  0.88736  0.29541  0.46971  1.0000
  H   H611      1.0  0.73326  0.14046  0.44562  1.0000
  Fe  Fe66      1.0  0.51611  0.00199  0.30321  1.0000
  H   H612      1.0  0.59256  0.00305  0.48077  1.0000
  N   N34       1.0  0.71413  0.17624  0.45806  1.0000
  C   C509      1.0  0.92676  0.00309  0.05877  1.0000
  H   H613      1.0  0.67018  0.01369  0.24357  1.0000
  H   H614      1.0  0.56572  0.06586  0.23521  1.0000
  H   H615      1.0  0.86548  0.31754  0.45417  1.0000
  H   H616      1.0  0.52690  0.19363  0.36234  1.0000
  H   H617      1.0  0.54001  0.11132  0.37075  1.0000
  H   H618      1.0  0.75294  0.02103  0.36920  1.0000
  H   H619      1.0  0.95215  0.04525  0.01419  1.0000
  H   H620      1.0  0.74045  0.19479  0.43005  1.0000
  C   C510      1.0  0.66555  0.18512  0.45719  1.0000
  H   H621      1.0  0.91436  0.29318  0.43159  1.0000
  N   N35       1.0  0.96668  0.11407  0.02536  1.0000
  C   C511      1.0  0.95127  0.03250  0.03087  1.0000
  H   H622      1.0  0.70730  0.20601  0.42921  1.0000
  H   H623      1.0  0.62537  0.03276  0.49487  1.0000
  S   S139      1.0  0.54013  0.16569  0.48904  1.0000
  C   C512      1.0  0.71773  0.19560  0.47890  1.0000
  H   H624      1.0  0.60698  0.00014  0.26416  1.0000
  H   H625      1.0  0.62858  0.03310  0.18785  1.0000
  H   H626      1.0  0.87865  0.32493  0.48561  1.0000
  C   C513      1.0  0.94858  0.00031  0.07464  1.0000
  C   C514      1.0  0.92861  0.32639  0.46951  1.0000
  H   H627      1.0  0.61361  0.14511  0.46225  1.0000
  C   C515      1.0  0.88331  0.31631  0.46597  1.0000
  H   H628      1.0  0.70594  0.21359  0.47612  1.0000
  H   H629      1.0  0.89514  0.07022  0.06248  1.0000
  H   H630      1.0  0.91894  0.05747  0.10176  1.0000
  H   H631      1.0  0.51657  0.31644  0.26283  1.0000
  H   H632      1.0  0.94835  0.14990  0.03786  1.0000
  H   H633      1.0  0.74246  0.01472  0.41681  1.0000
  C   C516      1.0  0.58113  0.05129  0.23247  1.0000
  C   C517      1.0  0.61696  0.03217  0.20597  1.0000
  C   C518      1.0  0.92830  0.06965  0.08700  1.0000
  H   H634      1.0  0.69490  0.12579  0.46510  1.0000
  H   H635      1.0  0.66841  0.01260  0.19529  1.0000
  C   C519      1.0  0.60503  0.03913  0.49466  1.0000
  C   C520      1.0  0.50792  0.19944  0.37084  1.0000
  H   H636      1.0  0.51546  0.10227  0.33142  1.0000
  C   C521      1.0  0.99373  0.12193  0.03091  1.0000
  C   C522      1.0  0.91220  0.31430  0.42780  1.0000
  H   H637      1.0  0.98665  0.09692  0.07339  1.0000
  H   H638      1.0  0.73847  0.20164  0.47958  1.0000
  Fe  Fe67      1.0  0.51356  0.18256  0.45945  1.0000
  C   C523      1.0  0.62139  0.01298  0.22534  1.0000
  C   C524      1.0  0.59708  0.05099  0.20963  1.0000
  C   C525      1.0  0.95405  0.07725  0.08964  1.0000
  H   H639      1.0  0.52953  0.14450  0.36730  1.0000
  H   H640      1.0  0.59675  0.22191  0.49185  1.0000
  H   H641      1.0  0.99406  0.13439  0.04861  1.0000
  C   C526      1.0  0.74294  0.99837  0.40365  1.0000
  H   H642      1.0  0.93105  0.32007  0.41803  1.0000
  C   C527      1.0  0.55253  0.05538  0.49487  1.0000
  S   S140      1.0  0.99602  0.29455  0.46882  1.0000
  H   H643      1.0  0.50376  0.13477  0.32977  1.0000
  H   H644      1.0  0.65340  0.99763  0.42315  1.0000
  Fe  Fe68      1.0  0.72237  0.30111  0.77734  1.0000
  S   S141      1.0  0.69196  0.28539  0.80629  1.0000
  C   C528      1.0  0.57187  0.07232  0.50227  1.0000
  Fe  Fe69      1.0  0.76548  0.29812  0.81640  1.0000
  S   S142      1.0  0.73882  0.28155  0.84766  1.0000
  C   C529      1.0  0.62214  0.06611  0.56795  1.0000
  Fe  Fe70      1.0  0.72400  0.25678  0.81579  1.0000
  S   S143      1.0  0.71781  0.21384  0.82138  1.0000
  H   H645      1.0  0.59217  0.17094  0.52248  1.0000
  S   S144      1.0  0.75302  0.27104  0.78551  1.0000
  Fe  Fe71      1.0  0.78353  0.09039  0.76042  1.0000
  S   S145      1.0  0.74496  0.07093  0.76722  1.0000
  S   S146      1.0  0.79056  0.13323  0.75753  1.0000
  Fe  Fe72      1.0  0.81249  0.03934  0.75185  1.0000
  H   H646      1.0  0.69950  0.30754  0.68079  1.0000
  S   S147      1.0  0.85137  0.01947  0.74337  1.0000
  Fe  Fe73      1.0  0.75732  0.04678  0.73156  1.0000
  S   S148      1.0  0.56178  0.21759  0.53910  1.0000
  Fe  Fe74      1.0  0.76787  0.04243  0.79176  1.0000
  H   H647      1.0  0.68327  0.13776  0.52430  1.0000
  S   S149      1.0  0.79489  0.06770  0.72408  1.0000
  S   S150      1.0  0.80528  0.06420  0.78733  1.0000
  C   C530      1.0  0.89434  0.00511  0.91299  1.0000
  H   H648      1.0  0.59429  0.13793  0.51206  1.0000
  H   H649      1.0  0.90206  0.26593  0.60030  1.0000
  C   C531      1.0  0.60241  0.16072  0.57352  1.0000
  S   S151      1.0  0.92324  0.00301  0.83971  1.0000
  H   H650      1.0  0.85800  0.31315  0.54180  1.0000
  H   H651      1.0  0.62393  0.16327  0.57072  1.0000
  C   C532      1.0  0.73854  0.01262  0.61269  1.0000
  H   H652      1.0  0.94045  0.06015  0.76521  1.0000
  C   C533      1.0  0.89219  0.29088  0.52811  1.0000
  Fe  Fe75      1.0  0.92584  0.27101  0.73134  1.0000
  S   S152      1.0  0.95222  0.27430  0.76518  1.0000
  H   H653      1.0  0.64316  0.12591  0.55280  1.0000
  Fe  Fe76      1.0  0.96958  0.25229  0.69480  1.0000
  C   C534      1.0  0.77444  0.02188  0.86028  1.0000
  H   H654      1.0  0.98025  0.28872  0.57127  1.0000
  Fe  Fe77      1.0  0.96901  0.23523  0.75174  1.0000
  S   S153      1.0  0.68489  0.08519  0.50568  1.0000
  S   S154      1.0  0.94019  0.23144  0.72010  1.0000
  Fe  Fe78      1.0  0.74772  0.23426  0.60137  1.0000
  S   S155      1.0  0.74198  0.26701  0.57289  1.0000
  S   S156      1.0  0.74888  0.23168  0.64568  1.0000
  Fe  Fe79      1.0  0.76168  0.19642  0.55756  1.0000
  S   S157      1.0  0.75800  0.22624  0.52619  1.0000
  S   S158      1.0  0.77338  0.15540  0.54841  1.0000
  Fe  Fe80      1.0  0.77989  0.25214  0.55271  1.0000
  S   S159      1.0  0.81351  0.27987  0.54185  1.0000
  Fe  Fe81      1.0  0.72050  0.23776  0.54886  1.0000
  S   S160      1.0  0.68491  0.23991  0.52245  1.0000
  S   S161      1.0  0.78615  0.22101  0.58239  1.0000
  S   S162      1.0  0.72382  0.20638  0.57903  1.0000
  Fe  Fe82      1.0  0.69535  0.04277  0.50776  1.0000
  S   S163      1.0  0.73561  0.02402  0.50778  1.0000
  H   H655      1.0  0.89234  0.23307  0.60698  1.0000
  C   C535      1.0  0.73332  0.03151  0.66519  1.0000
  Fe  Fe83      1.0  0.97175  0.28670  0.50598  1.0000
  C   C536      1.0  0.74834  0.13640  0.53682  1.0000
  C   C537      1.0  0.75434  0.11101  0.52924  1.0000
  C   C538      1.0  0.73481  0.09526  0.52001  1.0000
  C   C539      1.0  0.70915  0.10472  0.51823  1.0000
  C   C540      1.0  0.70303  0.13017  0.52589  1.0000
  C   C541      1.0  0.72260  0.14597  0.53533  1.0000
  S   S164      1.0  0.97171  0.20142  0.78116  1.0000
  H   H656      1.0  0.91573  0.23092  0.65955  1.0000
  H   H657      1.0  0.59332  0.18036  0.57229  1.0000
  H   H658      1.0  0.71782  0.16558  0.54115  1.0000
  C   C542      1.0  0.90178  0.26687  0.51901  1.0000
  H   H659      1.0  0.90387  0.99702  0.89475  1.0000
  H   H660      1.0  0.89132  0.22758  0.51140  1.0000
  C   C543      1.0  0.84765  0.27382  0.53433  1.0000
  C   C544      1.0  0.85746  0.24962  0.52614  1.0000
  H   H661      1.0  0.57264  0.32438  0.98871  1.0000
  H   H662      1.0  0.62159  0.00446  0.55703  1.0000
  Fe  Fe84      1.0  0.53062  0.20139  0.51245  1.0000
  C   C545      1.0  0.94440  0.02607  0.95450  1.0000
  N   N36       1.0  0.90753  0.02841  0.92226  1.0000
  C   C546      1.0  0.59807  0.06422  0.50218  1.0000
  S   S165      1.0  0.97248  0.32781  0.51989  1.0000
  C   C547      1.0  0.90810  0.04784  0.90091  1.0000
  C   C548      1.0  0.90362  0.28145  0.64941  1.0000
  S   S166      1.0  0.77596  0.01632  0.75683  1.0000
  H   H663      1.0  0.89747  0.08867  0.80117  1.0000
  H   H664      1.0  0.90534  0.30690  0.52900  1.0000
  C   C549      1.0  0.95254  0.01024  0.91023  1.0000
  H   H665      1.0  0.94722  0.08707  0.74453  1.0000
  S   S167      1.0  0.74218  0.99815  0.58091  1.0000
  C   C550      1.0  0.87291  0.28706  0.77913  1.0000
  H   H666      1.0  0.83467  0.03348  0.88380  1.0000
  H   H667      1.0  0.88303  0.21980  0.65506  1.0000
  S   S168      1.0  0.50934  0.11021  0.52564  1.0000
  H   H668      1.0  0.90034  0.29798  0.63592  1.0000
  H   H669      1.0  0.91871  0.06533  0.90672  1.0000
  H   H670      1.0  0.81171  0.27274  0.59692  1.0000
  C   C551      1.0  0.98896  0.15702  0.75336  1.0000
  H   H671      1.0  0.66014  0.08244  0.56067  1.0000
  C   C552      1.0  0.80039  0.03002  0.86079  1.0000
  C   C553      1.0  0.90228  0.00506  0.81343  1.0000
  C   C554      1.0  0.71516  0.02478  0.62182  1.0000
  H   H672      1.0  0.80947  0.03876  0.84353  1.0000
  C   C555      1.0  0.86999  0.01260  0.77076  1.0000
  C   C556      1.0  0.86039  0.01814  0.79628  1.0000
  C   C557      1.0  0.87646  0.01422  0.81763  1.0000
  H   H673      1.0  0.88794  0.05388  0.89559  1.0000
  S   S169      1.0  0.71195  0.31011  0.73535  1.0000
  H   H674      1.0  0.94683  0.00671  0.89042  1.0000
  H   H675      1.0  0.84071  0.02557  0.79964  1.0000
  N   N37       1.0  0.59190  0.14304  0.55390  1.0000
  C   C558      1.0  0.81927  0.27465  0.66247  1.0000
  C   C559      1.0  0.85609  0.29270  0.80093  1.0000
  C   C560      1.0  0.59609  0.22346  0.53395  1.0000
  C   C561      1.0  0.61154  0.22728  0.55582  1.0000
  C   C562      1.0  0.63881  0.23139  0.55282  1.0000
  C   C563      1.0  0.65093  0.23281  0.52776  1.0000
  S   S170      1.0  0.75563  0.02451  0.83152  1.0000
  H   H676      1.0  0.94889  0.09238  0.99472  1.0000
  H   H677      1.0  0.60233  0.22722  0.57530  1.0000
  H   H678      1.0  0.65027  0.23440  0.56985  1.0000
  S   S171      1.0  0.93491  0.26180  0.50693  1.0000
  H   H679      1.0  0.61305  0.07730  0.50807  1.0000
  C   C564      1.0  0.72530  0.29108  0.70902  1.0000
  C   C565      1.0  0.74519  0.27272  0.71288  1.0000
  C   C566      1.0  0.75298  0.25538  0.69281  1.0000
  C   C567      1.0  0.74165  0.25677  0.66829  1.0000
  C   C568      1.0  0.72296  0.27618  0.66370  1.0000
  C   C569      1.0  0.71471  0.29320  0.68410  1.0000
  H   H680      1.0  0.75418  0.27140  0.73152  1.0000
  H   H681      1.0  0.76755  0.24050  0.69648  1.0000
  H   H682      1.0  0.71402  0.27736  0.64488  1.0000
  H   H683      1.0  0.55484  0.13999  0.57570  1.0000
  C   C570      1.0  0.82924  0.29721  0.79769  1.0000
  C   C571      1.0  0.81940  0.29686  0.77259  1.0000
  C   C572      1.0  0.98385  0.26631  0.63345  1.0000
  C   C573      1.0  0.86293  0.28660  0.75406  1.0000
  S   S172      1.0  0.98137  0.00932  0.78478  1.0000
  H   H684      1.0  0.88933  0.02533  0.96107  1.0000
  C   C574      1.0  0.73743  0.19132  0.80295  1.0000
  C   C575      1.0  0.75369  0.19914  0.78180  1.0000
  C   C576      1.0  0.76941  0.18103  0.76769  1.0000
  C   C577      1.0  0.76896  0.15485  0.77450  1.0000
  C   C578      1.0  0.75241  0.14681  0.79533  1.0000
  C   C579      1.0  0.73668  0.16503  0.80951  1.0000
  H   H685      1.0  0.75428  0.21910  0.77622  1.0000
  H   H686      1.0  0.78209  0.18736  0.75153  1.0000
  H   H687      1.0  0.75202  0.12663  0.80079  1.0000
  H   H688      1.0  0.72407  0.15875  0.82577  1.0000
  H   H689      1.0  0.58193  0.05494  0.57315  1.0000
  H   H690      1.0  0.69884  0.02642  0.60907  1.0000
  H   H691      1.0  0.50763  0.02518  0.50439  1.0000
  C   C580      1.0  0.71253  0.03388  0.64795  1.0000
  H   H692      1.0  0.80789  0.27814  0.68059  1.0000
  H   H693      1.0  0.86909  0.01893  0.83728  1.0000
  H   H694      1.0  0.87060  0.04360  0.93877  1.0000
  C   C581      1.0  0.56285  0.14552  0.55592  1.0000
  H   H695      1.0  0.91805  0.04029  0.88259  1.0000
  C   C582      1.0  0.87321  0.12104  0.75351  1.0000
  C   C583      1.0  0.60060  0.15160  0.52723  1.0000
  H   H696      1.0  0.76847  0.99865  0.92334  1.0000
  H   H697      1.0  0.61535  0.31998  0.89198  1.0000
  H   H698      1.0  0.92330  0.24434  0.61685  1.0000
  H   H699      1.0  0.84541  0.15216  0.74777  1.0000
  C   C584      1.0  0.63911  0.08617  0.56199  1.0000
  C   C585      1.0  0.90230  0.25006  0.61503  1.0000
  C   C586      1.0  0.58496  0.09545  0.56428  1.0000
  C   C587      1.0  0.98548  0.12490  0.79773  1.0000
  C   C588      1.0  0.84619  0.26922  0.66295  1.0000
  H   H700      1.0  0.87711  0.07078  0.73545  1.0000
  Fe  Fe85      1.0  0.70935  0.31198  0.83579  1.0000
  H   H701      1.0  0.91466  0.31958  0.75012  1.0000
  S   S173      1.0  0.67944  0.02321  0.54410  1.0000
  H   H702      1.0  0.59834  0.15358  0.59383  1.0000
  N   N38       1.0  0.68371  0.22299  0.73534  1.0000
  C   C589      1.0  0.65814  0.22632  0.75001  1.0000
  C   C590      1.0  0.70408  0.23581  0.75015  1.0000
  C   C591      1.0  0.68164  0.23668  0.70990  1.0000
  C   C592      1.0  0.69065  0.19521  0.73255  1.0000
  C   C593      1.0  0.69675  0.18332  0.70785  1.0000
  C   C594      1.0  0.69233  0.17932  0.75512  1.0000
  C   C595      1.0  0.70362  0.15709  0.70609  1.0000
  C   C596      1.0  0.69933  0.15316  0.75311  1.0000
  C   C597      1.0  0.70495  0.14205  0.72866  1.0000
  H   H703      1.0  0.65881  0.21920  0.77054  1.0000
  H   H704      1.0  0.65205  0.24707  0.75150  1.0000
  H   H705      1.0  0.64245  0.21581  0.74025  1.0000
  H   H706      1.0  0.70449  0.22898  0.77072  1.0000
  H   H707      1.0  0.70078  0.25709  0.75115  1.0000
  H   H708      1.0  0.72390  0.23206  0.74090  1.0000
  H   H709      1.0  0.67656  0.25757  0.71267  1.0000
  H   H710      1.0  0.70062  0.23611  0.69841  1.0000
  H   H711      1.0  0.66631  0.22832  0.69782  1.0000
  H   H712      1.0  0.69675  0.19389  0.68959  1.0000
  H   H713      1.0  0.68878  0.18713  0.77462  1.0000
  H   H714      1.0  0.70840  0.14845  0.68711  1.0000
  H   H715      1.0  0.70083  0.14152  0.77069  1.0000
  H   H716      1.0  0.71066  0.12181  0.72726  1.0000
  N   N39       1.0  0.82545  0.21425  0.81761  1.0000
  C   C598      1.0  0.80496  0.19549  0.82555  1.0000
  C   C599      1.0  0.82457  0.23495  0.83772  1.0000
  C   C600      1.0  0.81831  0.22564  0.79215  1.0000
  C   C601      1.0  0.85222  0.20267  0.81499  1.0000
  C   C602      1.0  0.87403  0.21839  0.80853  1.0000
  C   C603      1.0  0.85750  0.17582  0.81827  1.0000
  C   C604      1.0  0.89953  0.20805  0.80608  1.0000
  C   C605      1.0  0.88313  0.16571  0.81588  1.0000
  C   C606      1.0  0.90409  0.18181  0.80997  1.0000
  H   H717      1.0  0.80889  0.18643  0.84479  1.0000
  H   H718      1.0  0.78517  0.20495  0.82778  1.0000
  H   H719      1.0  0.80330  0.18002  0.81065  1.0000
  H   H720      1.0  0.83053  0.22741  0.85705  1.0000
  H   H721      1.0  0.80454  0.24382  0.84047  1.0000
  H   H722      1.0  0.83756  0.25117  0.83235  1.0000
  H   H723      1.0  0.81889  0.21076  0.77643  1.0000
  H   H724      1.0  0.79825  0.23447  0.79331  1.0000
  H   H725      1.0  0.83167  0.24127  0.78565  1.0000
  H   H726      1.0  0.87152  0.23883  0.80523  1.0000
  H   H727      1.0  0.84220  0.16218  0.82257  1.0000
  H   H728      1.0  0.91595  0.22038  0.80103  1.0000
  H   H729      1.0  0.88679  0.14520  0.81832  1.0000
  H   H730      1.0  0.92393  0.17395  0.80792  1.0000
  N   N40       1.0  0.75923  0.11128  0.61835  1.0000
  C   C607      1.0  0.78384  0.11343  0.60206  1.0000
  C   C608      1.0  0.75364  0.08339  0.62133  1.0000
  C   C609      1.0  0.73738  0.12331  0.60406  1.0000
  C   C610      1.0  0.76205  0.12477  0.64361  1.0000
  C   C611      1.0  0.76650  0.15174  0.64400  1.0000
  C   C612      1.0  0.76075  0.11187  0.66827  1.0000
  C   C613      1.0  0.76961  0.16491  0.66751  1.0000
  C   C614      1.0  0.76397  0.12529  0.69164  1.0000
  C   C615      1.0  0.76846  0.15169  0.69127  1.0000
  H   H731      1.0  0.78877  0.13382  0.59765  1.0000
  H   H732      1.0  0.80076  0.10459  0.61209  1.0000
  H   H733      1.0  0.78240  0.10379  0.58269  1.0000
  H   H734      1.0  0.76979  0.07273  0.63093  1.0000
  H   H735      1.0  0.75145  0.07378  0.60203  1.0000
  H   H736      1.0  0.73506  0.08043  0.63301  1.0000
  H   H737      1.0  0.74160  0.14342  0.59779  1.0000
  H   H738      1.0  0.73360  0.11261  0.58574  1.0000
  H   H739      1.0  0.71891  0.12379  0.61643  1.0000
  H   H740      1.0  0.76776  0.16293  0.62607  1.0000
  H   H741      1.0  0.75736  0.09141  0.67017  1.0000
  H   H742      1.0  0.77298  0.18552  0.66726  1.0000
  H   H743      1.0  0.76302  0.11517  0.71026  1.0000
  H   H744      1.0  0.77095  0.16188  0.70949  1.0000
  H   H745      1.0  0.85771  0.10709  0.75463  1.0000
  C   C616      1.0  0.59514  0.07070  0.56895  1.0000
  C   C617      1.0  0.84834  0.26593  0.61558  1.0000
  C   C618      1.0  0.80690  0.27567  0.63871  1.0000
  H   H746      1.0  0.97259  0.15957  0.81841  1.0000
  Fe  Fe86      1.0  0.50324  0.14935  0.50706  1.0000
  C   C619      1.0  0.86528  0.29436  0.53541  1.0000
  H   H747      1.0  0.98417  0.11280  0.81499  1.0000
  C   C620      1.0  0.98700  0.00796  0.94128  1.0000
  H   H748      1.0  0.90462  0.04977  0.73901  1.0000
  C   C621      1.0  0.62918  0.11099  0.55737  1.0000
  H   H749      1.0  0.77313  0.01799  0.66869  1.0000
  S   S174      1.0  0.80811  0.30202  0.82524  1.0000
  C   C622      1.0  0.88423  0.24627  0.51833  1.0000
  H   H750      1.0  0.50986  0.06344  0.55457  1.0000
  H   H751      1.0  0.55590  0.16568  0.55255  1.0000
  H   H752      1.0  0.87357  0.00940  0.90832  1.0000
  H   H753      1.0  0.89351  0.28306  0.78171  1.0000
  C   C623      1.0  0.60831  0.22431  0.50891  1.0000
  H   H754      1.0  0.94308  0.09118  0.77966  1.0000
  S   S175      1.0  0.88332  0.28049  0.72630  1.0000
  Fe  Fe87      1.0  0.96544  0.00892  0.82655  1.0000
  H   H755      1.0  0.85822  0.26304  0.59663  1.0000
  H   H756      1.0  0.86374  0.29305  0.82037  1.0000
  H   H757      1.0  0.69411  0.04257  0.65497  1.0000
  H   H758      1.0  0.73991  0.07599  0.51363  1.0000
  C   C624      1.0  0.77753  0.00730  0.90601  1.0000
  C   C625      1.0  0.91876  0.13315  0.75412  1.0000
  H   H759      1.0  0.79883  0.30089  0.76989  1.0000
  C   C626      1.0  0.63537  0.22945  0.50589  1.0000
  C   C627      1.0  0.80338  0.01573  0.90659  1.0000
  H   H760      1.0  0.55375  0.13363  0.54087  1.0000
  C   C628      1.0  0.88498  0.16576  0.74768  1.0000
  H   H761      1.0  0.87935  0.18578  0.74468  1.0000
  C   C629      1.0  0.75693  0.02005  0.65579  1.0000
  C   C630      1.0  0.86595  0.14686  0.74952  1.0000
  H   H762      1.0  0.90035  0.05633  0.78898  1.0000
  H   H763      1.0  0.92614  0.17367  0.74884  1.0000
  C   C631      1.0  0.97026  0.01946  0.96024  1.0000
  Fe  Fe88      1.0  0.98064  0.29268  0.73563  1.0000
  C   C632      1.0  0.81469  0.02698  0.88375  1.0000
  C   C633      1.0  0.89988  0.11335  0.75585  1.0000
  H   H764      1.0  0.84428  0.23361  0.52510  1.0000
  N   N41       1.0  0.88998  0.25822  0.64068  1.0000
  H   H765      1.0  0.87194  0.07524  0.78236  1.0000
  H   H766      1.0  0.90767  0.07782  0.71845  1.0000
  C   C634      1.0  0.93561  0.08101  0.76238  1.0000
  H   H767      1.0  0.65485  0.29655  0.90606  1.0000
  S   S176      1.0  0.97315  0.24042  0.65279  1.0000
  C   C635      1.0  0.82144  0.27157  0.61536  1.0000
  C   C636      1.0  0.60180  0.11646  0.55852  1.0000
  C   C637      1.0  0.89876  0.07048  0.73722  1.0000
  C   C638      1.0  0.83624  0.29164  0.75080  1.0000
  C   C639      1.0  0.89354  0.07621  0.78410  1.0000
  S   S177      1.0  0.82265  0.01266  0.93496  1.0000
  H   H768      1.0  0.85489  0.26911  0.68183  1.0000
  C   C640      1.0  0.89107  0.03924  0.94448  1.0000
  H   H769      1.0  0.62993  0.04696  0.57166  1.0000
  N   N42       1.0  0.90704  0.08583  0.75982  1.0000
  S   S178      1.0  0.72847  0.04253  0.69826  1.0000
  H   H770      1.0  0.89666  0.28765  0.66942  1.0000
  H   H771      1.0  0.89897  0.05755  0.95186  1.0000
  S   S179      1.0  0.95276  0.29162  0.70312  1.0000
  H   H772      1.0  0.82851  0.29153  0.73138  1.0000
  H   H773      1.0  0.92519  0.27787  0.65010  1.0000
  H   H774      1.0  0.96603  0.25224  0.59889  1.0000
  H   H775      1.0  0.78599  0.27974  0.63833  1.0000
  C   C641      1.0  0.89464  0.23702  0.65967  1.0000
  C   C642      1.0  0.86152  0.26418  0.63956  1.0000
  H   H776      1.0  0.56383  0.09749  0.56514  1.0000
  H   H777      1.0  0.93946  0.12931  0.75588  1.0000
  H   H778      1.0  0.77423  0.10355  0.53022  1.0000
  C   C643      1.0  0.91132  0.15890  0.74998  1.0000
  Fe  Fe89      1.0  0.71891  0.00343  0.54362  1.0000
  C   C644      1.0  0.93470  0.02155  0.92922  1.0000
  C   C645      1.0  0.98618  0.28761  0.59124  1.0000
  C   C646      1.0  0.76320  0.01040  0.88304  1.0000
  H   H779      1.0  0.56631  0.09180  0.50825  1.0000
  H   H780      1.0  0.74317  0.00399  0.88297  1.0000
  H   H781      1.0  0.88958  0.24277  0.68027  1.0000
  C   C647      1.0  0.97885  0.15152  0.79959  1.0000
  C   C648      1.0  0.97757  0.26725  0.60711  1.0000
  C   C649      1.0  0.91144  0.99848  0.78809  1.0000
  C   C650      1.0  0.97822  0.00348  0.91629  1.0000
  H   H782      1.0  0.62224  0.15341  0.52494  1.0000
  C   C651      1.0  0.89534  0.00222  0.76681  1.0000
  C   C652      1.0  0.64279  0.30753  0.92027  1.0000
  H   H783      1.0  0.97891  0.10769  0.98476  1.0000
  S   S180      1.0  0.98470  0.04535  0.83879  1.0000
  H   H784      1.0  0.97755  0.02352  0.97941  1.0000
  C   C653      1.0  0.99573  0.13042  0.75153  1.0000
  C   C654      1.0  0.99415  0.11411  0.77367  1.0000
  C   C655      1.0  0.98057  0.16787  0.77748  1.0000
  H   H785      1.0  0.77755  0.00108  0.62310  1.0000
  H   H786      1.0  0.66743  0.29871  0.95218  1.0000
  C   C656      1.0  0.62050  0.32080  0.91236  1.0000
  C   C657      1.0  0.75939  0.01049  0.62984  1.0000
  H   H787      1.0  0.58332  0.00958  0.58878  1.0000
  H   H788      1.0  0.90272  0.99743  0.74719  1.0000
  H   H789      1.0  0.93244  0.03474  0.97017  1.0000
  C   C658      1.0  0.64997  0.30901  0.94622  1.0000
  H   H790      1.0  0.99045  0.16915  0.73613  1.0000
  C   C659      1.0  0.63507  0.32406  0.96430  1.0000
  H   H791      1.0  0.71181  0.18791  0.49860  1.0000
  H   H792      1.0  0.64142  0.32450  0.98421  1.0000
  H   H793      1.0  0.95516  0.37558  0.49212  1.0000
  S   S181      1.0  0.97625  0.56478  0.44096  1.0000
  Fe  Fe90      1.0  0.94258  0.50031  0.46036  1.0000
  N   N43       1.0  0.90346  0.61831  0.48023  1.0000
  C   C660      1.0  0.88807  0.60121  0.28687  1.0000
  Fe  Fe91      1.0  0.93753  0.55005  0.42771  1.0000
  S   S182      1.0  0.90682  0.56666  0.40022  1.0000
  H   H794      1.0  0.68889  0.58040  0.28804  1.0000
  S   S183      1.0  0.95388  0.51002  0.41868  1.0000
  C   C661      1.0  0.69255  0.61627  0.30829  1.0000
  H   H795      1.0  0.52118  0.58089  0.02299  1.0000
  H   H796      1.0  0.61867  0.64705  0.26052  1.0000
  C   C662      1.0  0.65163  0.60074  0.29250  1.0000
  S   S184      1.0  0.55391  0.41514  0.02673  1.0000
  C   C663      1.0  0.51069  0.32988  0.24784  1.0000
  H   H797      1.0  0.52662  0.60454  0.11148  1.0000
  H   H798      1.0  0.54600  0.56456  0.00249  1.0000
  Fe  Fe92      1.0  0.52100  0.50281  0.20450  1.0000
  C   C664      1.0  0.59527  0.63453  0.32233  1.0000
  S   S185      1.0  0.54964  0.53652  0.20735  1.0000
  H   H799      1.0  0.87411  0.58783  0.27947  1.0000
  C   C665      1.0  0.87863  0.37053  0.45612  1.0000
  H   H800      1.0  0.93513  0.62356  0.45170  1.0000
  S   S186      1.0  0.53460  0.46774  0.18074  1.0000
  H   H801      1.0  0.89246  0.43082  0.43352  1.0000
  H   H802      1.0  0.50225  0.60867  0.25374  1.0000
  S   S187      1.0  0.53652  0.65200  0.25249  1.0000
  S   S188      1.0  0.52272  0.40618  0.23073  1.0000
  C   C666      1.0  0.54512  0.56882  0.21927  1.0000
  C   C667      1.0  0.56544  0.58659  0.21504  1.0000
  C   C668      1.0  0.56291  0.61227  0.22430  1.0000
  C   C669      1.0  0.54015  0.62046  0.23845  1.0000
  C   C670      1.0  0.51991  0.60268  0.24274  1.0000
  C   C671      1.0  0.52222  0.57716  0.23303  1.0000
  H   H803      1.0  0.58331  0.58041  0.20452  1.0000
  H   H804      1.0  0.57872  0.62559  0.22083  1.0000
  H   H805      1.0  0.59786  0.61883  0.33694  1.0000
  C   C672      1.0  0.53808  0.43365  0.05201  1.0000
  C   C673      1.0  0.53933  0.42581  0.07828  1.0000
  C   C674      1.0  0.52600  0.44008  0.09839  1.0000
  H   H806      1.0  0.50643  0.56383  0.23661  1.0000
  C   C675      1.0  0.63788  0.62331  0.30177  1.0000
  C   C676      1.0  0.52322  0.45567  0.04600  1.0000
  Fe  Fe93      1.0  0.99127  0.52388  0.43514  1.0000
  S   S189      1.0  0.50005  0.47812  0.23498  1.0000
  Fe  Fe94      1.0  0.51022  0.44341  0.20928  1.0000
  H   H807      1.0  0.49833  0.48673  0.06108  1.0000
  S   S190      1.0  0.98105  0.51082  0.47605  1.0000
  H   H808      1.0  0.94687  0.33430  0.46025  1.0000
  H   H809      1.0  0.63046  0.36372  0.00030  1.0000
  H   H810      1.0  0.93199  0.40753  0.41592  1.0000
  S   S191      1.0  0.75278  0.65612  0.27714  1.0000
  H   H811      1.0  0.85836  0.40745  0.45916  1.0000
  H   H812      1.0  0.57414  0.35062  0.01170  1.0000
  C   C677      1.0  0.97857  0.39395  0.46167  1.0000
  C   C678      1.0  0.98243  0.41658  0.44714  1.0000
  H   H813      1.0  0.60480  0.38737  0.00148  1.0000
  C   C679      1.0  0.95815  0.39291  0.48075  1.0000
  C   C680      1.0  0.51241  0.37343  0.22852  1.0000
  H   H814      1.0  0.71359  0.61409  0.31006  1.0000
  C   C681      1.0  0.89459  0.41018  0.43662  1.0000
  C   C682      1.0  0.89668  0.59667  0.38638  1.0000
  C   C683      1.0  0.87439  0.59734  0.37101  1.0000
  C   C684      1.0  0.86523  0.62062  0.35986  1.0000
  C   C685      1.0  0.87824  0.64365  0.36403  1.0000
  C   C686      1.0  0.90060  0.64297  0.37932  1.0000
  C   C687      1.0  0.90985  0.61966  0.39035  1.0000
  H   H815      1.0  0.86404  0.57970  0.36776  1.0000
  H   H816      1.0  0.84806  0.62075  0.34814  1.0000
  H   H817      1.0  0.92708  0.61952  0.40191  1.0000
  H   H818      1.0  0.57384  0.63729  0.31953  1.0000
  C   C688      1.0  0.94535  0.43711  0.47048  1.0000
  C   C689      1.0  0.96611  0.43828  0.45183  1.0000
  H   H819      1.0  0.93012  0.60667  0.33609  1.0000
  C   C690      1.0  0.90131  0.35655  0.44650  1.0000
  H   H820      1.0  0.60171  0.65281  0.33116  1.0000
  C   C691      1.0  0.92040  0.37069  0.43175  1.0000
  C   C692      1.0  0.50996  0.46987  0.06599  1.0000
  S   S192      1.0  0.52781  0.65209  0.01432  1.0000
  H   H821      1.0  0.57524  0.61062  0.28260  1.0000
  C   C693      1.0  0.51117  0.46207  0.09220  1.0000
  H   H822      1.0  0.51922  0.55439  0.16149  1.0000
  H   H823      1.0  0.84244  0.62172  0.41461  1.0000
  H   H824      1.0  0.59766  0.58865  0.29751  1.0000
  N   N44       1.0  0.53896  0.56687  0.12546  1.0000
  C   C694      1.0  0.90245  0.59435  0.30848  1.0000
  C   C695      1.0  0.56050  0.57810  0.14008  1.0000
  C   C696      1.0  0.50265  0.53892  0.99899  1.0000
  H   H825      1.0  0.53228  0.36162  0.26315  1.0000
  Fe  Fe95      1.0  0.96328  0.55036  0.48113  1.0000
  H   H826      1.0  0.55094  0.65283  0.14511  1.0000
  C   C697      1.0  0.87550  0.39697  0.45123  1.0000
  C   C698      1.0  0.88459  0.63255  0.46400  1.0000
  C   C699      1.0  0.92513  0.60789  0.46291  1.0000
  C   C700      1.0  0.54934  0.55721  0.09965  1.0000
  C   C701      1.0  0.54836  0.53082  0.09211  1.0000
  C   C702      1.0  0.56121  0.57442  0.08122  1.0000
  C   C703      1.0  0.55901  0.52234  0.06782  1.0000
  C   C704      1.0  0.57180  0.56571  0.05701  1.0000
  C   C705      1.0  0.57084  0.53970  0.05037  1.0000
  C   C706      1.0  0.52692  0.54651  0.14229  1.0000
  C   C707      1.0  0.85297  0.63231  0.42900  1.0000
  H   H827      1.0  0.53970  0.51620  0.10468  1.0000
  H   H828      1.0  0.56263  0.59479  0.08552  1.0000
  H   H829      1.0  0.55843  0.50204  0.06269  1.0000
  H   H830      1.0  0.58111  0.57921  0.04347  1.0000
  H   H831      1.0  0.57950  0.53290  0.03178  1.0000
  H   H832      1.0  0.57653  0.56358  0.14286  1.0000
  H   H833      1.0  0.64620  0.66056  0.11522  1.0000
  H   H834      1.0  0.91806  0.59409  0.44826  1.0000
  H   H835      1.0  0.60487  0.60188  0.26514  1.0000
  C   C708      1.0  0.59649  0.60630  0.28516  1.0000
  H   H836      1.0  0.92459  0.33686  0.48832  1.0000
  H   H837      1.0  0.64214  0.58555  0.28228  1.0000
  S   S193      1.0  0.92443  0.46391  0.47593  1.0000
  H   H838      1.0  0.94014  0.59747  0.47434  1.0000
  H   H839      1.0  0.86317  0.36164  0.46779  1.0000
  H   H840      1.0  0.55062  0.40871  0.08312  1.0000
  C   C709      1.0  0.89115  0.62542  0.27509  1.0000
  H   H841      1.0  0.88367  0.58164  0.48039  1.0000
  H   H842      1.0  0.56910  0.59517  0.13000  1.0000
  H   H843      1.0  0.52690  0.43385  0.11859  1.0000
  C   C710      1.0  0.85051  0.65906  0.43001  1.0000
  C   C711      1.0  0.86992  0.61920  0.44547  1.0000
  C   C712      1.0  0.60744  0.65068  0.27936  1.0000
  C   C713      1.0  0.65274  0.64202  0.31456  1.0000
  H   H844      1.0  0.55352  0.58474  0.15998  1.0000
  N   N45       1.0  0.60977  0.62833  0.29723  1.0000
  C   C714      1.0  0.67957  0.63833  0.31798  1.0000
  H   H845      1.0  0.60373  0.60211  0.00112  1.0000
  H   H846      1.0  0.87900  0.62962  0.25875  1.0000
  H   H847      1.0  0.93866  0.36173  0.42468  1.0000
  C   C715      1.0  0.51971  0.35554  0.24788  1.0000
  H   H848      1.0  0.89968  0.57579  0.31792  1.0000
  C   C716      1.0  0.90892  0.64355  0.28478  1.0000
  H   H849      1.0  0.87217  0.59857  0.44274  1.0000
  H   H850      1.0  0.51014  0.53742  0.13285  1.0000
  H   H851      1.0  0.96928  0.45575  0.44061  1.0000
  C   C717      1.0  0.91688  0.39701  0.42672  1.0000
  C   C718      1.0  0.52794  0.57698  0.00235  1.0000
  S   S194      1.0  0.92357  0.53884  0.46858  1.0000
  H   H852      1.0  0.50979  0.59428  0.14072  1.0000
  C   C719      1.0  0.92266  0.63616  0.30731  1.0000
  C   C720      1.0  0.51861  0.58722  0.12164  1.0000
  C   C721      1.0  0.94125  0.41437  0.48482  1.0000
  H   H853      1.0  0.52106  0.46124  0.02587  1.0000
  C   C722      1.0  0.67859  0.59745  0.29572  1.0000
  H   H854      1.0  0.50251  0.57987  0.10986  1.0000
  H   H855      1.0  0.62365  0.55823  0.00706  1.0000
  C   C723      1.0  0.91971  0.61179  0.31867  1.0000
  H   H856      1.0  0.58665  0.65483  0.27481  1.0000
  C   C724      1.0  0.89043  0.59651  0.49407  1.0000
  H   H857      1.0  0.54150  0.53114  0.14723  1.0000
  S   S195      1.0  0.54684  0.65306  0.08867  1.0000
  H   H858      1.0  0.93522  0.64943  0.31682  1.0000
  H   H859      1.0  0.70618  0.65325  0.24683  1.0000
  C   C725      1.0  0.88133  0.65987  0.46483  1.0000
  H   H860      1.0  0.92752  0.64992  0.49155  1.0000
  H   H861      1.0  0.69061  0.65314  0.32732  1.0000
  H   H862      1.0  0.64398  0.66016  0.32122  1.0000
  N   N46       1.0  0.90601  0.32889  0.45238  1.0000
  H   H863      1.0  0.95025  0.65852  0.25544  1.0000
  H   H864      1.0  0.91078  0.66066  0.38274  1.0000
  H   H865      1.0  0.90620  0.65803  0.23307  1.0000
  H   H866      1.0  0.52106  0.52703  0.99873  1.0000
  H   H867      1.0  0.66071  0.50849  0.90300  1.0000
  Fe  Fe96      1.0  0.59313  0.48096  0.96510  1.0000
  H   H868      1.0  0.56600  0.38317  0.97930  1.0000
  C   C726      1.0  0.59209  0.54774  0.95085  1.0000
  Fe  Fe97      1.0  0.58092  0.43430  0.93211  1.0000
  S   S196      1.0  0.54100  0.42972  0.95226  1.0000
  S   S197      1.0  0.59331  0.40933  0.89678  1.0000
  Fe  Fe98      1.0  0.53720  0.47280  0.94938  1.0000
  N   N47       1.0  0.65609  0.46830  0.89339  1.0000
  H   H869      1.0  0.99537  0.43721  0.50369  1.0000
  S   S198      1.0  0.57514  0.47712  0.92606  1.0000
  S   S199      1.0  0.60175  0.43858  0.96972  1.0000
  C   C727      1.0  0.91526  0.63446  0.50050  1.0000
  H   H870      1.0  0.96323  0.36672  0.77950  1.0000
  H   H871      1.0  0.97018  0.48869  0.55412  1.0000
  H   H872      1.0  0.90188  0.32939  0.79791  1.0000
  H   H873      1.0  0.94441  0.45699  0.53036  1.0000
  C   C728      1.0  0.58180  0.57264  0.94703  1.0000
  H   H874      1.0  0.63539  0.47669  0.93024  1.0000
  C   C729      1.0  0.64529  0.35946  0.85966  1.0000
  H   H875      1.0  0.90404  0.58609  0.50720  1.0000
  C   C730      1.0  0.60564  0.33620  0.93015  1.0000
  H   H876      1.0  0.63732  0.48135  0.85850  1.0000
  H   H877      1.0  0.97621  0.43469  0.63841  1.0000
  S   S200      1.0  0.57116  0.62268  0.95977  1.0000
  H   H878      1.0  0.67314  0.40324  0.83034  1.0000
  C   C731      1.0  0.64739  0.46101  0.92042  1.0000
  H   H879      1.0  0.98662  0.40705  0.77564  1.0000
  C   C732      1.0  0.97149  0.46834  0.55920  1.0000
  H   H880      1.0  0.58884  0.53279  0.93669  1.0000
  S   S201      1.0  0.62107  0.51144  0.97644  1.0000
  H   H881      1.0  0.96659  0.35626  0.70742  1.0000
  C   C733      1.0  0.67225  0.49171  0.89464  1.0000
  H   H882      1.0  0.60838  0.37844  0.85191  1.0000
  H   H883      1.0  0.57064  0.57672  0.92989  1.0000
  C   C734      1.0  0.95694  0.45055  0.54587  1.0000
  C   C735      1.0  0.92608  0.38202  0.76550  1.0000
  H   H884      1.0  0.71377  0.38901  0.85095  1.0000
  H   H885      1.0  0.62110  0.49173  0.88848  1.0000
  C   C736      1.0  0.96624  0.40655  0.77051  1.0000
  C   C737      1.0  0.95836  0.42450  0.55262  1.0000
  C   C738      1.0  0.58564  0.59222  0.96526  1.0000
  C   C739      1.0  0.97430  0.41609  0.57272  1.0000
  C   C740      1.0  0.67954  0.41342  0.84740  1.0000
  C   C741      1.0  0.98528  0.55601  0.54267  1.0000
  C   C742      1.0  0.61571  0.37347  0.98812  1.0000
  C   C743      1.0  0.95254  0.38354  0.77279  1.0000
  C   C744      1.0  0.62144  0.38928  0.88992  1.0000
  C   C745      1.0  0.62362  0.37601  0.86585  1.0000
  H   H886      1.0  0.97439  0.39564  0.57689  1.0000
  C   C746      1.0  0.66502  0.35592  0.87759  1.0000
  C   C747      1.0  0.66289  0.36931  0.90161  1.0000
  C   C748      1.0  0.64130  0.38595  0.90774  1.0000
  H   H887      1.0  0.96494  0.57341  0.57627  1.0000
  H   H888      1.0  0.88095  0.36506  0.74137  1.0000
  H   H889      1.0  0.67802  0.36663  0.91562  1.0000
  H   H890      1.0  0.63996  0.39590  0.92632  1.0000
  H   H891      1.0  0.96538  0.44603  0.75758  1.0000
  H   H892      1.0  0.52375  0.57960  0.95083  1.0000
  C   C749      1.0  0.63226  0.47531  0.87900  1.0000
  H   H893      1.0  0.66403  0.45703  0.93325  1.0000
  C   C750      1.0  0.66420  0.43367  0.85832  1.0000
  N   N48       1.0  0.91214  0.35729  0.76784  1.0000
  C   C751      1.0  0.98059  0.56030  0.56967  1.0000
  C   C752      1.0  0.88386  0.35951  0.76214  1.0000
  H   H894      1.0  0.89462  0.40552  0.74863  1.0000
  N   N49       1.0  0.50710  0.56486  0.98741  1.0000
  S   S202      1.0  0.69230  0.33458  0.87151  1.0000
  C   C753      1.0  0.98732  0.46018  0.57945  1.0000
  H   H895      1.0  0.89991  0.64330  0.51398  1.0000
  H   H896      1.0  0.87309  0.60340  0.50623  1.0000
  C   C754      1.0  0.92849  0.42766  0.75264  1.0000
  C   C755      1.0  0.60044  0.58696  0.98716  1.0000
  H   H897      1.0  0.64661  0.34928  0.84116  1.0000
  C   C756      1.0  0.97968  0.39569  0.70381  1.0000
  Fe  Fe99      1.0  0.56571  0.65349  0.99088  1.0000
  H   H898      1.0  0.91955  0.44474  0.74423  1.0000
  C   C757      1.0  0.51680  0.56127  0.95985  1.0000
  H   H899      1.0  0.98624  0.39081  0.61977  1.0000
  H   H900      1.0  0.72807  0.41094  0.89063  1.0000
  H   H901      1.0  0.94688  0.41074  0.54228  1.0000
  H   H902      1.0  0.90690  0.36145  0.80969  1.0000
  H   H903      1.0  0.56127  0.35807  0.95630  1.0000
  S   S203      1.0  0.50124  0.49716  0.94172  1.0000
  C   C758      1.0  0.60733  0.54250  0.97238  1.0000
  C   C759      1.0  0.95430  0.42852  0.76032  1.0000
  H   H904      1.0  0.92375  0.34557  0.72859  1.0000
  C   C760      1.0  0.71042  0.41767  0.88146  1.0000
  Fe  Fe100     1.0  0.56153  0.43762  0.98939  1.0000
  C   C761      1.0  0.98925  0.43381  0.58688  1.0000
  H   H905      1.0  0.99183  0.55042  0.60898  1.0000
  H   H906      1.0  0.70227  0.44688  0.90996  1.0000
  H   H907      1.0  0.62655  0.38482  0.97281  1.0000
  C   C762      1.0  0.91391  0.34688  0.79486  1.0000
  C   C763      1.0  0.69541  0.43813  0.89240  1.0000
  C   C764      1.0  0.70251  0.40536  0.85899  1.0000
  H   H908      1.0  0.50115  0.55378  0.94753  1.0000
  H   H909      1.0  0.53354  0.54716  0.95823  1.0000
  H   H910      1.0  0.87375  0.34079  0.76493  1.0000
  C   C765      1.0  0.67179  0.44679  0.88117  1.0000
  H   H911      1.0  0.64620  0.43818  0.84878  1.0000
  H   H912      1.0  0.96320  0.40188  0.69257  1.0000
  C   C766      1.0  0.92458  0.33847  0.74913  1.0000
  H   H913      1.0  0.63532  0.44338  0.92020  1.0000
  C   C767      1.0  0.98142  0.36975  0.71243  1.0000
  H   H914      1.0  0.68921  0.48898  0.90738  1.0000
  H   H915      1.0  0.92866  0.62281  0.51286  1.0000
  H   H916      1.0  0.99778  0.47483  0.58953  1.0000
  H   H917      1.0  0.68007  0.49725  0.87477  1.0000
  H   H918      1.0  0.94560  0.33467  0.75299  1.0000
  S   S204      1.0  0.96574  0.57188  0.51949  1.0000
  H   H919      1.0  0.93424  0.34085  0.79943  1.0000
  C   C768      1.0  0.91442  0.40484  0.75520  1.0000
  H   H920      1.0  0.87335  0.37370  0.77537  1.0000
  H   H921      1.0  0.61843  0.45893  0.87857  1.0000
  S   S205      1.0  0.55499  0.48031  0.98785  1.0000
  H   H922      1.0  0.53437  0.59556  0.99366  1.0000
  C   C769      1.0  0.99579  0.54729  0.58822  1.0000
  H   H923      1.0  0.58418  0.38339  0.94851  1.0000
  C   C770      1.0  0.61169  0.56218  0.99046  1.0000
  S   S206      1.0  0.99357  0.44705  0.70141  1.0000
  C   C771      1.0  0.61271  0.33855  0.95671  1.0000
  C   C772      1.0  0.57643  0.37054  0.96442  1.0000
  N   N50       1.0  0.59785  0.35509  0.97604  1.0000
  S   S207      1.0  0.73736  0.33000  0.80597  1.0000
  H   H924      1.0  0.58923  0.34664  0.92227  1.0000
  H   H925      1.0  0.50320  0.61567  0.97208  1.0000
  C   C773      1.0  0.58589  0.33877  0.99702  1.0000
  C   C774      1.0  0.99703  0.43904  0.63306  1.0000
  H   H926      1.0  0.92496  0.41340  0.49901  1.0000
  Fe  Fe101     1.0  0.83170  0.70994  0.26796  1.0000
  S   S208      1.0  0.85536  0.72223  0.23177  1.0000
  Fe  Fe102     1.0  0.79766  0.73224  0.31324  1.0000
  S   S209      1.0  0.79201  0.69337  0.33225  1.0000
  S   S210      1.0  0.77635  0.76826  0.32853  1.0000
  H   H927      1.0  0.74533  0.70004  0.10477  1.0000
  H   H928      1.0  0.74324  0.78672  0.23623  1.0000
  S   S211      1.0  0.84102  0.72632  0.30707  1.0000
  S   S212      1.0  0.78884  0.71905  0.27293  1.0000
  H   H929      1.0  0.81680  0.94557  0.31698  1.0000
  C   C775      1.0  0.94361  0.71279  0.04089  1.0000
  C   C776      1.0  0.55716  0.83081  0.26291  1.0000
  Fe  Fe103     1.0  0.58555  0.72624  0.20864  1.0000
  S   S213      1.0  0.54449  0.72414  0.22584  1.0000
  S   S214      1.0  0.59217  0.73492  0.16574  1.0000
  Fe  Fe104     1.0  0.55917  0.74909  0.25831  1.0000
  S   S215      1.0  0.60065  0.69016  0.22766  1.0000
  S   S216      1.0  0.59928  0.75324  0.23944  1.0000
  H   H930      1.0  0.73625  0.93341  0.40364  1.0000
  S   S217      1.0  0.54035  0.70910  0.03624  1.0000
  H   H931      1.0  0.75338  0.75992  0.25580  1.0000
  H   H932      1.0  0.64537  0.99180  0.17990  1.0000
  H   H933      1.0  0.95188  0.67547  0.28603  1.0000
  Fe  Fe105     1.0  0.79751  0.74321  0.09108  1.0000
  S   S218      1.0  0.80324  0.72437  0.05162  1.0000
  S   S219      1.0  0.79588  0.71558  0.12539  1.0000
  Fe  Fe106     1.0  0.78813  0.79525  0.06657  1.0000
  S   S220      1.0  0.79308  0.78000  0.02547  1.0000
  S   S221      1.0  0.77863  0.83717  0.07383  1.0000
  Fe  Fe107     1.0  0.76762  0.74761  0.04035  1.0000
  C   C777      1.0  0.67629  0.70794  0.13876  1.0000
  Fe  Fe108     1.0  0.82813  0.75859  0.04087  1.0000
  H   H934      1.0  0.70018  0.85404  0.00445  1.0000
  S   S222      1.0  0.76057  0.76439  0.08045  1.0000
  S   S223      1.0  0.82448  0.77602  0.08127  1.0000
  N   N51       1.0  0.65387  0.69738  0.09725  1.0000
  C   C778      1.0  0.69879  0.71163  0.15291  1.0000
  Fe  Fe109     1.0  0.55003  0.66815  0.04715  1.0000
  C   C779      1.0  0.56824  0.68909  0.15488  1.0000
  S   S224      1.0  0.84977  0.96907  0.04385  1.0000
  Fe  Fe110     1.0  0.56745  0.98040  0.32428  1.0000
  S   S225      1.0  0.54968  0.97818  0.28500  1.0000
  H   H935      1.0  0.91853  0.71836  0.11326  1.0000
  S   S226      1.0  0.55025  0.94410  0.34065  1.0000
  Fe  Fe111     1.0  0.75862  0.95888  0.29024  1.0000
  S   S227      1.0  0.74341  0.91879  0.29464  1.0000
  C   C780      1.0  0.96002  0.72122  0.06007  1.0000
  Fe  Fe112     1.0  0.77066  0.95213  0.22934  1.0000
  S   S228      1.0  0.75562  0.91170  0.23045  1.0000
  S   S229      1.0  0.79421  0.96701  0.19312  1.0000
  Fe  Fe113     1.0  0.72344  0.92802  0.25733  1.0000
  S   S230      1.0  0.68116  0.91818  0.25417  1.0000
  Fe  Fe114     1.0  0.77720  0.90672  0.26758  1.0000
  S   S231      1.0  0.80604  0.87370  0.27278  1.0000
  S   S232      1.0  0.73661  0.96903  0.25393  1.0000
  S   S233      1.0  0.79420  0.94627  0.26542  1.0000
  C   C781      1.0  0.62991  0.96661  0.31103  1.0000
  C   C782      1.0  0.65717  0.96921  0.31028  1.0000
  C   C783      1.0  0.67319  0.95316  0.29404  1.0000
  C   C784      1.0  0.66194  0.93472  0.27824  1.0000
  C   C785      1.0  0.63483  0.93115  0.28010  1.0000
  C   C786      1.0  0.61880  0.94712  0.29646  1.0000
  H   H936      1.0  0.88599  0.69178  0.12247  1.0000
  H   H937      1.0  0.69413  0.95586  0.29297  1.0000
  H   H938      1.0  0.62606  0.91668  0.26818  1.0000
  H   H939      1.0  0.59779  0.94468  0.29725  1.0000
  H   H940      1.0  0.68319  0.75155  0.26064  1.0000
  C   C787      1.0  0.55672  0.85815  0.26235  1.0000
  C   C788      1.0  0.94332  0.76959  0.00003  1.0000
  C   C789      1.0  0.78896  0.97221  0.15909  1.0000
  C   C790      1.0  0.57826  0.95156  0.41312  1.0000
  H   H941      1.0  0.57069  0.82015  0.25001  1.0000
  H   H942      1.0  0.89183  0.67176  0.47799  1.0000
  C   C791      1.0  0.80353  0.70456  0.17679  1.0000
  C   C792      1.0  0.76130  0.97531  0.12130  1.0000
  C   C793      1.0  0.79974  0.85627  0.05432  1.0000
  C   C794      1.0  0.79607  0.88310  0.05386  1.0000
  C   C795      1.0  0.81297  0.89845  0.03843  1.0000
  C   C796      1.0  0.83327  0.88694  0.02300  1.0000
  C   C797      1.0  0.83706  0.86014  0.02357  1.0000
  C   C798      1.0  0.82036  0.84483  0.03927  1.0000
  H   H943      1.0  0.78000  0.89205  0.06515  1.0000
  H   H944      1.0  0.81001  0.91916  0.03822  1.0000
  H   H945      1.0  0.73354  0.69680  0.31137  1.0000
  H   H946      1.0  0.82364  0.82421  0.03979  1.0000
  S   S234      1.0  0.53594  0.78306  0.27811  1.0000
  C   C799      1.0  0.74990  0.98089  0.35906  1.0000
  C   C800      1.0  0.74460  0.95626  0.36899  1.0000
  C   C801      1.0  0.73952  0.95265  0.39615  1.0000
  H   H947      1.0  0.64043  0.68465  0.05981  1.0000
  H   H948      1.0  0.74503  0.93987  0.35591  1.0000
  C   C802      1.0  0.64474  0.73375  0.02028  1.0000
  S   S235      1.0  0.64434  0.71769  0.28719  1.0000
  H   H949      1.0  0.50799  0.77167  0.20789  1.0000
  C   C803      1.0  0.70060  0.73063  0.01954  1.0000
  C   C804      1.0  0.68698  0.74968  0.03437  1.0000
  C   C805      1.0  0.94884  0.88480  0.02349  1.0000
  H   H950      1.0  0.95060  0.71268  0.02053  1.0000
  H   H951      1.0  0.69778  0.76316  0.04565  1.0000
  C   C806      1.0  0.72596  0.70197  0.11427  1.0000
  C   C807      1.0  0.52247  0.83208  0.29645  1.0000
  C   C808      1.0  0.77747  0.88852  0.40523  1.0000
  C   C809      1.0  0.52260  0.85941  0.29647  1.0000
  C   C810      1.0  0.72685  0.81941  0.03142  1.0000
  C   C811      1.0  0.57792  0.71248  0.14518  1.0000
  C   C812      1.0  0.57740  0.71773  0.11836  1.0000
  C   C813      1.0  0.56815  0.69939  0.10109  1.0000
  Fe  Fe115     1.0  0.57936  0.70601  0.01314  1.0000
  C   C814      1.0  0.52183  0.82252  0.19664  1.0000
  N   N52       1.0  0.64207  0.99262  0.22220  1.0000
  H   H952      1.0  0.58445  0.73593  0.11080  1.0000
  H   H953      1.0  0.56894  0.70334  0.08037  1.0000
  N   N53       1.0  0.99095  0.94469  0.02189  1.0000
  H   H954      1.0  0.52888  0.80618  0.14551  1.0000
  Fe  Fe116     1.0  0.83523  0.68593  0.32288  1.0000
  H   H955      1.0  0.65748  0.71121  0.14892  1.0000
  C   C815      1.0  0.81067  0.97774  0.14220  1.0000
  H   H956      1.0  0.59565  0.93635  0.47479  1.0000
  C   C816      1.0  0.89855  0.76494  0.01901  1.0000
  H   H957      1.0  0.72656  0.83869  0.04098  1.0000
  H   H958      1.0  0.67143  0.92893  0.42641  1.0000
  H   H959      1.0  0.67317  0.97272  0.36993  1.0000
  H   H960      1.0  0.80002  0.95756  0.37113  1.0000
  H   H961      1.0  0.81091  0.87432  0.33712  1.0000
  C   C817      1.0  0.78419  0.79735  0.31239  1.0000
  C   C818      1.0  0.76749  0.81909  0.31573  1.0000
  C   C819      1.0  0.77342  0.84245  0.30294  1.0000
  C   C820      1.0  0.79643  0.84430  0.28723  1.0000
  C   C821      1.0  0.81299  0.82253  0.28380  1.0000
  C   C822      1.0  0.80672  0.79904  0.29604  1.0000
  H   H962      1.0  0.74999  0.81792  0.32836  1.0000
  H   H963      1.0  0.76060  0.85917  0.30579  1.0000
  H   H964      1.0  0.83080  0.82384  0.27165  1.0000
  H   H965      1.0  0.81962  0.78238  0.29318  1.0000
  C   C823      1.0  0.83805  0.72168  0.20258  1.0000
  C   C824      1.0  0.84649  0.73650  0.18086  1.0000
  C   C825      1.0  0.83317  0.73567  0.15725  1.0000
  C   C826      1.0  0.81184  0.71939  0.15510  1.0000
  H   H966      1.0  0.86319  0.74884  0.18242  1.0000
  H   H967      1.0  0.83954  0.74739  0.14075  1.0000
  C   C827      1.0  0.86455  0.67281  0.44797  1.0000
  H   H968      1.0  0.57050  0.80579  0.20349  1.0000
  H   H969      1.0  0.56105  0.95280  0.40132  1.0000
  H   H970      1.0  0.87582  0.67138  0.05269  1.0000
  Fe  Fe117     1.0  0.52097  0.69297  0.00091  1.0000
  C   C828      1.0  0.90176  0.68927  0.29145  1.0000
  H   H971      1.0  0.74729  0.96669  0.16104  1.0000
  H   H972      1.0  0.95100  0.86438  0.02789  1.0000
  H   H973      1.0  0.50866  0.82217  0.30937  1.0000
  C   C829      1.0  0.84650  0.91497  0.34763  1.0000
  C   C830      1.0  0.65931  0.75159  0.03418  1.0000
  C   C831      1.0  0.74289  0.77894  0.25656  1.0000
  N   N54       1.0  0.71563  0.77675  0.26763  1.0000
  C   C832      1.0  0.71695  0.76756  0.29503  1.0000
  C   C833      1.0  0.70266  0.75690  0.25201  1.0000
  C   C834      1.0  0.70050  0.80145  0.26754  1.0000
  C   C835      1.0  0.67321  0.80203  0.27437  1.0000
  C   C836      1.0  0.71244  0.82560  0.26231  1.0000
  C   C837      1.0  0.65865  0.82520  0.27498  1.0000
  C   C838      1.0  0.69768  0.84864  0.26308  1.0000
  C   C839      1.0  0.67086  0.84844  0.26926  1.0000
  H   H974      1.0  0.69723  0.76326  0.30382  1.0000
  H   H975      1.0  0.72561  0.78231  0.30767  1.0000
  H   H976      1.0  0.69983  0.76371  0.23163  1.0000
  H   H977      1.0  0.71431  0.73846  0.25103  1.0000
  H   H978      1.0  0.75491  0.79138  0.26883  1.0000
  H   H979      1.0  0.66294  0.78462  0.27974  1.0000
  H   H980      1.0  0.73320  0.82734  0.25786  1.0000
  H   H981      1.0  0.63781  0.82516  0.28017  1.0000
  H   H982      1.0  0.70712  0.86688  0.25903  1.0000
  H   H983      1.0  0.65959  0.86643  0.26988  1.0000
  N   N55       1.0  0.80682  0.89247  0.13808  1.0000
  C   C840      1.0  0.81673  0.90632  0.16097  1.0000
  C   C841      1.0  0.78493  0.90780  0.12729  1.0000
  C   C842      1.0  0.79585  0.86773  0.14782  1.0000
  C   C843      1.0  0.82817  0.88915  0.11770  1.0000
  C   C844      1.0  0.83688  0.86457  0.10804  1.0000
  C   C845      1.0  0.84086  0.91104  0.10671  1.0000
  C   C846      1.0  0.85703  0.86226  0.08870  1.0000
  C   C847      1.0  0.86085  0.90849  0.08726  1.0000
  C   C848      1.0  0.86889  0.88416  0.07825  1.0000
  H   H984      1.0  0.80134  0.90888  0.17697  1.0000
  H   H985      1.0  0.83368  0.89578  0.16928  1.0000
  H   H986      1.0  0.82324  0.92608  0.15594  1.0000
  H   H987      1.0  0.79124  0.92692  0.11990  1.0000
  H   H988      1.0  0.76892  0.91164  0.14236  1.0000
  H   H989      1.0  0.77639  0.89760  0.11061  1.0000
  H   H990      1.0  0.78703  0.85675  0.13172  1.0000
  H   H991      1.0  0.81113  0.85538  0.15683  1.0000
  H   H992      1.0  0.77998  0.87098  0.16318  1.0000
  H   H993      1.0  0.82799  0.84682  0.11451  1.0000
  H   H994      1.0  0.83512  0.93038  0.11278  1.0000
  H   H995      1.0  0.86286  0.84339  0.08108  1.0000
  H   H996      1.0  0.86982  0.92550  0.07876  1.0000
  H   H997      1.0  0.88387  0.88231  0.06265  1.0000
  H   H998      1.0  0.55651  0.93908  0.44771  1.0000
  H   H999      1.0  0.86690  0.73935  0.07268  1.0000
  H   H1000     1.0  0.91190  0.68927  0.31031  1.0000
  C   C849      1.0  0.94305  0.93735  0.01233  1.0000
  H   H1001     1.0  0.51439  0.89968  0.44768  1.0000
  H   H1002     1.0  0.98828  0.89256  0.03215  1.0000
  C   C850      1.0  0.93378  0.78008  0.04554  1.0000
  H   H1003     1.0  0.74203  0.97457  0.11333  1.0000
  H   H1004     1.0  0.97965  0.72749  0.05457  1.0000
  H   H1005     1.0  0.69701  0.71704  0.17343  1.0000
  C   C851      1.0  0.95076  0.72280  0.08607  1.0000
  S   S236      1.0  0.60992  0.98867  0.32906  1.0000
  H   H1006     1.0  0.84544  0.72204  0.09513  1.0000
  C   C852      1.0  0.67417  0.70024  0.28310  1.0000
  H   H1007     1.0  0.79127  0.92658  0.40216  1.0000
  H   H1008     1.0  0.61598  0.96451  0.20737  1.0000
  C   C853      1.0  0.92188  0.92090  0.01044  1.0000
  C   C854      1.0  0.52560  0.84657  0.18370  1.0000
  C   C855      1.0  0.79126  0.90816  0.39228  1.0000
  H   H1009     1.0  0.56561  0.77248  0.19599  1.0000
  H   H1010     1.0  0.87777  0.67221  0.25036  1.0000
  C   C856      1.0  0.65781  0.99407  0.19710  1.0000
  H   H1011     1.0  0.52212  0.75897  0.17832  1.0000
  H   H1012     1.0  0.62796  0.68703  0.13029  1.0000
  C   C857      1.0  0.50287  0.86963  0.21943  1.0000
  H   H1013     1.0  0.70709  0.69333  0.07947  1.0000
  H   H1014     1.0  0.80768  0.91260  0.31446  1.0000
  H   H1015     1.0  0.61866  0.96362  0.24210  1.0000
  C   C858      1.0  0.69398  0.70538  0.30041  1.0000
  C   C859      1.0  0.97016  0.90110  0.02561  1.0000
  S   S237      1.0  0.60981  0.73690  0.02110  1.0000
  C   C860      1.0  0.81999  0.94889  0.36759  1.0000
  H   H1016     1.0  0.56051  0.97604  0.48730  1.0000
  C   C861      1.0  0.70363  0.69807  0.09994  1.0000
  C   C862      1.0  0.80211  0.87893  0.35626  1.0000
  H   H1017     1.0  0.60357  0.96272  0.38144  1.0000
  C   C863      1.0  0.80413  0.90389  0.36734  1.0000
  H   H1018     1.0  0.67034  0.97278  0.44090  1.0000
  C   C864      1.0  0.55556  0.79046  0.20312  1.0000
  S   S238      1.0  0.75973  0.98624  0.32552  1.0000
  C   C865      1.0  0.91783  0.70591  0.04755  1.0000
  C   C866      1.0  0.90712  0.77413  0.04290  1.0000
  Fe  Fe118     1.0  0.61007  0.71680  0.26062  1.0000
  H   H1019     1.0  0.61506  0.66866  0.28786  1.0000
  S   S239      1.0  0.73559  0.72843  0.01729  1.0000
  N   N56       1.0  0.53365  0.79799  0.18648  1.0000
  H   H1020     1.0  0.56966  0.86810  0.24858  1.0000
  S   S240      1.0  0.86743  0.67379  0.35101  1.0000
  C   C867      1.0  0.72282  0.67361  0.27874  1.0000
  C   C868      1.0  0.62990  0.96688  0.22335  1.0000
  H   H1021     1.0  0.94037  0.78603  0.06443  1.0000
  C   C869      1.0  0.66054  0.99463  0.24371  1.0000
  H   H1022     1.0  0.97034  0.98121  0.02389  1.0000
  C   C870      1.0  0.67801  0.70064  0.11191  1.0000
  Fe  Fe119     1.0  0.51630  0.96996  0.35407  1.0000
  H   H1023     1.0  0.62322  0.72190  0.08224  1.0000
  H   H1024     1.0  0.76557  0.84894  0.40403  1.0000
  C   C871      1.0  0.54427  0.79964  0.15897  1.0000
  C   C872      1.0  0.94095  0.67418  0.26774  1.0000
  N   N57       1.0  0.91262  0.66942  0.27295  1.0000
  N   N58       1.0  0.65259  0.96001  0.40545  1.0000
  C   C873      1.0  0.50615  0.93272  0.42320  1.0000
  C   C874      1.0  0.86575  0.68929  0.06016  1.0000
  H   H1025     1.0  0.50541  0.80598  0.23309  1.0000
  H   H1026     1.0  0.54873  0.78690  0.22374  1.0000
  C   C875      1.0  0.53943  0.81749  0.27942  1.0000
  H   H1027     1.0  0.98064  0.95395  0.06215  1.0000
  C   C876      1.0  0.81634  0.70595  0.20054  1.0000
  H   H1028     1.0  0.93913  0.95745  0.00810  1.0000
  H   H1029     1.0  0.94414  0.69284  0.25734  1.0000
  H   H1030     1.0  0.72935  0.74971  0.29646  1.0000
  H   H1031     1.0  0.52606  0.97282  0.48759  1.0000
  H   H1032     1.0  0.52898  0.99285  0.44239  1.0000
  C   C877      1.0  0.67864  0.68164  0.26349  1.0000
  C   C878      1.0  0.76421  0.97084  0.14840  1.0000
  H   H1033     1.0  0.87523  0.73494  0.10616  1.0000
  C   C879      1.0  0.66819  0.93560  0.40605  1.0000
  H   H1034     1.0  0.80973  0.69437  0.21710  1.0000
  C   C880      1.0  0.65288  0.96908  0.37784  1.0000
  H   H1035     1.0  0.78712  0.69184  0.17524  1.0000
  H   H1036     1.0  0.85593  0.90917  0.36606  1.0000
  H   H1037     1.0  0.64471  0.95447  0.36464  1.0000
  H   H1038     1.0  0.94746  0.98792  0.09172  1.0000
  C   C881      1.0  0.68604  0.71305  0.00533  1.0000
  H   H1039     1.0  0.85279  0.85117  0.01174  1.0000
  C   C882      1.0  0.77621  0.86415  0.39394  1.0000
  H   H1040     1.0  0.50882  0.87014  0.30915  1.0000
  H   H1041     1.0  0.67313  0.97841  0.19566  1.0000
  H   H1042     1.0  0.83133  0.96366  0.35630  1.0000
  N   N59       1.0  0.81907  0.92411  0.35307  1.0000
  C   C883      1.0  0.78856  0.85936  0.36954  1.0000
  C   C884      1.0  0.57563  0.94390  0.43925  1.0000
  C   C885      1.0  0.60297  0.95726  0.40191  1.0000
  H   H1043     1.0  0.84770  0.89808  0.33415  1.0000
  H   H1044     1.0  0.64905  0.76678  0.04519  1.0000
  H   H1045     1.0  0.90282  0.70908  0.28302  1.0000
  S   S241      1.0  0.98619  0.78113  0.02986  1.0000
  C   C886      1.0  0.54180  0.98643  0.49234  1.0000
  H   H1046     1.0  0.63886  0.94621  0.45609  1.0000
  S   S242      1.0  0.80266  0.96358  0.00012  1.0000
  H   H1047     1.0  0.66588  0.98431  0.32142  1.0000
  C   C887      1.0  0.78308  0.98069  0.10440  1.0000
  H   H1048     1.0  0.63301  0.73032  0.11446  1.0000
  C   C888      1.0  0.73864  0.97362  0.41369  1.0000
  C   C889      1.0  0.65894  0.68711  0.07032  1.0000
  S   S243      1.0  0.53638  0.90699  0.27417  1.0000
  H   H1049     1.0  0.84546  0.68407  0.06682  1.0000
  C   C890      1.0  0.63599  0.67924  0.11126  1.0000
  C   C891      1.0  0.51406  0.77714  0.18749  1.0000
  H   H1050     1.0  0.89348  0.77592  0.05959  1.0000
  H   H1051     1.0  0.56847  0.68491  0.17565  1.0000
  H   H1052     1.0  0.69039  0.71921  0.31605  1.0000
  N   N60       1.0  0.88025  0.70112  0.08160  1.0000
  C   C892      1.0  0.95213  0.77772  0.02422  1.0000
  H   H1053     1.0  0.66341  0.67746  0.25013  1.0000
  H   H1054     1.0  0.70953  0.80886  0.03945  1.0000
  H   H1055     1.0  0.82940  0.94637  0.38672  1.0000
  S   S244      1.0  0.86604  0.75366  0.01533  1.0000
  C   C893      1.0  0.53936  0.87274  0.27900  1.0000
  C   C894      1.0  0.64036  0.72280  0.09504  1.0000
  C   C895      1.0  0.71840  0.69260  0.29788  1.0000
  C   C896      1.0  0.98628  0.97130  0.01216  1.0000
  H   H1056     1.0  0.68796  0.93782  0.39640  1.0000
  H   H1057     1.0  0.61854  0.67504  0.09969  1.0000
  H   H1058     1.0  0.51992  0.88796  0.18533  1.0000
  Fe  Fe120     1.0  0.53070  0.94222  0.30186  1.0000
  C   C897      1.0  0.86635  0.72541  0.08928  1.0000
  H   H1059     1.0  0.67624  0.97935  0.24231  1.0000
  H   H1060     1.0  0.70790  0.78464  0.99834  1.0000
  H   H1061     1.0  0.56122  0.81278  0.15712  1.0000
  Fe  Fe121     1.0  0.84300  0.94778  0.00662  1.0000
  H   H1062     1.0  0.82477  0.98600  0.10248  1.0000
  C   C898      1.0  0.80690  0.92958  0.32779  1.0000
  H   H1063     1.0  0.68500  0.82392  0.00005  1.0000
  H   H1064     1.0  0.65828  0.91991  0.39564  1.0000
  H   H1065     1.0  0.53627  0.84813  0.16509  1.0000
  H   H1066     1.0  0.78594  0.93544  0.33090  1.0000
  H   H1067     1.0  0.76765  0.89230  0.42414  1.0000
  H   H1068     1.0  0.90590  0.70077  0.03147  1.0000
  Fe  Fe122     1.0  0.56019  0.68906  0.24683  1.0000
  H   H1069     1.0  0.85860  0.93015  0.33790  1.0000
  H   H1070     1.0  0.86332  0.70294  0.04347  1.0000
  H   H1071     1.0  0.78759  0.84035  0.36080  1.0000
  N   N61       1.0  0.72715  0.82118  0.00242  1.0000
  H   H1072     1.0  0.55201  0.78054  0.15167  1.0000
  C   C899      1.0  0.62590  0.95547  0.41683  1.0000
  C   C900      1.0  0.62238  0.94804  0.44351  1.0000
  C   C901      1.0  0.59762  0.94233  0.45445  1.0000
  H   H1073     1.0  0.64489  0.95094  0.22169  1.0000
  S   S245      1.0  0.57056  0.71362  0.28131  1.0000
  H   H1074     1.0  0.65385  0.73741  0.08642  1.0000
  C   C902      1.0  0.90782  0.70699  0.07398  1.0000
  H   H1075     1.0  0.90883  0.99306  0.06372  1.0000
  C   C903      1.0  0.55844  0.67599  0.11058  1.0000
  C   C904      1.0  0.87896  0.68308  0.10425  1.0000
  H   H1076     1.0  0.90818  0.88209  0.01414  1.0000
  H   H1077     1.0  0.74468  0.80911  0.03808  1.0000
  Fe  Fe123     1.0  0.78614  0.67983  0.29103  1.0000
  C   C905      1.0  0.96807  0.92783  0.01963  1.0000
  C   C906      1.0  0.55842  0.67088  0.13757  1.0000
  S   S246      1.0  0.73280  0.96751  0.44784  1.0000
  C   C907      1.0  0.70285  0.66804  0.26159  1.0000
  S   S247      1.0  0.82880  0.66923  0.28286  1.0000
  H   H1078     1.0  0.88082  0.68564  0.29658  1.0000
  H   H1079     1.0  0.74107  0.71166  0.15157  1.0000
  C   C908      1.0  0.72358  0.70862  0.14069  1.0000
  S   S248      1.0  0.77834  0.98644  0.07039  1.0000
  H   H1080     1.0  0.86269  0.69367  0.44846  1.0000
  H   H1081     1.0  0.90339  0.69213  0.23877  1.0000
  H   H1082     1.0  0.90302  0.92858  0.00480  1.0000
  H   H1083     1.0  0.96340  0.73014  0.10075  1.0000
  C   C909      1.0  0.92476  0.89468  0.01582  1.0000
  H   H1084     1.0  0.83811  0.66917  0.41643  1.0000
  H   H1085     1.0  0.64152  0.98750  0.37588  1.0000
  S   S249      1.0  0.85340  0.90571  0.00222  1.0000
  H   H1086     1.0  0.85838  0.67742  0.10933  1.0000
  H   H1087     1.0  0.51697  0.92510  0.40614  1.0000
  C   C910      1.0  0.51624  0.86972  0.19507  1.0000
  C   C911      1.0  0.66574  0.97976  0.42098  1.0000
  Fe  Fe124     1.0  0.80996  0.98643  0.03698  1.0000
  C   C912      1.0  0.65833  0.71432  0.00599  1.0000
  C   C913      1.0  0.92506  0.71587  0.09300  1.0000
  H   H1088     1.0  0.89077  0.66519  0.09995  1.0000
  Fe  Fe125     1.0  0.71848  0.99310  0.48264  1.0000
  C   C914      1.0  0.80784  0.98168  0.11507  1.0000
  C   C915      1.0  0.50792  0.82319  0.22133  1.0000
  H   H1089     1.0  0.82990  0.97903  0.15019  1.0000
  H   H1090     1.0  0.67080  0.70057  0.05805  1.0000
  H   H1091     1.0  0.68492  0.98528  0.41165  1.0000
  S   S250      1.0  0.58895  0.66534  0.02518  1.0000
  H   H1092     1.0  0.66928  0.66801  0.07056  1.0000
  H   H1093     1.0  0.73872  0.87189  0.01188  1.0000
  C   C916      1.0  0.89949  0.67287  0.24770  1.0000
  C   C917      1.0  0.75319  0.86188  0.99938  1.0000
  C   C918      1.0  0.50465  0.91837  0.44672  1.0000
  H   H1094     1.0  0.74251  0.78207  0.99877  1.0000
  H   H1095     1.0  0.65060  0.99239  0.26327  1.0000
  C   C919      1.0  0.49844  0.84639  0.23235  1.0000
  C   C920      1.0  0.99761  0.94640  0.04982  1.0000
  H   H1096     1.0  0.71172  0.95643  0.61723  1.0000
  C   C921      1.0  0.96992  0.74601  0.88971  1.0000
  S   S251      1.0  0.55899  0.69402  0.97655  1.0000
  H   H1097     1.0  0.62386  0.93612  0.61931  1.0000
  C   C922      1.0  0.63110  0.95038  0.60451  1.0000
  C   C923      1.0  0.60517  0.97267  0.53689  1.0000
  H   H1098     1.0  0.98417  0.87217  0.77355  1.0000
  C   C924      1.0  0.98946  0.79749  0.82537  1.0000
  S   S252      1.0  0.70602  0.97042  0.51872  1.0000
  H   H1099     1.0  0.69627  0.69826  0.99371  1.0000
  H   H1100     1.0  0.85805  0.95765  0.82130  1.0000
  H   H1101     1.0  0.82175  0.95635  0.91288  1.0000
  C   C925      1.0  0.81083  0.92985  0.80822  1.0000
  C   C926      1.0  0.99157  0.77834  0.84452  1.0000
  C   C927      1.0  0.84935  0.95698  0.84097  1.0000
  H   H1102     1.0  0.86947  0.95674  0.90366  1.0000
  H   H1103     1.0  0.54075  0.98952  0.51394  1.0000
  H   H1104     1.0  0.79422  0.97617  0.78930  1.0000
  C   C928      1.0  0.98296  0.82978  0.85902  1.0000
  S   S253      1.0  0.53442  0.98310  0.59376  1.0000
  H   H1105     1.0  0.66029  0.99124  0.58994  1.0000
  H   H1106     1.0  0.98415  0.83792  0.81757  1.0000
  H   H1107     1.0  0.88733  0.95873  0.85770  1.0000
  H   H1108     1.0  0.79763  0.92741  0.79161  1.0000
  H   H1109     1.0  0.62417  0.94407  0.58514  1.0000
  C   C929      1.0  0.82943  0.95600  0.89270  1.0000
  C   C930      1.0  0.65362  0.96779  0.65158  1.0000
  C   C931      1.0  0.67029  0.96001  0.62983  1.0000
  S   S254      1.0  0.86235  0.97717  0.98092  1.0000
  N   N62       1.0  0.66014  0.95231  0.60427  1.0000
  H   H1110     1.0  0.70327  0.83830  0.97307  1.0000
  H   H1111     1.0  0.80956  0.82827  0.95837  1.0000
  C   C932      1.0  0.56199  0.95954  0.55305  1.0000
  C   C933      1.0  0.58375  0.95634  0.53563  1.0000
  H   H1112     1.0  0.96989  0.73633  0.87028  1.0000
  H   H1113     1.0  0.77129  0.93617  0.84354  1.0000
  H   H1114     1.0  0.54541  0.94699  0.55180  1.0000
  C   C934      1.0  0.66791  0.97169  0.58423  1.0000
  H   H1115     1.0  0.99065  0.91905  0.78060  1.0000
  H   H1116     1.0  0.62116  0.96935  0.60854  1.0000
  H   H1117     1.0  0.97999  0.84983  0.86459  1.0000
  H   H1118     1.0  0.72887  0.97002  0.65863  1.0000
  H   H1119     1.0  0.66754  0.91198  0.61151  1.0000
  C   C935      1.0  0.86634  0.95751  0.86173  1.0000
  H   H1120     1.0  0.69905  0.98389  0.69547  1.0000
  C   C936      1.0  0.85638  0.95666  0.88754  1.0000
  C   C937      1.0  0.98982  0.78443  0.87168  1.0000
  H   H1121     1.0  0.99163  0.99526  0.90135  1.0000
  H   H1122     1.0  0.69300  0.92733  0.59211  1.0000
  C   C938      1.0  0.81224  0.95559  0.87211  1.0000
  C   C939      1.0  0.70783  0.96893  0.65678  1.0000
  N   N63       1.0  0.80432  0.95382  0.82315  1.0000
  H   H1123     1.0  0.66311  0.91998  0.57757  1.0000
  C   C940      1.0  0.82176  0.95568  0.84550  1.0000
  C   C941      1.0  0.69773  0.96098  0.63315  1.0000
  C   C942      1.0  0.60507  0.99191  0.55602  1.0000
  H   H1124     1.0  0.68960  0.97303  0.58149  1.0000
  S   S255      1.0  0.63170  0.96822  0.51429  1.0000
  C   C943      1.0  0.77599  0.95327  0.83115  1.0000
  C   C944      1.0  0.67144  0.92681  0.59611  1.0000
  Fe  Fe126     1.0  0.49786  0.96629  0.57795  1.0000
  C   C945      1.0  0.98516  0.81081  0.87838  1.0000
  H   H1125     1.0  0.89420  0.98976  0.92826  1.0000
  H   H1126     1.0  0.97322  0.78363  0.92473  1.0000
  H   H1127     1.0  0.82804  0.97637  0.79573  1.0000
  H   H1128     1.0  0.63252  0.96802  0.65093  1.0000
  H   H1129     1.0  0.83118  0.92981  0.79952  1.0000
  C   C946      1.0  0.66400  0.97609  0.67501  1.0000
  H   H1130     1.0  0.72689  0.79440  0.97003  1.0000
  H   H1131     1.0  0.80905  0.91257  0.82110  1.0000
  C   C947      1.0  0.98530  0.82316  0.83258  1.0000
  H   H1132     1.0  0.97057  0.73046  0.90478  1.0000
  H   H1133     1.0  0.76335  0.95255  0.81392  1.0000
  H   H1134     1.0  0.58387  0.94116  0.52113  1.0000
  C   C948      1.0  0.80816  0.97621  0.80542  1.0000
  C   C949      1.0  0.58345  0.99481  0.57384  1.0000
  H   H1135     1.0  0.98381  0.81748  0.89843  1.0000
  H   H1136     1.0  0.79161  0.95555  0.87764  1.0000
  C   C950      1.0  0.56175  0.97883  0.57212  1.0000
  C   C951      1.0  0.69103  0.97675  0.67756  1.0000
  N   N64       1.0  0.99217  0.76374  0.89159  1.0000
  H   H1137     1.0  0.66031  0.96697  0.56469  1.0000
  H   H1138     1.0  0.91046  0.75586  0.97903  1.0000
  H   H1139     1.0  0.95083  0.75664  0.89257  1.0000
  H   H1140     1.0  0.99134  0.79251  0.80472  1.0000
  C   C952      1.0  0.99203  0.77354  0.91897  1.0000
  C   C953      1.0  0.79503  0.86381  0.97547  1.0000
  H   H1141     1.0  0.99461  0.75770  0.93346  1.0000
  H   H1142     1.0  0.95717  0.76724  0.98357  1.0000
  H   H1143     1.0  0.81228  0.87454  0.96942  1.0000
  H   H1144     1.0  0.65104  0.98243  0.69122  1.0000
  H   H1145     1.0  0.76971  0.97102  0.84211  1.0000
  C   C954      1.0  0.70292  0.83500  0.99465  1.0000
  C   C955      1.0  0.79345  0.83774  0.96931  1.0000
  H   H1146     1.0  0.99479  0.75874  0.83780  1.0000
  Fe  Fe127     1.0  0.66788  0.99215  0.51652  1.0000
  H   H1147     1.0  0.98106  0.97133  0.99122  1.0000
  H   H1148     1.0  0.80504  0.99472  0.81625  1.0000
  H   H1149     1.0  0.93087  0.99027  0.78485  1.0000
  H   H1150     1.0  0.64752  0.70059  0.99497  1.0000
  H   H1151     1.0  0.77184  0.80349  0.97255  1.0000
  C   C956      1.0  0.77156  0.82367  0.97774  1.0000
  Fe  Fe128     1.0  0.82244  0.99550  0.97679  1.0000
  C   C957      1.0  0.75058  0.83544  0.99295  1.0000
  C   C958      1.0  0.72619  0.79452  0.99184  1.0000
  C   C959      1.0  0.77493  0.87585  0.99044  1.0000
  S   S256      1.0  0.99715  0.98255  0.84050  1.0000
  H   H1152     1.0  0.77671  0.89594  0.99592  1.0000
  C   C960      1.0  0.91680  0.76299  0.99758  1.0000
