data_image0
_chemical_formula_structural       FeS2FeS2FeSFeS3CSFeSHFeSFeSCSFeSC2SH2C2H2C6H4C6H4CHC4H2CHC3H2C2H3CH5C3H10NC4H2NC4SCH5CH3SHCH2CHNHC3HC2H2NHCH4CNHCHC2HC3H2CSC3H6CH5C2HCHSFeH6CFeHCH2FeS2FeS2FeSFeS3CSFeSCFeSFeS2HFeSC2SH6C6H4C6H4C2HCHCHCHC3H3C3H2NC5HCH4NH3CH2C2NSC4HNC6SCH10CH3CHSNHC2HFeCHCHC4H5CH2CH6CH4CFeSH4CH4C2H2C2H2C2HCFeSH2SFeSH2SHSHC2HC4H3C6H4SHCH3C2H5SHSCHCFeC2HSHC2H2C2NC2H4C3H4NCHCH2Fe2CNCNCH3CH5SC4HC4H2CH4CHCH3C2HC3HCFeCHCHCFeSH2SFeSH2SH2NC6H2SHC6H5CH3CSH4FeHC4NC7H5CHCSH4C2H2CH4CHCHC3HCHS2HC2HFeC4FeSCSCHFeSFeSFeS2FeSFeS3FeS2FeS2FeSFeS3C2HC2H5C6H4C2H4C2H2C6H6CH2CH3CHC2H4C2HC2H8C2HCH2CHNHCHC2HCHCH12NCH2C4HCHCH2CNCH2C2H2CHC3HCHC3HC2HCSHFe2SFeSFeSCFeSFeS2CFeS2FeS2FeSFeS3C2HCH2CH3C6H4CH2CHCH4C6H4CHSC2NH2CH2SCH2C2HSC3HCH3CSC5HCH2C3NCH2CHCHC3HCH3S2HC2HCH4NHCH3NHCHFeSH3CHCH3CH6FeS2FeS2FeSFeS3FeS2FeCSFeC2S2CSHSFeSHCH5C2H2NC6H4CHCH3NHCH2CHC8H6C2H4CHCHCHC4FeCH2CH9CHCH2CHC3HC6HC5HCH2CH5C5HNHCH2CH2SH2CNHSH4CH6CSCHC3HC3HFeHFeS2FeS2FeSFeS3FeS2FeS2FeCFeS2HSHCFeSHC3HCH2CH3C6H5C3HC4H6C6H4NC9H14NHSC2H2CFeHC3H5CHCHSCNHSHC2HC5HCH4CHCHCH2C2NCHCHC2H3C3H2CH4SH2FeSHCSH2FeS2C7H4C6H5CH5CH2NC3HC2SCH2C3H2CH2CSCH3C2H2CHSHCHCS2H2FeSH2SH2FeSHSC6H4C6H4SC2H3SH2C2HCHC3H2NC2H4CH3CNCHC2SCH3C3H3FeHC2H3CHCNHCHNHCH2C3H2CH4CH5CH2SHFeSHCSCFeSFeS2FeSFeS3FeS2FeS2FeSFeS3C3H2C3HC2HC3H2CH2C6H4C6H5CHNH3C6H2CHCHCH2C3HC2H2C2HCHC2HN2HCHCNH2CHCH3CHCHCH2CH3NH4SNC4HC2SH11C2H2NC3HCH5CH2C2H2CH2C2HCHCH4CHC2HSCHCH2CHCHFeH2CHSFeHCHSFeSCHSC2SFeSHFeSFeSH2FeS2FeS2FeSFeS3C3H5C4HC2H2CH2C6H4C6H4CHFeNC9H11SHSHNH2C3HCHCHC2H4CH2NC5SHNC2H2CH7CHCHCH4NC10HCH12CH4CH3CH3CHCH2CHC
_chemical_formula_sum              "Fe96 S192 C720 H864 N48"
_cell_length_a       32.9794
_cell_length_b       66.0775
_cell_length_c       46.7069
_cell_angle_alpha    90.4753
_cell_angle_beta     90.5098
_cell_angle_gamma    90.3028

_space_group_name_H-M_alt    "P 1"
_space_group_IT_number       1

loop_
  _space_group_symop_operation_xyz
  'x, y, z'

loop_
  _atom_site_type_symbol
  _atom_site_label
  _atom_site_symmetry_multiplicity
  _atom_site_fract_x
  _atom_site_fract_y
  _atom_site_fract_z
  _atom_site_occupancy
  Fe  Fe1       1.0  0.14247  0.18554  0.12992  1.0000
  S   S1        1.0  0.16290  0.21675  0.14353  1.0000
  S   S2        1.0  0.07919  0.17104  0.13250  1.0000
  Fe  Fe2       1.0  0.22901  0.17294  0.11209  1.0000
  S   S3        1.0  0.25517  0.20348  0.12330  1.0000
  S   S4        1.0  0.26742  0.14847  0.09074  1.0000
  Fe  Fe3       1.0  0.21748  0.20161  0.16316  1.0000
  S   S5        1.0  0.25196  0.20623  0.20524  1.0000
  Fe  Fe4       1.0  0.19935  0.21630  0.10264  1.0000
  S   S6        1.0  0.19950  0.24446  0.07495  1.0000
  S   S7        1.0  0.19445  0.17018  0.15292  1.0000
  S   S8        1.0  0.17570  0.18603  0.08795  1.0000
  C   C1        1.0  0.21317  0.23199  0.47840  1.0000
  S   S9        1.0  0.23352  0.29011  0.37018  1.0000
  Fe  Fe5       1.0  0.35126  0.28809  0.38009  1.0000
  S   S10       1.0  0.31352  0.26147  0.36418  1.0000
  H   H1        1.0  0.47635  0.11285  0.16618  1.0000
  Fe  Fe6       1.0  0.28071  0.28406  0.33681  1.0000
  S   S11       1.0  0.25682  0.28179  0.29082  1.0000
  Fe  Fe7       1.0  0.26977  0.26992  0.39903  1.0000
  S   S12       1.0  0.23629  0.24673  0.42611  1.0000
  C   C2        1.0  0.34674  0.23657  0.48287  1.0000
  S   S13       1.0  0.30852  0.29507  0.41648  1.0000
  Fe  Fe8       1.0  0.43644  0.06627  0.13069  1.0000
  S   S14       1.0  0.37605  0.07897  0.14634  1.0000
  C   C3        1.0  0.34956  0.16923  0.14064  1.0000
  C   C4        1.0  0.30255  0.30089  0.20979  1.0000
  S   S15       1.0  0.44841  0.03338  0.12039  1.0000
  H   H2        1.0  0.15556  0.04859  0.08575  1.0000
  H   H3        1.0  0.21981  0.11325  0.11622  1.0000
  C   C5        1.0  0.20468  0.09940  0.10971  1.0000
  C   C6        1.0  0.27387  0.23268  0.00764  1.0000
  H   H4        1.0  0.19586  0.22097  0.46606  1.0000
  H   H5        1.0  0.31557  0.18517  0.17274  1.0000
  C   C7        1.0  0.29925  0.13016  0.10716  1.0000
  C   C8        1.0  0.32635  0.11913  0.09003  1.0000
  C   C9        1.0  0.35099  0.10388  0.10184  1.0000
  C   C10       1.0  0.34829  0.09922  0.13092  1.0000
  C   C11       1.0  0.32127  0.11028  0.14810  1.0000
  C   C12       1.0  0.29720  0.12581  0.13639  1.0000
  H   H6        1.0  0.32802  0.12228  0.06737  1.0000
  H   H7        1.0  0.37123  0.09536  0.08826  1.0000
  H   H8        1.0  0.31882  0.10680  0.17061  1.0000
  H   H9        1.0  0.27662  0.13418  0.14990  1.0000
  C   C13       1.0  0.24936  0.22644  0.23047  1.0000
  C   C14       1.0  0.22405  0.24309  0.22636  1.0000
  C   C15       1.0  0.22608  0.25973  0.24540  1.0000
  C   C16       1.0  0.25231  0.25961  0.26933  1.0000
  C   C17       1.0  0.27619  0.24253  0.27423  1.0000
  C   C18       1.0  0.27496  0.22612  0.25473  1.0000
  H   H10       1.0  0.20315  0.24322  0.20846  1.0000
  H   H11       1.0  0.20735  0.27284  0.24156  1.0000
  H   H12       1.0  0.29653  0.24226  0.29252  1.0000
  H   H13       1.0  0.29438  0.21323  0.25828  1.0000
  C   C19       1.0  0.23620  0.24668  0.46409  1.0000
  H   H14       1.0  0.22748  0.29498  0.13887  1.0000
  C   C20       1.0  0.25311  0.23090  0.03373  1.0000
  C   C21       1.0  0.22612  0.24598  0.04228  1.0000
  C   C22       1.0  0.22010  0.26282  0.02455  1.0000
  C   C23       1.0  0.13022  0.31523  0.43328  1.0000
  H   H15       1.0  0.29926  0.20707  0.43315  1.0000
  H   H16       1.0  0.25801  0.21787  0.04718  1.0000
  C   C24       1.0  0.14316  0.12247  0.14413  1.0000
  H   H17       1.0  0.27618  0.27227  0.46954  1.0000
  C   C25       1.0  0.34250  0.17638  0.16825  1.0000
  C   C26       1.0  0.46736  0.28993  0.38369  1.0000
  C   C27       1.0  0.32326  0.26633  0.21645  1.0000
  H   H18       1.0  0.32793  0.17248  0.12367  1.0000
  H   H19       1.0  0.27694  0.29710  0.12231  1.0000
  C   C28       1.0  0.16178  0.09842  0.10727  1.0000
  C   C29       1.0  0.03081  0.18306  0.13116  1.0000
  H   H20       1.0  0.19928  0.27456  0.03102  1.0000
  H   H21       1.0  0.05355  0.21337  0.12616  1.0000
  H   H22       1.0  0.18833  0.18602  0.00703  1.0000
  C   C30       1.0  0.25187  0.28651  0.12774  1.0000
  H   H23       1.0  0.27153  0.30793  0.17142  1.0000
  H   H24       1.0  0.07545  0.12752  0.11384  1.0000
  H   H25       1.0  0.47973  0.12349  0.11832  1.0000
  H   H26       1.0  0.30007  0.31619  0.21816  1.0000
  H   H27       1.0  0.20410  0.32260  0.45488  1.0000
  C   C31       1.0  0.14459  0.07953  0.09856  1.0000
  C   C32       1.0  0.38367  0.15743  0.13481  1.0000
  C   C33       1.0  0.39707  0.02414  0.26741  1.0000
  H   H28       1.0  0.38437  0.99198  0.21025  1.0000
  H   H29       1.0  0.35869  0.05764  0.24231  1.0000
  H   H30       1.0  0.44301  0.03422  0.20181  1.0000
  H   H31       1.0  0.40689  0.04252  0.17545  1.0000
  H   H32       1.0  0.13408  0.11005  0.15872  1.0000
  H   H33       1.0  0.08039  0.10157  0.12318  1.0000
  H   H34       1.0  0.30661  0.24517  0.18401  1.0000
  H   H35       1.0  0.26174  0.08399  0.10542  1.0000
  H   H36       1.0  0.16430  0.27926  0.41359  1.0000
  H   H37       1.0  0.49677  0.26647  0.40789  1.0000
  N   N1        1.0  0.13708  0.11652  0.11369  1.0000
  C   C34       1.0  0.45186  0.13268  0.12151  1.0000
  C   C35       1.0  0.33252  0.22998  0.45622  1.0000
  C   C36       1.0  0.40444  0.16051  0.18454  1.0000
  C   C37       1.0  0.32092  0.28615  0.22655  1.0000
  H   H38       1.0  0.14908  0.12905  0.07217  1.0000
  H   H39       1.0  0.23809  0.28116  0.10706  1.0000
  N   N2        1.0  0.38114  0.03343  0.21559  1.0000
  C   C38       1.0  0.15135  0.28019  0.43548  1.0000
  C   C39       1.0  0.41206  0.03148  0.19294  1.0000
  C   C40       1.0  0.34056  0.02963  0.20261  1.0000
  C   C41       1.0  0.38915  0.01848  0.23841  1.0000
  S   S16       1.0  0.48379  0.06749  0.16563  1.0000
  C   C42       1.0  0.38218  0.05479  0.22583  1.0000
  H   H40       1.0  0.12494  0.13606  0.14988  1.0000
  H   H41       1.0  0.39837  0.03971  0.27450  1.0000
  H   H42       1.0  0.44109  0.00311  0.04296  1.0000
  H   H43       1.0  0.20987  0.30699  0.42398  1.0000
  H   H44       1.0  0.28836  0.18585  0.47502  1.0000
  C   C43       1.0  0.13448  0.31792  0.40334  1.0000
  H   H45       1.0  0.16734  0.26838  0.44802  1.0000
  H   H46       1.0  0.33206  0.28994  0.24788  1.0000
  H   H47       1.0  0.37623  0.06559  0.20804  1.0000
  S   S17       1.0  0.41783  0.28003  0.39053  1.0000
  H   H48       1.0  0.33307  0.04110  0.18599  1.0000
  C   C44       1.0  0.45889  0.00073  0.02393  1.0000
  H   H49       1.0  0.17528  0.12637  0.14915  1.0000
  H   H50       1.0  0.24069  0.24226  0.16308  1.0000
  C   C45       1.0  0.02673  0.20398  0.12785  1.0000
  H   H51       1.0  0.21393  0.25209  0.13281  1.0000
  N   N3        1.0  0.15627  0.30060  0.44864  1.0000
  H   H52       1.0  0.31650  0.03016  0.21917  1.0000
  C   C46       1.0  0.31151  0.21171  0.45384  1.0000
  C   C47       1.0  0.41224  0.15268  0.15671  1.0000
  C   C48       1.0  0.19929  0.30695  0.44642  1.0000
  H   H53       1.0  0.33630  0.25478  0.23002  1.0000
  C   C49       1.0  0.36993  0.17207  0.19016  1.0000
  C   C50       1.0  0.23152  0.25649  0.15227  1.0000
  H   H54       1.0  0.28046  0.25324  0.10592  1.0000
  H   H55       1.0  0.44820  0.31527  0.35846  1.0000
  N   N4        1.0  0.26687  0.26933  0.14517  1.0000
  H   H56       1.0  0.11884  0.27571  0.43397  1.0000
  C   C51       1.0  0.29485  0.25745  0.12689  1.0000
  H   H57       1.0  0.42495  0.15772  0.20221  1.0000
  H   H58       1.0  0.41257  0.05891  0.23481  1.0000
  H   H59       1.0  0.32296  0.26620  0.12240  1.0000
  H   H60       1.0  0.42576  0.12258  0.11603  1.0000
  C   C52       1.0  0.38941  0.99745  0.23185  1.0000
  N   N5        1.0  0.44908  0.14051  0.15136  1.0000
  H   H61       1.0  0.21045  0.26460  0.16686  1.0000
  C   C53       1.0  0.30639  0.26103  0.18985  1.0000
  H   H62       1.0  0.30384  0.24290  0.13676  1.0000
  C   C54       1.0  0.21126  0.06443  0.09496  1.0000
  C   C55       1.0  0.47388  0.30730  0.36737  1.0000
  H   H63       1.0  0.13025  0.14695  0.09787  1.0000
  C   C56       1.0  0.22896  0.08269  0.10359  1.0000
  C   C57       1.0  0.15003  0.13349  0.09520  1.0000
  C   C58       1.0  0.30502  0.19983  0.47804  1.0000
  H   H64       1.0  0.18136  0.13878  0.10017  1.0000
  H   H65       1.0  0.41235  0.01624  0.18274  1.0000
  C   C59       1.0  0.28605  0.29584  0.18293  1.0000
  S   S18       1.0  0.32064  0.31048  0.35052  1.0000
  C   C60       1.0  0.28730  0.27564  0.17220  1.0000
  C   C61       1.0  0.09283  0.11346  0.10894  1.0000
  C   C62       1.0  0.25807  0.26098  0.48023  1.0000
  H   H66       1.0  0.21997  0.29661  0.45817  1.0000
  H   H67       1.0  0.42190  0.11341  0.16784  1.0000
  H   H68       1.0  0.36416  0.17772  0.21162  1.0000
  H   H69       1.0  0.41234  0.01409  0.31008  1.0000
  H   H70       1.0  0.45243  0.12710  0.19356  1.0000
  H   H71       1.0  0.33859  0.01463  0.19175  1.0000
  C   C63       1.0  0.48565  0.15311  0.15712  1.0000
  H   H72       1.0  0.23023  0.05153  0.09009  1.0000
  H   H73       1.0  0.45337  0.14516  0.10572  1.0000
  H   H74       1.0  0.08587  0.10946  0.08623  1.0000
  H   H75       1.0  0.15731  0.30985  0.39142  1.0000
  H   H76       1.0  0.33665  0.23936  0.43748  1.0000
  C   C64       1.0  0.40478  0.00956  0.28828  1.0000
  C   C65       1.0  0.16919  0.06285  0.09250  1.0000
  H   H77       1.0  0.38646  0.15201  0.11305  1.0000
  C   C66       1.0  0.44986  0.12277  0.17061  1.0000
  H   H78       1.0  0.11230  0.07727  0.09616  1.0000
  S   S19       1.0  0.47831  0.07760  0.09660  1.0000
  Fe  Fe9       1.0  0.27448  0.31512  0.38554  1.0000
  H   H79       1.0  0.48846  0.99918  0.08389  1.0000
  H   H80       1.0  0.36215  0.25108  0.48461  1.0000
  H   H81       1.0  0.15212  0.31339  0.49116  1.0000
  H   H82       1.0  0.15487  0.21882  0.01587  1.0000
  H   H83       1.0  0.48788  0.15810  0.17986  1.0000
  H   H84       1.0  0.49357  0.99440  0.12159  1.0000
  C   C67       1.0  0.14697  0.29879  0.47960  1.0000
  Fe  Fe10      1.0  0.49448  0.04466  0.08886  1.0000
  H   H85       1.0  0.11521  0.29362  0.48291  1.0000
  C   C68       1.0  0.49353  0.01260  0.01937  1.0000
  H   H86       1.0  0.48571  0.16689  0.14357  1.0000
  H   H87       1.0  0.16701  0.28751  0.49028  1.0000
  Fe  Fe11      1.0  0.15568  0.19807  0.63139  1.0000
  S   S20       1.0  0.18086  0.22986  0.63403  1.0000
  S   S21       1.0  0.08972  0.19470  0.64640  1.0000
  Fe  Fe12      1.0  0.24008  0.17990  0.61945  1.0000
  S   S22       1.0  0.26897  0.21061  0.62195  1.0000
  S   S23       1.0  0.28558  0.15621  0.60349  1.0000
  Fe  Fe13      1.0  0.23084  0.21652  0.66061  1.0000
  S   S24       1.0  0.26314  0.23443  0.69622  1.0000
  Fe  Fe14      1.0  0.21706  0.22149  0.59510  1.0000
  S   S25       1.0  0.23664  0.24520  0.56270  1.0000
  S   S26       1.0  0.20491  0.18497  0.66021  1.0000
  S   S27       1.0  0.18895  0.19049  0.59041  1.0000
  C   C69       1.0  0.10049  0.25385  0.76061  1.0000
  S   S28       1.0  0.22054  0.27676  0.90005  1.0000
  Fe  Fe15      1.0  0.32366  0.29910  0.87654  1.0000
  S   S29       1.0  0.31292  0.26562  0.87964  1.0000
  C   C70       1.0  0.15895  0.26360  0.73275  1.0000
  Fe  Fe16      1.0  0.25292  0.27151  0.85831  1.0000
  S   S30       1.0  0.22432  0.24759  0.82874  1.0000
  Fe  Fe17      1.0  0.28133  0.27286  0.92105  1.0000
  S   S31       1.0  0.29420  0.25075  0.95707  1.0000
  S   S32       1.0  0.26524  0.30474  0.85186  1.0000
  H   H88       1.0  0.33133  0.21132  0.72083  1.0000
  Fe  Fe18      1.0  0.45033  0.07005  0.64183  1.0000
  S   S33       1.0  0.39771  0.08833  0.66080  1.0000
  C   C71       1.0  0.17260  0.27584  0.75544  1.0000
  C   C72       1.0  0.38149  0.02330  0.76610  1.0000
  S   S34       1.0  0.44973  0.03583  0.64099  1.0000
  H   H89       1.0  0.09804  0.26681  0.80317  1.0000
  H   H90       1.0  0.08470  0.26248  0.68574  1.0000
  H   H91       1.0  0.34665  0.18723  0.73360  1.0000
  H   H92       1.0  0.13611  0.25637  0.67695  1.0000
  H   H93       1.0  0.32421  0.19132  0.57628  1.0000
  H   H94       1.0  0.37122  0.17195  0.63713  1.0000
  C   C73       1.0  0.31551  0.13702  0.61992  1.0000
  C   C74       1.0  0.34425  0.12667  0.60322  1.0000
  C   C75       1.0  0.36941  0.11168  0.61525  1.0000
  C   C76       1.0  0.36621  0.10683  0.64425  1.0000
  C   C77       1.0  0.33726  0.11707  0.66092  1.0000
  C   C78       1.0  0.31200  0.13203  0.64886  1.0000
  H   H95       1.0  0.34708  0.13023  0.58077  1.0000
  H   H96       1.0  0.39128  0.10387  0.60209  1.0000
  H   H97       1.0  0.33428  0.11337  0.68331  1.0000
  H   H98       1.0  0.28955  0.13949  0.66186  1.0000
  C   C79       1.0  0.25308  0.23726  0.73334  1.0000
  C   C80       1.0  0.22817  0.22378  0.74807  1.0000
  C   C81       1.0  0.21978  0.22711  0.77728  1.0000
  C   C82       1.0  0.23711  0.24362  0.79228  1.0000
  C   C83       1.0  0.26342  0.25660  0.77785  1.0000
  C   C84       1.0  0.27125  0.25344  0.74851  1.0000
  H   H99       1.0  0.21564  0.21071  0.73705  1.0000
  H   H100      1.0  0.19977  0.21685  0.78835  1.0000
  H   H101      1.0  0.27719  0.26928  0.78915  1.0000
  H   H102      1.0  0.29108  0.26381  0.73745  1.0000
  C   C85       1.0  0.26757  0.24940  0.98975  1.0000
  C   C86       1.0  0.12248  0.25217  0.73463  1.0000
  H   H103      1.0  0.32908  0.16304  0.54503  1.0000
  C   C87       1.0  0.23506  0.24546  0.52470  1.0000
  H   H104      1.0  0.18097  0.19246  0.89549  1.0000
  C   C88       1.0  0.33190  0.17298  0.52593  1.0000
  H   H105      1.0  0.20105  0.28404  0.75375  1.0000
  C   C89       1.0  0.21126  0.20913  0.94339  1.0000
  H   H106      1.0  0.25138  0.23584  0.90799  1.0000
  C   C90       1.0  0.41830  0.15195  0.64941  1.0000
  C   C91       1.0  0.43700  0.29949  0.90120  1.0000
  C   C92       1.0  0.43123  0.30874  0.87465  1.0000
  H   H107      1.0  0.40849  0.17261  0.72681  1.0000
  H   H108      1.0  0.43270  0.02900  0.70463  1.0000
  H   H109      1.0  0.07138  0.21808  0.73442  1.0000
  C   C93       1.0  0.03471  0.19066  0.60058  1.0000
  C   C94       1.0  0.04056  0.19310  0.63013  1.0000
  C   C95       1.0  0.27585  0.19911  0.92317  1.0000
  H   H110      1.0  0.06071  0.18986  0.58667  1.0000
  H   H111      1.0  0.19423  0.22015  0.51925  1.0000
  N   N6        1.0  0.40970  0.05070  0.73476  1.0000
  C   C96       1.0  0.37336  0.06368  0.73775  1.0000
  C   C97       1.0  0.44531  0.06429  0.73114  1.0000
  C   C98       1.0  0.40537  0.03850  0.70813  1.0000
  C   C99       1.0  0.41324  0.03712  0.75973  1.0000
  C   C100      1.0  0.44770  0.03708  0.77829  1.0000
  H   H112      1.0  0.21292  0.17413  0.91252  1.0000
  C   C101      1.0  0.18864  0.19750  0.99057  1.0000
  H   H113      1.0  0.20505  0.22790  0.88997  1.0000
  H   H114      1.0  0.22331  0.17952  0.96202  1.0000
  H   H115      1.0  0.36474  0.17477  0.52120  1.0000
  H   H116      1.0  0.26286  0.17903  0.55314  1.0000
  N   N7        1.0  0.31262  0.19295  0.53079  1.0000
  H   H117      1.0  0.44993  0.07440  0.75005  1.0000
  H   H118      1.0  0.44156  0.07429  0.71220  1.0000
  H   H119      1.0  0.47357  0.05550  0.72741  1.0000
  C   C102      1.0  0.32969  0.20153  0.55784  1.0000
  H   H120      1.0  0.40148  0.04835  0.68907  1.0000
  H   H121      1.0  0.04547  0.23931  0.71806  1.0000
  C   C103      1.0  0.16954  0.21592  0.99555  1.0000
  C   C104      1.0  0.20894  0.19403  0.96482  1.0000
  N   N8        1.0  0.23350  0.20515  0.91648  1.0000
  S   S35       1.0  0.48244  0.07204  0.59982  1.0000
  C   C105      1.0  0.19106  0.22769  0.94907  1.0000
  C   C106      1.0  0.11470  0.26601  0.78329  1.0000
  C   C107      1.0  0.15077  0.27688  0.78076  1.0000
  C   C108      1.0  0.23562  0.22292  0.89726  1.0000
  H   H122      1.0  0.25347  0.20413  0.54092  1.0000
  N   N9        1.0  0.35415  0.19115  0.68805  1.0000
  C   C109      1.0  0.36081  0.20857  0.66873  1.0000
  C   C110      1.0  0.31337  0.18244  0.68221  1.0000
  C   C111      1.0  0.35438  0.19918  0.71789  1.0000
  C   C112      1.0  0.38512  0.17542  0.68277  1.0000
  C   C113      1.0  0.41013  0.16741  0.70489  1.0000
  C   C114      1.0  0.39004  0.16715  0.65487  1.0000
  S   S36       1.0  0.38195  0.31390  0.86077  1.0000
  C   C115      1.0  0.17049  0.23089  0.97477  1.0000
  H   H123      1.0  0.35631  0.20450  0.64581  1.0000
  H   H124      1.0  0.33914  0.22110  0.67308  1.0000
  H   H125      1.0  0.39203  0.21484  0.67137  1.0000
  H   H126      1.0  0.30936  0.17772  0.65945  1.0000
  H   H127      1.0  0.28898  0.19352  0.68691  1.0000
  H   H128      1.0  0.30781  0.16883  0.69554  1.0000
  H   H129      1.0  0.38425  0.20605  0.72370  1.0000
  H   H130      1.0  0.37078  0.07467  0.71979  1.0000
  H   H131      1.0  0.31763  0.16451  0.50780  1.0000
  H   H132      1.0  0.17803  0.26267  0.71407  1.0000
  C   C116      1.0  0.48647  0.00580  0.52988  1.0000
  H   H133      1.0  0.13260  0.21130  0.69072  1.0000
  H   H134      1.0  0.07260  0.24569  0.76419  1.0000
  H   H135      1.0  0.15650  0.24541  0.97907  1.0000
  C   C117      1.0  0.43799  0.15200  0.69920  1.0000
  H   H136      1.0  0.27766  0.18436  0.93428  1.0000
  S   S37       1.0  0.29678  0.30597  0.91956  1.0000
  N   N10       1.0  0.11000  0.23843  0.71089  1.0000
  H   H137      1.0  0.47395  0.04653  0.77478  1.0000
  C   C118      1.0  0.38420  0.01019  0.78939  1.0000
  C   C119      1.0  0.10666  0.24983  0.68372  1.0000
  H   H138      1.0  0.01017  0.19563  0.67070  1.0000
  Fe  Fe19      1.0  0.23761  0.30962  0.89538  1.0000
  C   C120      1.0  0.26861  0.18970  0.53528  1.0000
  H   H139      1.0  0.46137  0.32228  0.83876  1.0000
  C   C121      1.0  0.46549  0.31501  0.85924  1.0000
  H   H140      1.0  0.31518  0.21627  0.56335  1.0000
  C   C122      1.0  0.07039  0.22817  0.71548  1.0000
  C   C123      1.0  0.14108  0.22250  0.70759  1.0000
  C   C124      1.0  0.24054  0.26449  0.99830  1.0000
  C   C125      1.0  0.00620  0.19395  0.64781  1.0000
  H   H141      1.0  0.17101  0.22881  0.70138  1.0000
  H   H142      1.0  0.37454  0.07247  0.75816  1.0000
  H   H143      1.0  0.27494  0.27135  0.52262  1.0000
  H   H144      1.0  0.09625  0.23987  0.66564  1.0000
  H   H145      1.0  0.46291  0.13199  0.66728  1.0000
  C   C126      1.0  0.44193  0.14423  0.67156  1.0000
  H   H146      1.0  0.25296  0.21967  0.87738  1.0000
  H   H147      1.0  0.45645  0.14587  0.71635  1.0000
  C   C127      1.0  0.21241  0.23141  0.50855  1.0000
  H   H148      1.0  0.14521  0.21401  0.72786  1.0000
  H   H149      1.0  0.19166  0.24023  0.93444  1.0000
  H   H150      1.0  0.29101  0.21060  0.93726  1.0000
  H   H151      1.0  0.41099  0.29469  0.91342  1.0000
  H   H152      1.0  0.37864  0.02824  0.70831  1.0000
  H   H153      1.0  0.29449  0.19768  0.90350  1.0000
  C   C128      1.0  0.47652  0.29696  0.91241  1.0000
  H   H154      1.0  0.36307  0.20377  0.55647  1.0000
  H   H155      1.0  0.06183  0.21826  0.69689  1.0000
  H   H156      1.0  0.23551  0.27745  0.98474  1.0000
  H   H157      1.0  0.22837  0.18541  0.87962  1.0000
  C   C129      1.0  0.21310  0.18852  0.90037  1.0000
  Fe  Fe20      1.0  0.48654  0.03792  0.60025  1.0000
  S   S38       1.0  0.46736  0.02182  0.55792  1.0000
  H   H158      1.0  0.42108  0.14564  0.62802  1.0000
  H   H159      1.0  0.35096  0.23130  0.52729  1.0000
  H   H160      1.0  0.16226  0.28584  0.79867  1.0000
  H   H161      1.0  0.48049  0.29023  0.93327  1.0000
  C   C130      1.0  0.25743  0.26037  0.51035  1.0000
  H   H162      1.0  0.34473  0.05474  0.73739  1.0000
  H   H163      1.0  0.35454  0.02228  0.75284  1.0000
  H   H164      1.0  0.45697  0.99444  0.70786  1.0000
  H   H165      1.0  0.42074  0.00005  0.82480  1.0000
  C   C131      1.0  0.47283  0.99331  0.72813  1.0000
  C   C132      1.0  0.44976  0.02411  0.80178  1.0000
  H   H166      1.0  0.47665  0.02395  0.81529  1.0000
  H   H167      1.0  0.36018  0.99934  0.79343  1.0000
  C   C133      1.0  0.41823  0.01063  0.80722  1.0000
  C   C134      1.0  0.46141  0.00136  0.50599  1.0000
  H   H168      1.0  0.25284  0.18333  0.51613  1.0000
  H   H169      1.0  0.43098  0.00740  0.50526  1.0000
  C   C135      1.0  0.31914  0.20605  0.50558  1.0000
  C   C136      1.0  0.34002  0.22495  0.50731  1.0000
  H   H170      1.0  0.29475  0.22096  0.00119  1.0000
  C   C137      1.0  0.11009  0.33145  0.38820  1.0000
  Fe  Fe21      1.0  0.05458  0.42006  0.36687  1.0000
  S   S39       1.0  0.10455  0.39865  0.35137  1.0000
  H   H171      1.0  0.23212  0.40200  0.36187  1.0000
  H   H172      1.0  0.11254  0.65308  0.10791  1.0000
  S   S40       1.0  0.06035  0.45405  0.36335  1.0000
  Fe  Fe22      1.0  0.04208  0.58481  0.12789  1.0000
  S   S41       1.0  0.07575  0.61460  0.11886  1.0000
  H   H173      1.0  0.28194  0.40944  0.44622  1.0000
  H   H174      1.0  0.08114  0.49710  0.02470  1.0000
  S   S42       1.0  0.06381  0.55292  0.13330  1.0000
  H   H175      1.0  0.09498  0.32630  0.46991  1.0000
  S   S43       1.0  0.24554  0.34383  0.40423  1.0000
  H   H176      1.0  0.03147  0.58990  0.03723  1.0000
  C   C138      1.0  0.12748  0.62256  0.12000  1.0000
  C   C139      1.0  0.13677  0.64283  0.11350  1.0000
  H   H177      1.0  0.05937  0.61079  0.02281  1.0000
  C   C140      1.0  0.20889  0.63705  0.12152  1.0000
  C   C141      1.0  0.19967  0.61672  0.12774  1.0000
  C   C142      1.0  0.15922  0.60951  0.12711  1.0000
  C   C143      1.0  0.23170  0.40947  0.38265  1.0000
  H   H178      1.0  0.28369  0.39335  0.39831  1.0000
  H   H179      1.0  0.22396  0.60651  0.13332  1.0000
  H   H180      1.0  0.15266  0.59392  0.13229  1.0000
  C   C144      1.0  0.14084  0.38204  0.36706  1.0000
  C   C145      1.0  0.16528  0.37028  0.34889  1.0000
  C   C146      1.0  0.19618  0.35781  0.36000  1.0000
  C   C147      1.0  0.20370  0.35728  0.38950  1.0000
  C   C148      1.0  0.17885  0.36877  0.40777  1.0000
  C   C149      1.0  0.14714  0.38078  0.39668  1.0000
  H   H181      1.0  0.16065  0.37101  0.32595  1.0000
  H   H182      1.0  0.21507  0.34913  0.34564  1.0000
  H   H183      1.0  0.18427  0.36844  0.43062  1.0000
  H   H184      1.0  0.12801  0.38920  0.41103  1.0000
  S   S44       1.0  0.26039  0.64542  0.12253  1.0000
  H   H185      1.0  0.11944  0.49422  0.15397  1.0000
  C   C150      1.0  0.02824  0.44949  0.21533  1.0000
  H   H186      1.0  0.40463  0.62026  0.04798  1.0000
  H   H187      1.0  0.09393  0.46074  0.13500  1.0000
  H   H188      1.0  0.10278  0.47636  0.24879  1.0000
  C   C151      1.0  0.06466  0.46862  0.13112  1.0000
  C   C152      1.0  0.04112  0.51262  0.25935  1.0000
  H   H189      1.0  0.04641  0.49551  0.29866  1.0000
  H   H190      1.0  0.06881  0.52109  0.26325  1.0000
  H   H191      1.0  0.11462  0.33355  0.36544  1.0000
  H   H192      1.0  0.05959  0.60672  0.06051  1.0000
  H   H193      1.0  0.08324  0.51279  0.16627  1.0000
  S   S45       1.0  0.05213  0.47486  0.44221  1.0000
  H   H194      1.0  0.05309  0.44920  0.25808  1.0000
  S   S46       1.0  0.04071  0.52058  0.06805  1.0000
  C   C153      1.0  0.38430  0.65214  0.10333  1.0000
  H   H195      1.0  0.10242  0.64051  0.17248  1.0000
  C   C154      1.0  0.05492  0.45578  0.23691  1.0000
  Fe  Fe23      1.0  0.02560  0.45532  0.40516  1.0000
  C   C155      1.0  0.02202  0.50821  0.03616  1.0000
  C   C156      1.0  0.25940  0.41351  0.43026  1.0000
  H   H196      1.0  0.06297  0.35372  0.39064  1.0000
  S   S47       1.0  0.03722  0.53433  0.20897  1.0000
  H   H197      1.0  0.15075  0.45555  0.38068  1.0000
  C   C157      1.0  0.13327  0.59826  0.03872  1.0000
  C   C158      1.0  0.15819  0.46152  0.40241  1.0000
  H   H198      1.0  0.17765  0.42536  0.37299  1.0000
  H   H199      1.0  0.08349  0.54394  0.02439  1.0000
  C   C159      1.0  0.19801  0.43225  0.41673  1.0000
  C   C160      1.0  0.05601  0.49738  0.49251  1.0000
  N   N11       1.0  0.40296  0.64637  0.07570  1.0000
  C   C161      1.0  0.20068  0.42301  0.38925  1.0000
  C   C162      1.0  0.16617  0.45515  0.45251  1.0000
  H   H200      1.0  0.13275  0.47189  0.40799  1.0000
  H   H201      1.0  0.09872  0.44145  0.42976  1.0000
  H   H202      1.0  0.11929  0.42594  0.40209  1.0000
  H   H203      1.0  0.22905  0.43329  0.45859  1.0000
  C   C163      1.0  0.44774  0.64735  0.07849  1.0000
  C   C164      1.0  0.12581  0.43257  0.42362  1.0000
  C   C165      1.0  0.17712  0.65006  0.11436  1.0000
  H   H204      1.0  0.35052  0.65232  0.10188  1.0000
  H   H205      1.0  0.16601  0.44389  0.47009  1.0000
  H   H206      1.0  0.00993  0.50460  0.16545  1.0000
  H   H207      1.0  0.12843  0.41986  0.43899  1.0000
  N   N12       1.0  0.16297  0.44523  0.42388  1.0000
  C   C166      1.0  0.39002  0.62544  0.06814  1.0000
  H   H208      1.0  0.04037  0.45693  0.12992  1.0000
  C   C167      1.0  0.22863  0.42721  0.43708  1.0000
  H   H209      1.0  0.18635  0.47078  0.40087  1.0000
  H   H210      1.0  0.16090  0.58902  0.03504  1.0000
  Fe  Fe24      1.0  0.01555  0.54336  0.10119  1.0000
  Fe  Fe25      1.0  0.01559  0.54937  0.16708  1.0000
  C   C168      1.0  0.09658  0.57167  0.06150  1.0000
  N   N13       1.0  0.05713  0.48401  0.15375  1.0000
  C   C169      1.0  0.08294  0.47110  0.23161  1.0000
  N   N14       1.0  0.09603  0.58556  0.03664  1.0000
  C   C170      1.0  0.06012  0.59882  0.03938  1.0000
  H   H211      1.0  0.05373  0.34981  0.44278  1.0000
  H   H212      1.0  0.13976  0.46525  0.45668  1.0000
  H   H213      1.0  0.19395  0.46472  0.45433  1.0000
  C   C171      1.0  0.04939  0.49745  0.01875  1.0000
  H   H214      1.0  0.12259  0.56104  0.06050  1.0000
  H   H215      1.0  0.08728  0.50709  0.12904  1.0000
  H   H216      1.0  0.00775  0.45327  0.17248  1.0000
  H   H217      1.0  0.06813  0.56264  0.06273  1.0000
  H   H218      1.0  0.09921  0.58009  0.08222  1.0000
  S   S48       1.0  0.02365  0.42124  0.40956  1.0000
  C   C172      1.0  0.26073  0.40454  0.40319  1.0000
  C   C173      1.0  0.02850  0.49806  0.27954  1.0000
  C   C174      1.0  0.05732  0.47434  0.18228  1.0000
  C   C175      1.0  0.08827  0.50017  0.15074  1.0000
  H   H219      1.0  0.45171  0.62492  0.11249  1.0000
  C   C176      1.0  0.10626  0.63683  0.21801  1.0000
  C   C177      1.0  0.09387  0.57487  0.00864  1.0000
  C   C178      1.0  0.01703  0.49331  0.14838  1.0000
  C   C179      1.0  0.03040  0.48952  0.47071  1.0000
  H   H220      1.0  0.13648  0.60557  0.06027  1.0000
  H   H221      1.0  0.08811  0.49421  0.49189  1.0000
  C   C180      1.0  0.08410  0.48042  0.20484  1.0000
  H   H222      1.0  0.35650  0.62436  0.06506  1.0000
  H   H223      1.0  0.13335  0.61089  0.02321  1.0000
  H   H224      1.0  0.01607  0.50119  0.12736  1.0000
  H   H225      1.0  0.10535  0.49279  0.20276  1.0000
  C   C181      1.0  0.08105  0.34286  0.40241  1.0000
  H   H226      1.0  0.11684  0.63615  0.26340  1.0000
  C   C182      1.0  0.02944  0.45851  0.18836  1.0000
  H   H227      1.0  0.39783  0.61443  0.08513  1.0000
  H   H228      1.0  0.39214  0.64160  0.12089  1.0000
  H   H229      1.0  0.06592  0.47562  0.10946  1.0000
  C   C183      1.0  0.10025  0.32711  0.44719  1.0000
  C   C184      1.0  0.01845  0.51628  0.23418  1.0000
  H   H230      1.0  0.00598  0.43784  0.21983  1.0000
  C   C185      1.0  0.11820  0.64500  0.19203  1.0000
  C   C186      1.0  0.07615  0.34071  0.43183  1.0000
  C   C187      1.0  0.12633  0.64255  0.24320  1.0000
  H   H231      1.0  0.08142  0.62602  0.21856  1.0000
  C   C188      1.0  0.08672  0.55366  0.00606  1.0000
  Fe  Fe26      1.0  0.99940  0.45335  0.34103  1.0000
  C   C189      1.0  0.46823  0.63502  0.09871  1.0000
  H   H232      1.0  0.24815  0.65558  0.20320  1.0000
  C   C190      1.0  0.15861  0.65639  0.24252  1.0000
  H   H233      1.0  0.39855  0.65636  0.03185  1.0000
  C   C191      1.0  0.10330  0.50409  0.78347  1.0000
  Fe  Fe27      1.0  0.04753  0.42946  0.87454  1.0000
  S   S49       1.0  0.10478  0.41178  0.86286  1.0000
  H   H234      1.0  0.26169  0.34690  0.87576  1.0000
  H   H235      1.0  0.32770  0.34832  0.92357  1.0000
  S   S50       1.0  0.04994  0.46314  0.88450  1.0000
  Fe  Fe28      1.0  0.06142  0.56720  0.62564  1.0000
  S   S51       1.0  0.12693  0.57777  0.63337  1.0000
  H   H236      1.0  0.23801  0.42120  0.84276  1.0000
  H   H237      1.0  0.05766  0.47881  0.98075  1.0000
  S   S52       1.0  0.04883  0.53388  0.61784  1.0000
  H   H238      1.0  0.29284  0.35895  0.84964  1.0000
  H   H239      1.0  0.11325  0.47913  0.75478  1.0000
  N   N15       1.0  0.12275  0.54178  0.70962  1.0000
  C   C192      1.0  0.14478  0.60307  0.62922  1.0000
  C   C193      1.0  0.18612  0.60752  0.63410  1.0000
  C   C194      1.0  0.20144  0.62738  0.63088  1.0000
  C   C195      1.0  0.17548  0.64305  0.62274  1.0000
  C   C196      1.0  0.13410  0.63862  0.61824  1.0000
  C   C197      1.0  0.11881  0.61879  0.62142  1.0000
  H   H240      1.0  0.20653  0.59548  0.64009  1.0000
  H   H241      1.0  0.23333  0.63051  0.63442  1.0000
  S   S53       1.0  0.01692  0.57654  0.59162  1.0000
  H   H242      1.0  0.08696  0.61566  0.61764  1.0000
  C   C198      1.0  0.12530  0.38864  0.87575  1.0000
  C   C199      1.0  0.15323  0.37806  0.85866  1.0000
  C   C200      1.0  0.17338  0.36075  0.86900  1.0000
  C   C201      1.0  0.16648  0.35405  0.89690  1.0000
  C   C202      1.0  0.13813  0.36447  0.91383  1.0000
  C   C203      1.0  0.11737  0.38154  0.90328  1.0000
  H   H243      1.0  0.15975  0.38347  0.83740  1.0000
  H   H244      1.0  0.19473  0.35289  0.85556  1.0000
  H   H245      1.0  0.13250  0.35944  0.93542  1.0000
  H   H246      1.0  0.09628  0.38957  0.91678  1.0000
  H   H247      1.0  0.18779  0.54069  0.71295  1.0000
  C   C204      1.0  0.09118  0.53659  0.68804  1.0000
  H   H248      1.0  0.27446  0.35174  0.92670  1.0000
  H   H249      1.0  0.09222  0.52052  0.68091  1.0000
  H   H250      1.0  0.06084  0.51536  0.53153  1.0000
  C   C205      1.0  0.10733  0.53750  0.76267  1.0000
  S   S54       1.0  0.00403  0.49407  0.81880  1.0000
  H   H251      1.0  0.19055  0.40722  0.92519  1.0000
  H   H252      1.0  0.28919  0.39485  0.84780  1.0000
  H   H253      1.0  0.18865  0.42754  0.88120  1.0000
  H   H254      1.0  0.12495  0.57286  0.69547  1.0000
  Fe  Fe29      1.0  0.00457  0.46623  0.84827  1.0000
  H   H255      1.0  0.12507  0.50031  0.71309  1.0000
  C   C206      1.0  0.11915  0.50775  0.73330  1.0000
  C   C207      1.0  0.11682  0.52918  0.73535  1.0000
  C   C208      1.0  0.24003  0.41267  0.86245  1.0000
  C   C209      1.0  0.10071  0.52503  0.78627  1.0000
  N   N16       1.0  0.30209  0.36940  0.89327  1.0000
  C   C210      1.0  0.30332  0.35989  0.92200  1.0000
  C   C211      1.0  0.29242  0.35333  0.87199  1.0000
  C   C212      1.0  0.34341  0.37734  0.88748  1.0000
  C   C213      1.0  0.27164  0.38572  0.89082  1.0000
  C   C214      1.0  0.24242  0.38969  0.91236  1.0000
  C   C215      1.0  0.26925  0.39757  0.86562  1.0000
  C   C216      1.0  0.21348  0.40490  0.90900  1.0000
  H   H256      1.0  0.08940  0.56819  0.72307  1.0000
  H   H257      1.0  0.34691  0.38246  0.86505  1.0000
  H   H258      1.0  0.24019  0.38078  0.93156  1.0000
  H   H259      1.0  0.31459  0.34070  0.87308  1.0000
  H   H260      1.0  0.09445  0.54588  0.66845  1.0000
  C   C217      1.0  0.21229  0.41636  0.88414  1.0000
  H   H261      1.0  0.30917  0.37131  0.93919  1.0000
  C   C218      1.0  0.00756  0.48628  0.73144  1.0000
  S   S55       1.0  0.01699  0.56999  0.66172  1.0000
  H   H262      1.0  0.14344  0.56903  0.73111  1.0000
  H   H263      1.0  0.06036  0.53921  0.69677  1.0000
  H   H264      1.0  0.35102  0.39027  0.90199  1.0000
  H   H265      1.0  0.09678  0.49450  0.80163  1.0000
  C   C219      1.0  0.11248  0.49546  0.75703  1.0000
  C   C220      1.0  0.03616  0.48705  0.99368  1.0000
  H   H266      1.0  0.09457  0.58508  0.93656  1.0000
  H   H267      1.0  0.16606  0.52202  0.68904  1.0000
  C   C221      1.0  0.16312  0.53782  0.69701  1.0000
  H   H268      1.0  0.10399  0.55355  0.76628  1.0000
  H   H269      1.0  0.36696  0.36544  0.89047  1.0000
  H   H270      1.0  0.09221  0.53155  0.80673  1.0000
  H   H271      1.0  0.16879  0.54769  0.67812  1.0000
  C   C222      1.0  0.12005  0.56390  0.71532  1.0000
  H   H272      1.0  0.07656  0.52811  0.97781  1.0000
  C   C223      1.0  0.04059  0.50942  0.51512  1.0000
  H   H273      1.0  0.11368  0.65059  0.61198  1.0000
  C   C224      1.0  0.09651  0.58591  0.98275  1.0000
  C   C225      1.0  0.08571  0.55552  0.95430  1.0000
  C   C226      1.0  0.08268  0.54425  0.97924  1.0000
  H   H274      1.0  0.10076  0.60214  0.98295  1.0000
  C   C227      1.0  0.09268  0.57631  0.95604  1.0000
  H   H275      1.0  0.08219  0.54813  0.93359  1.0000
  S   S56       1.0  0.00501  0.43321  0.83679  1.0000
  S   S57       1.0  0.19398  0.33368  0.91244  1.0000
  H   H276      1.0  0.01235  0.46702  0.76863  1.0000
  C   C228      1.0  0.00831  0.48229  0.76113  1.0000
  C   C229      1.0  0.00407  0.49811  0.78097  1.0000
  H   H277      1.0  0.01009  0.47386  0.71634  1.0000
  Fe  Fe30      1.0  0.00216  0.53715  0.65267  1.0000
  C   C230      1.0  0.00311  0.50613  0.72107  1.0000
  C   C231      1.0  0.99982  0.52201  0.74092  1.0000
  C   C232      1.0  0.99922  0.51404  0.51616  1.0000
  C   C233      1.0  0.00007  0.51798  0.77061  1.0000
  Fe  Fe31      1.0  0.00039  0.54347  0.58661  1.0000
  S   S58       1.0  0.99937  0.50992  0.68327  1.0000
  C   C234      1.0  0.10190  0.77441  0.48182  1.0000
  S   S59       1.0  0.45897  0.95641  0.38106  1.0000
  C   C235      1.0  0.31395  0.77847  0.04164  1.0000
  H   H278      1.0  0.22360  0.88037  0.38613  1.0000
  Fe  Fe32      1.0  0.46429  0.92283  0.37082  1.0000
  S   S60       1.0  0.41925  0.89825  0.35537  1.0000
  Fe  Fe33      1.0  0.28197  0.67838  0.12117  1.0000
  S   S61       1.0  0.24552  0.70528  0.13488  1.0000
  Fe  Fe34      1.0  0.35987  0.70422  0.11264  1.0000
  S   S62       1.0  0.32803  0.73285  0.12566  1.0000
  S   S63       1.0  0.42495  0.70708  0.09617  1.0000
  Fe  Fe35      1.0  0.30036  0.71457  0.16108  1.0000
  S   S64       1.0  0.30553  0.72000  0.20934  1.0000
  Fe  Fe36      1.0  0.27623  0.72122  0.09803  1.0000
  S   S65       1.0  0.23945  0.74184  0.06877  1.0000
  S   S66       1.0  0.33540  0.68655  0.14949  1.0000
  S   S67       1.0  0.30946  0.69365  0.08284  1.0000
  Fe  Fe37      1.0  0.24082  0.81597  0.38740  1.0000
  S   S68       1.0  0.26955  0.78719  0.37139  1.0000
  S   S69       1.0  0.27286  0.84474  0.40404  1.0000
  Fe  Fe38      1.0  0.15419  0.79638  0.38893  1.0000
  S   S70       1.0  0.17772  0.76650  0.37320  1.0000
  S   S71       1.0  0.09035  0.80051  0.40742  1.0000
  Fe  Fe39      1.0  0.23008  0.77156  0.40394  1.0000
  S   S72       1.0  0.25007  0.74577  0.43297  1.0000
  Fe  Fe40      1.0  0.21476  0.78461  0.34204  1.0000
  S   S73       1.0  0.21055  0.77953  0.29360  1.0000
  S   S74       1.0  0.20460  0.80026  0.42150  1.0000
  S   S75       1.0  0.18814  0.81455  0.35627  1.0000
  C   C236      1.0  0.24199  0.74280  0.03070  1.0000
  C   C237      1.0  0.10145  0.84850  0.32353  1.0000
  H   H279      1.0  0.32119  0.76854  0.05933  1.0000
  C   C238      1.0  0.25532  0.74777  0.47078  1.0000
  C   C239      1.0  0.26096  0.73011  0.48690  1.0000
  H   H280      1.0  0.25173  0.69461  0.24047  1.0000
  H   H281      1.0  0.05073  0.74554  0.46283  1.0000
  H   H282      1.0  0.25050  0.78022  0.47294  1.0000
  H   H283      1.0  0.26140  0.71556  0.47611  1.0000
  H   H284      1.0  0.41492  0.73149  0.18924  1.0000
  C   C240      1.0  0.27889  0.73683  0.23224  1.0000
  C   C241      1.0  0.28752  0.73663  0.26181  1.0000
  C   C242      1.0  0.26691  0.74952  0.28094  1.0000
  C   C243      1.0  0.23734  0.76278  0.27067  1.0000
  C   C244      1.0  0.22850  0.76285  0.24111  1.0000
  C   C245      1.0  0.24911  0.74996  0.22197  1.0000
  H   H285      1.0  0.31046  0.72651  0.26999  1.0000
  H   H286      1.0  0.27401  0.74930  0.30360  1.0000
  H   H287      1.0  0.20571  0.77307  0.23295  1.0000
  H   H288      1.0  0.24216  0.75034  0.19930  1.0000
  C   C246      1.0  0.03653  0.79817  0.36077  1.0000
  C   C247      1.0  0.04153  0.79932  0.39053  1.0000
  H   H289      1.0  0.23945  0.80994  0.02082  1.0000
  H   H290      1.0  0.06294  0.79736  0.34724  1.0000
  H   H291      1.0  0.04026  0.83697  0.32360  1.0000
  H   H292      1.0  0.19550  0.88475  0.35391  1.0000
  C   C248      1.0  0.47273  0.69990  0.11084  1.0000
  C   C249      1.0  0.47625  0.68688  0.13420  1.0000
  H   H293      1.0  0.22725  0.66861  0.17312  1.0000
  H   H294      1.0  0.44927  0.68133  0.14457  1.0000
  C   C250      1.0  0.37948  0.88321  0.36994  1.0000
  C   C251      1.0  0.36229  0.86763  0.35291  1.0000
  C   C252      1.0  0.33030  0.85544  0.36314  1.0000
  C   C253      1.0  0.31472  0.85883  0.39051  1.0000
  C   C254      1.0  0.33190  0.87441  0.40755  1.0000
  C   C255      1.0  0.36424  0.88644  0.39745  1.0000
  H   H295      1.0  0.37355  0.86505  0.33152  1.0000
  H   H296      1.0  0.31734  0.84363  0.34968  1.0000
  H   H297      1.0  0.32010  0.87722  0.42874  1.0000
  H   H298      1.0  0.37695  0.89837  0.41081  1.0000
  H   H299      1.0  0.25879  0.78873  0.06065  1.0000
  H   H300      1.0  0.14196  0.76748  0.43225  1.0000
  C   C256      1.0  0.14899  0.75748  0.45068  1.0000
  H   H301      1.0  0.14387  0.85545  0.42677  1.0000
  H   H302      1.0  0.47943  0.83568  0.35968  1.0000
  C   C257      1.0  0.12816  0.86153  0.36947  1.0000
  H   H303      1.0  0.12045  0.88914  0.41274  1.0000
  H   H304      1.0  0.17160  0.89811  0.41168  1.0000
  H   H305      1.0  0.45457  0.85533  0.34084  1.0000
  C   C258      1.0  0.13293  0.85723  0.33978  1.0000
  H   H306      1.0  0.19587  0.86306  0.42527  1.0000
  C   C259      1.0  0.14732  0.89053  0.39868  1.0000
  C   C260      1.0  0.49470  0.98722  0.09997  1.0000
  H   H307      1.0  0.20428  0.69131  0.25760  1.0000
  H   H308      1.0  0.08037  0.71586  0.48045  1.0000
  H   H309      1.0  0.07645  0.77271  0.49711  1.0000
  H   H310      1.0  0.18008  0.69691  0.18018  1.0000
  C   C261      1.0  0.38369  0.72142  0.47484  1.0000
  C   C262      1.0  0.17185  0.66486  0.21626  1.0000
  H   H311      1.0  0.42018  0.97670  0.00751  1.0000
  C   C263      1.0  0.25445  0.76648  0.48504  1.0000
  C   C264      1.0  0.21469  0.75523  0.01570  1.0000
  H   H312      1.0  0.18362  0.66569  0.10928  1.0000
  H   H313      1.0  0.08645  0.73359  0.43864  1.0000
  H   H314      1.0  0.21170  0.85949  0.36335  1.0000
  H   H315      1.0  0.09222  0.78533  0.46506  1.0000
  H   H316      1.0  0.16097  0.85997  0.32867  1.0000
  H   H317      1.0  0.48447  0.94768  0.07339  1.0000
  H   H318      1.0  0.37490  0.72554  0.42940  1.0000
  H   H319      1.0  0.46922  0.97621  0.09882  1.0000
  C   C265      1.0  0.05860  0.84822  0.36505  1.0000
  C   C266      1.0  0.08991  0.85680  0.38155  1.0000
  H   H320      1.0  0.39844  0.96709  0.24732  1.0000
  C   C267      1.0  0.27121  0.73213  0.01523  1.0000
  H   H321      1.0  0.12761  0.78182  0.49340  1.0000
  H   H322      1.0  0.07186  0.75924  0.43363  1.0000
  C   C268      1.0  0.12344  0.74012  0.49222  1.0000
  H   H323      1.0  0.08404  0.85936  0.40400  1.0000
  N   N17       1.0  0.11321  0.75456  0.46916  1.0000
  H   H324      1.0  0.02998  0.84422  0.37489  1.0000
  C   C269      1.0  0.48283  0.84608  0.34130  1.0000
  H   H325      1.0  0.39312  0.67619  0.05848  1.0000
  C   C270      1.0  0.37277  0.73239  0.45050  1.0000
  C   C271      1.0  0.23800  0.67066  0.19559  1.0000
  H   H326      1.0  0.45946  0.67105  0.04673  1.0000
  C   C272      1.0  0.06438  0.84405  0.33612  1.0000
  H   H327      1.0  0.10607  0.84482  0.30112  1.0000
  C   C273      1.0  0.47021  0.73470  0.16553  1.0000
  H   H328      1.0  0.45013  0.72778  0.23580  1.0000
  H   H329      1.0  0.41230  0.97794  0.29720  1.0000
  H   H330      1.0  0.48890  0.88333  0.32186  1.0000
  H   H331      1.0  0.39492  0.70625  0.47163  1.0000
  H   H332      1.0  0.19200  0.76357  0.02742  1.0000
  H   H333      1.0  0.17483  0.76465  0.46235  1.0000
  H   H334      1.0  0.26523  0.68069  0.19465  1.0000
  H   H335      1.0  0.13899  0.90083  0.38083  1.0000
  H   H336      1.0  0.49075  0.87957  0.37326  1.0000
  H   H337      1.0  0.48338  0.83680  0.32132  1.0000
  H   H338      1.0  0.48267  0.93311  0.02512  1.0000
  H   H339      1.0  0.17837  0.84188  0.40457  1.0000
  N   N18       1.0  0.16080  0.87063  0.38749  1.0000
  C   C274      1.0  0.46779  0.72993  0.21656  1.0000
  H   H340      1.0  0.23841  0.67004  0.25272  1.0000
  H   H341      1.0  0.29258  0.72263  0.02644  1.0000
  C   C275      1.0  0.19223  0.69867  0.20232  1.0000
  C   C276      1.0  0.19933  0.87398  0.37188  1.0000
  C   C277      1.0  0.16990  0.85726  0.41209  1.0000
  C   C278      1.0  0.35462  0.76082  0.48027  1.0000
  H   H342      1.0  0.34247  0.77598  0.48229  1.0000
  C   C279      1.0  0.35802  0.75200  0.45324  1.0000
  H   H343      1.0  0.34826  0.76025  0.43442  1.0000
  C   C280      1.0  0.07900  0.74780  0.45041  1.0000
  H   H344      1.0  0.21738  0.70996  0.20112  1.0000
  H   H345      1.0  0.16005  0.74280  0.44189  1.0000
  C   C281      1.0  0.44783  0.73204  0.19036  1.0000
  N   N19       1.0  0.20635  0.67923  0.21449  1.0000
  C   C282      1.0  0.26781  0.80199  0.01905  1.0000
  H   H346      1.0  0.45449  0.73607  0.14510  1.0000
  H   H347      1.0  0.16797  0.70549  0.21567  1.0000
  C   C283      1.0  0.22580  0.68387  0.24264  1.0000
  C   C284      1.0  0.27871  0.78995  0.04235  1.0000
  H   H348      1.0  0.36582  0.76986  0.01711  1.0000
  H   H349      1.0  0.39465  0.66749  0.11018  1.0000
  C   C285      1.0  0.33886  0.77916  0.01776  1.0000
  H   H350      1.0  0.15876  0.66456  0.17033  1.0000
  C   C286      1.0  0.15048  0.65878  0.19106  1.0000
  C   C287      1.0  0.38630  0.66001  0.05339  1.0000
  C   C288      1.0  0.39722  0.98303  0.25291  1.0000
  H   H351      1.0  0.00996  0.80128  0.43069  1.0000
  C   C289      1.0  0.00664  0.80035  0.40767  1.0000
  H   H352      1.0  0.17271  0.66014  0.26283  1.0000
  C   C290      1.0  0.44693  0.98578  0.00363  1.0000
  C   C291      1.0  0.10383  0.72101  0.49507  1.0000
  C   C292      1.0  0.47507  0.98911  0.48302  1.0000
  H   H353      1.0  0.35265  0.65883  0.05168  1.0000
  C   C293      1.0  0.40482  0.98908  0.28107  1.0000
  C   C294      1.0  0.47217  0.66053  0.06187  1.0000
  H   H354      1.0  0.45514  0.98583  0.46503  1.0000
  C   C295      1.0  0.37523  0.85115  0.78936  1.0000
  S   S76       1.0  0.42392  0.93954  0.87772  1.0000
  H   H355      1.0  0.21305  0.69404  0.80241  1.0000
  Fe  Fe41      1.0  0.47163  0.94682  0.91183  1.0000
  Fe  Fe42      1.0  0.44656  0.90741  0.87941  1.0000
  S   S77       1.0  0.41569  0.87607  0.87730  1.0000
  Fe  Fe43      1.0  0.25356  0.68509  0.62182  1.0000
  S   S78       1.0  0.24276  0.71761  0.63474  1.0000
  Fe  Fe44      1.0  0.34598  0.69307  0.61578  1.0000
  S   S79       1.0  0.33998  0.72575  0.62830  1.0000
  C   C296      1.0  0.45557  0.68643  0.61535  1.0000
  Fe  Fe45      1.0  0.29810  0.71450  0.66264  1.0000
  S   S80       1.0  0.30671  0.72253  0.70996  1.0000
  Fe  Fe46      1.0  0.28512  0.72566  0.59904  1.0000
  S   S81       1.0  0.27244  0.75191  0.56877  1.0000
  S   S82       1.0  0.30707  0.68148  0.65175  1.0000
  C   C297      1.0  0.32781  0.87169  0.81547  1.0000
  Fe  Fe47      1.0  0.20604  0.81222  0.88437  1.0000
  S   S83       1.0  0.24402  0.78622  0.86968  1.0000
  S   S84       1.0  0.23306  0.84398  0.89105  1.0000
  Fe  Fe48      1.0  0.12760  0.78577  0.88694  1.0000
  S   S85       1.0  0.16208  0.75804  0.87278  1.0000
  S   S86       1.0  0.06105  0.77935  0.89836  1.0000
  Fe  Fe49      1.0  0.21102  0.76854  0.90366  1.0000
  S   S87       1.0  0.24935  0.74805  0.93223  1.0000
  Fe  Fe50      1.0  0.19157  0.77826  0.84045  1.0000
  S   S88       1.0  0.19084  0.77324  0.79194  1.0000
  S   S89       1.0  0.17530  0.79502  0.91982  1.0000
  S   S90       1.0  0.15486  0.80558  0.85315  1.0000
  C   C298      1.0  0.26571  0.74982  0.53109  1.0000
  C   C299      1.0  0.19603  0.69073  0.75788  1.0000
  H   H356      1.0  0.25586  0.78934  0.94690  1.0000
  C   C300      1.0  0.24570  0.74633  0.97017  1.0000
  H   H357      1.0  0.15564  0.69187  0.66188  1.0000
  H   H358      1.0  0.35390  0.82260  0.77399  1.0000
  C   C301      1.0  0.29810  0.85664  0.81233  1.0000
  H   H359      1.0  0.19514  0.76655  0.97447  1.0000
  H   H360      1.0  0.29572  0.72559  0.97343  1.0000
  H   H361      1.0  0.26916  0.71738  0.52908  1.0000
  C   C302      1.0  0.27388  0.73657  0.73240  1.0000
  C   C303      1.0  0.28206  0.73747  0.76200  1.0000
  C   C304      1.0  0.25700  0.74857  0.78062  1.0000
  C   C305      1.0  0.22362  0.75903  0.76970  1.0000
  C   C306      1.0  0.21557  0.75824  0.74007  1.0000
  C   C307      1.0  0.24039  0.74696  0.72150  1.0000
  H   H362      1.0  0.30790  0.72943  0.77059  1.0000
  H   H363      1.0  0.26339  0.74893  0.80338  1.0000
  H   H364      1.0  0.18978  0.76628  0.73145  1.0000
  H   H365      1.0  0.23391  0.74651  0.69876  1.0000
  C   C308      1.0  0.46916  0.98239  0.97837  1.0000
  H   H366      1.0  0.37486  0.68796  0.50922  1.0000
  H   H367      1.0  0.44106  0.70345  0.54803  1.0000
  C   C309      1.0  0.37913  0.72965  0.50282  1.0000
  H   H368      1.0  0.03409  0.81327  0.86222  1.0000
  C   C310      1.0  0.16443  0.73165  0.53467  1.0000
  H   H369      1.0  0.32132  0.88539  0.82751  1.0000
  H   H370      1.0  0.26940  0.85966  0.82245  1.0000
  H   H371      1.0  0.12986  0.66701  0.71464  1.0000
  H   H372      1.0  0.22203  0.83934  0.80073  1.0000
  C   C311      1.0  0.36482  0.86750  0.88214  1.0000
  C   C312      1.0  0.35583  0.84678  0.87815  1.0000
  C   C313      1.0  0.31585  0.83929  0.88086  1.0000
  C   C314      1.0  0.28419  0.85248  0.88759  1.0000
  C   C315      1.0  0.29324  0.87314  0.89193  1.0000
  C   C316      1.0  0.33323  0.88062  0.88925  1.0000
  H   H373      1.0  0.37996  0.83648  0.87257  1.0000
  H   H374      1.0  0.30958  0.82337  0.87761  1.0000
  H   H375      1.0  0.26907  0.88349  0.89726  1.0000
  H   H376      1.0  0.33955  0.89657  0.89244  1.0000
  C   C317      1.0  0.49072  0.68063  0.60051  1.0000
  H   H377      1.0  0.30512  0.84052  0.94536  1.0000
  S   S91       1.0  0.29298  0.69359  0.58448  1.0000
  C   C318      1.0  0.17365  0.69855  0.73435  1.0000
  C   C319      1.0  0.29321  0.80274  0.80689  1.0000
  N   N20       1.0  0.28148  0.81507  0.96877  1.0000
  H   H378      1.0  0.43221  0.97050  0.74462  1.0000
  H   H379      1.0  0.23951  0.68002  0.71069  1.0000
  C   C320      1.0  0.14472  0.71307  0.53686  1.0000
  H   H380      1.0  0.23167  0.70442  0.69559  1.0000
  H   H381      1.0  0.36973  0.68899  0.54689  1.0000
  S   S92       1.0  0.49154  0.91420  0.91489  1.0000
  C   C321      1.0  0.27825  0.80166  0.94324  1.0000
  H   H382      1.0  0.17134  0.75892  0.51143  1.0000
  H   H383      1.0  0.16322  0.71527  0.68041  1.0000
  C   C322      1.0  0.37914  0.72752  0.55579  1.0000
  C   C323      1.0  0.11453  0.70775  0.51710  1.0000
  H   H384      1.0  0.48774  0.67313  0.57993  1.0000
  S   S93       1.0  0.49249  0.91290  0.84482  1.0000
  C   C324      1.0  0.14935  0.71587  0.73982  1.0000
  C   C325      1.0  0.45905  0.97953  0.74900  1.0000
  C   C326      1.0  0.27301  0.73391  0.98516  1.0000
  H   H385      1.0  0.48977  0.82747  0.91346  1.0000
  C   C327      1.0  0.15432  0.74493  0.51259  1.0000
  H   H386      1.0  0.38644  0.71785  0.57448  1.0000
  H   H387      1.0  0.11959  0.69933  0.68806  1.0000
  H   H388      1.0  0.26837  0.81011  0.92391  1.0000
  C   C328      1.0  0.24216  0.82579  0.97153  1.0000
  S   S94       1.0  0.45993  0.95965  0.80096  1.0000
  C   C329      1.0  0.19481  0.69989  0.78496  1.0000
  C   C330      1.0  0.01243  0.78853  0.88760  1.0000
  C   C331      1.0  0.17094  0.71691  0.78952  1.0000
  C   C332      1.0  0.21927  0.68876  0.69632  1.0000
  C   C333      1.0  0.32849  0.79127  0.99442  1.0000
  H   H389      1.0  0.17084  0.72438  0.81031  1.0000
  C   C334      1.0  0.36642  0.86885  0.80441  1.0000
  H   H390      1.0  0.40539  0.84900  0.78086  1.0000
  H   H391      1.0  0.38972  0.88027  0.80800  1.0000
  C   C335      1.0  0.30629  0.83821  0.79753  1.0000
  C   C336      1.0  0.36467  0.74987  0.50480  1.0000
  C   C337      1.0  0.25977  0.76748  0.51501  1.0000
  N   N21       1.0  0.17646  0.68889  0.70568  1.0000
  C   C338      1.0  0.34560  0.83609  0.78572  1.0000
  H   H392      1.0  0.21552  0.81305  0.80699  1.0000
  H   H393      1.0  0.29337  0.81297  0.75159  1.0000
  C   C339      1.0  0.47958  0.97724  0.77539  1.0000
  H   H394      1.0  0.24235  0.82803  0.83296  1.0000
  C   C340      1.0  0.15254  0.69939  0.68320  1.0000
  H   H395      1.0  0.25954  0.78204  0.52579  1.0000
  C   C341      1.0  0.29240  0.80292  0.99420  1.0000
  C   C342      1.0  0.14810  0.72479  0.76707  1.0000
  C   C343      1.0  0.26582  0.73110  0.51690  1.0000
  H   H396      1.0  0.43333  0.70044  0.65382  1.0000
  C   C344      1.0  0.46000  0.69595  0.64207  1.0000
  H   H397      1.0  0.27035  0.79028  0.80702  1.0000
  H   H398      1.0  0.39699  0.74169  0.55899  1.0000
  H   H399      1.0  0.31794  0.84039  0.98285  1.0000
  S   S95       1.0  0.40697  0.68101  0.59995  1.0000
  S   S96       1.0  0.45285  0.96274  0.95403  1.0000
  H   H400      1.0  0.30380  0.80530  0.82932  1.0000
  C   C345      1.0  0.23748  0.82578  0.80952  1.0000
  C   C346      1.0  0.21654  0.75703  0.98564  1.0000
  H   H401      1.0  0.18811  0.73570  0.55001  1.0000
  C   C347      1.0  0.26648  0.81790  0.76396  1.0000
  H   H402      1.0  0.30733  0.79428  0.93769  1.0000
  H   H403      1.0  0.24323  0.80567  0.76119  1.0000
  H   H404      1.0  0.31920  0.79682  0.79446  1.0000
  H   H405      1.0  0.18056  0.65823  0.72130  1.0000
  N   N22       1.0  0.27620  0.82157  0.79464  1.0000
  H   H406      1.0  0.13171  0.72315  0.72335  1.0000
  C   C348      1.0  0.31331  0.83054  0.96364  1.0000
  H   H407      1.0  0.25438  0.83181  0.75376  1.0000
  H   H408      1.0  0.33250  0.70091  0.52456  1.0000
  H   H409      1.0  0.16238  0.66020  0.68536  1.0000
  N   N23       1.0  0.38886  0.71729  0.52827  1.0000
  H   H410      1.0  0.21660  0.81492  0.97448  1.0000
  C   C349      1.0  0.00759  0.80542  0.87002  1.0000
  H   H411      1.0  0.23461  0.83459  0.95194  1.0000
  Fe  Fe51      1.0  0.47343  0.94563  0.84534  1.0000
  S   S97       1.0  0.19250  0.66844  0.61820  1.0000
  H   H412      1.0  0.35953  0.75742  0.52504  1.0000
  H   H413      1.0  0.15313  0.70271  0.55382  1.0000
  H   H414      1.0  0.13057  0.73842  0.77068  1.0000
  C   C350      1.0  0.36551  0.69802  0.52708  1.0000
  H   H415      1.0  0.22237  0.68188  0.67463  1.0000
  C   C351      1.0  0.43274  0.71254  0.52880  1.0000
  H   H416      1.0  0.24273  0.83682  0.98965  1.0000
  H   H417      1.0  0.34851  0.79110  0.97625  1.0000
  H   H418      1.0  0.34627  0.73109  0.55713  1.0000
  C   C352      1.0  0.16166  0.66768  0.70690  1.0000
  H   H419      1.0  0.09950  0.69317  0.51883  1.0000
  H   H420      1.0  0.44205  0.70355  0.50979  1.0000
  H   H421      1.0  0.21533  0.67769  0.75537  1.0000
  H   H422      1.0  0.34298  0.82366  0.95823  1.0000
  H   H423      1.0  0.45140  0.72662  0.52945  1.0000
  H   H424      1.0  0.49712  0.86456  0.91000  1.0000
  Fe  Fe52      1.0  0.83739  0.20330  0.13026  1.0000
  S   S98       1.0  0.79915  0.23146  0.12991  1.0000
  S   S99       1.0  0.90429  0.21319  0.12784  1.0000
  Fe  Fe53      1.0  0.76038  0.17675  0.12910  1.0000
  S   S100      1.0  0.71839  0.20329  0.12858  1.0000
  S   S101      1.0  0.73671  0.14432  0.12319  1.0000
  Fe  Fe54      1.0  0.76101  0.21627  0.09616  1.0000
  S   S102      1.0  0.73463  0.23560  0.06045  1.0000
  Fe  Fe55      1.0  0.75972  0.21662  0.16253  1.0000
  S   S103      1.0  0.73326  0.23897  0.19486  1.0000
  S   S104      1.0  0.80094  0.18897  0.09418  1.0000
  S   S105      1.0  0.79999  0.18915  0.16543  1.0000
  Fe  Fe56      1.0  0.72081  0.27105  0.35747  1.0000
  S   S106      1.0  0.70224  0.30086  0.33944  1.0000
  S   S107      1.0  0.72936  0.24219  0.33131  1.0000
  Fe  Fe57      1.0  0.72891  0.28852  0.41847  1.0000
  C   C353      1.0  0.86894  0.29520  0.31564  1.0000
  S   S108      1.0  0.75831  0.28449  0.46251  1.0000
  Fe  Fe58      1.0  0.66151  0.30296  0.37799  1.0000
  C   C354      1.0  0.60464  0.24466  0.29150  1.0000
  C   C355      1.0  0.65418  0.18645  0.06988  1.0000
  S   S109      1.0  0.67813  0.27217  0.39496  1.0000
  S   S110      1.0  0.77291  0.28451  0.38241  1.0000
  C   C356      1.0  0.84069  0.26501  0.06836  1.0000
  S   S111      1.0  0.54571  0.04549  0.12145  1.0000
  H   H425      1.0  0.82478  0.26682  0.33864  1.0000
  S   S112      1.0  0.59729  0.31451  0.36799  1.0000
  Fe  Fe59      1.0  0.52663  0.07761  0.13107  1.0000
  S   S113      1.0  0.55756  0.10836  0.13950  1.0000
  H   H426      1.0  0.56519  0.00013  0.12126  1.0000
  C   C357      1.0  0.60540  0.25311  0.24034  1.0000
  H   H427      1.0  0.63705  0.23248  0.21256  1.0000
  H   H428      1.0  0.82124  0.25540  0.01190  1.0000
  H   H429      1.0  0.57835  0.27164  0.27228  1.0000
  H   H430      1.0  0.84752  0.28134  0.06525  1.0000
  H   H431      1.0  0.60691  0.28226  0.31627  1.0000
  C   C358      1.0  0.54771  0.30453  0.37442  1.0000
  C   C359      1.0  0.54123  0.28707  0.39056  1.0000
  H   H432      1.0  0.77890  0.20950  0.01995  1.0000
  H   H433      1.0  0.53268  0.05764  0.48333  1.0000
  N   N24       1.0  0.87414  0.25213  0.05749  1.0000
  C   C360      1.0  0.68716  0.13441  0.12924  1.0000
  C   C361      1.0  0.65515  0.14665  0.13827  1.0000
  C   C362      1.0  0.61588  0.13836  0.14131  1.0000
  C   C363      1.0  0.60795  0.11777  0.13534  1.0000
  C   C364      1.0  0.63995  0.10553  0.12631  1.0000
  C   C365      1.0  0.67925  0.11382  0.12328  1.0000
  H   H434      1.0  0.66067  0.16248  0.14299  1.0000
  H   H435      1.0  0.59155  0.14800  0.14845  1.0000
  H   H436      1.0  0.63448  0.08967  0.12171  1.0000
  H   H437      1.0  0.70371  0.10421  0.11616  1.0000
  C   C366      1.0  0.95241  0.20094  0.12922  1.0000
  H   H438      1.0  0.89865  0.28786  0.31986  1.0000
  C   C367      1.0  0.95645  0.18000  0.13241  1.0000
  H   H439      1.0  0.51403  0.14462  0.15258  1.0000
  H   H440      1.0  0.92963  0.17063  0.13427  1.0000
  H   H441      1.0  0.83530  0.26262  0.09160  1.0000
  N   N25       1.0  0.59396  0.25027  0.32126  1.0000
  H   H442      1.0  0.80534  0.30667  0.28408  1.0000
  C   C368      1.0  0.74399  0.23688  0.02320  1.0000
  H   H443      1.0  0.56155  0.00654  0.08426  1.0000
  H   H444      1.0  0.61003  0.27344  0.35204  1.0000
  C   C369      1.0  0.90910  0.25465  0.07756  1.0000
  H   H445      1.0  0.56683  0.27931  0.39993  1.0000
  C   C370      1.0  0.84595  0.25662  0.22563  1.0000
  C   C371      1.0  0.72763  0.25315  0.00784  1.0000
  C   C372      1.0  0.72987  0.24134  0.29336  1.0000
  C   C373      1.0  0.71567  0.25746  0.27695  1.0000
  C   C374      1.0  0.71723  0.25644  0.24687  1.0000
  C   C375      1.0  0.73276  0.23929  0.23279  1.0000
  C   C376      1.0  0.74685  0.22311  0.24917  1.0000
  C   C377      1.0  0.74521  0.22412  0.27933  1.0000
  H   H446      1.0  0.70336  0.27071  0.28736  1.0000
  H   H447      1.0  0.70605  0.26898  0.23436  1.0000
  H   H448      1.0  0.75881  0.20980  0.23862  1.0000
  H   H449      1.0  0.75615  0.21153  0.29184  1.0000
  H   H450      1.0  0.85733  0.17431  0.49759  1.0000
  H   H451      1.0  0.59560  0.10696  0.01976  1.0000
  C   C378      1.0  0.62698  0.22694  0.28454  1.0000
  C   C379      1.0  0.60485  0.23461  0.34262  1.0000
  H   H452      1.0  0.63496  0.11174  0.06465  1.0000
  H   H453      1.0  0.63832  0.23227  0.34375  1.0000
  H   H454      1.0  0.77446  0.23737  0.42613  1.0000
  H   H455      1.0  0.91425  0.29206  0.27196  1.0000
  C   C380      1.0  0.65065  0.15873  0.03565  1.0000
  H   H456      1.0  0.64923  0.26700  0.32709  1.0000
  C   C381      1.0  0.74885  0.26628  0.48926  1.0000
  H   H457      1.0  0.53187  0.24071  0.31540  1.0000
  C   C382      1.0  0.51375  0.31452  0.36281  1.0000
  H   H458      1.0  0.92161  0.27031  0.07702  1.0000
  C   C383      1.0  0.92402  0.26093  0.01802  1.0000
  C   C384      1.0  0.88373  0.25743  0.02753  1.0000
  C   C385      1.0  0.62803  0.15546  0.00990  1.0000
  C   C386      1.0  0.61597  0.26905  0.32943  1.0000
  Fe  Fe60      1.0  0.75171  0.31476  0.36701  1.0000
  C   C387      1.0  0.61089  0.12126  0.02404  1.0000
  H   H459      1.0  0.63316  0.19757  0.01693  1.0000
  H   H460      1.0  0.91585  0.20014  0.49248  1.0000
  C   C388      1.0  0.83238  0.26282  0.25254  1.0000
  H   H461      1.0  0.50282  0.02583  0.28420  1.0000
  H   H462      1.0  0.81060  0.25311  0.30733  1.0000
  H   H463      1.0  0.54040  0.25693  0.34600  1.0000
  H   H464      1.0  0.94996  0.26008  0.03221  1.0000
  H   H465      1.0  0.70984  0.26443  0.01893  1.0000
  H   H466      1.0  0.86290  0.25409  0.31801  1.0000
  H   H467      1.0  0.66118  0.17668  0.08857  1.0000
  H   H468      1.0  0.69313  0.25487  0.47095  1.0000
  H   H469      1.0  0.63767  0.21654  0.30058  1.0000
  C   C389      1.0  0.50439  0.01797  0.23918  1.0000
  H   H470      1.0  0.90030  0.25165  0.10014  1.0000
  C   C390      1.0  0.76651  0.22226  0.00855  1.0000
  H   H471      1.0  0.85620  0.29943  0.33692  1.0000
  H   H472      1.0  0.65592  0.20931  0.25151  1.0000
  C   C391      1.0  0.50369  0.01355  0.26876  1.0000
  H   H473      1.0  0.53980  0.26751  0.31139  1.0000
  C   C392      1.0  0.90764  0.27579  0.23293  1.0000
  C   C393      1.0  0.85243  0.25837  0.00653  1.0000
  C   C394      1.0  0.63776  0.22254  0.25627  1.0000
  H   H474      1.0  0.80323  0.25722  0.25926  1.0000
  C   C395      1.0  0.77283  0.21756  0.46243  1.0000
  C   C396      1.0  0.50416  0.99343  0.27864  1.0000
  C   C397      1.0  0.85558  0.22588  0.46847  1.0000
  C   C398      1.0  0.59427  0.25763  0.26850  1.0000
  C   C399      1.0  0.80178  0.29238  0.29631  1.0000
  C   C400      1.0  0.88363  0.26300  0.21589  1.0000
  H   H475      1.0  0.93367  0.24361  0.07299  1.0000
  C   C401      1.0  0.83462  0.26314  0.31650  1.0000
  C   C402      1.0  0.79469  0.20929  0.48524  1.0000
  C   C403      1.0  0.63305  0.12395  0.04929  1.0000
  C   C404      1.0  0.83317  0.23441  0.44607  1.0000
  C   C405      1.0  0.50138  0.27985  0.39510  1.0000
  H   H476      1.0  0.68076  0.20840  0.02677  1.0000
  C   C406      1.0  0.66569  0.19390  0.02048  1.0000
  H   H477      1.0  0.59801  0.26347  0.22321  1.0000
  H   H478      1.0  0.88720  0.23006  0.46979  1.0000
  C   C407      1.0  0.62713  0.23561  0.23425  1.0000
  H   H479      1.0  0.81106  0.26156  0.05780  1.0000
  H   H480      1.0  0.82708  0.24671  0.21235  1.0000
  H   H481      1.0  0.89425  0.25792  0.19513  1.0000
  H   H482      1.0  0.98521  0.22902  0.12450  1.0000
  H   H483      1.0  0.66708  0.20169  0.07512  1.0000
  C   C408      1.0  0.85596  0.27579  0.27055  1.0000
  C   C409      1.0  0.79193  0.23025  0.44304  1.0000
  C   C410      1.0  0.56612  0.99362  0.09916  1.0000
  C   C411      1.0  0.54969  0.25395  0.32347  1.0000
  C   C412      1.0  0.86105  0.23067  0.05838  1.0000
  H   H484      1.0  0.93702  0.28066  0.22525  1.0000
  N   N26       1.0  0.67091  0.17821  0.04282  1.0000
  H   H485      1.0  0.85440  0.22587  0.08060  1.0000
  C   C413      1.0  0.65279  0.14233  0.05497  1.0000
  H   H486      1.0  0.84755  0.24474  0.43131  1.0000
  H   H487      1.0  0.58960  0.21992  0.33765  1.0000
  C   C414      1.0  0.83694  0.21293  0.48876  1.0000
  H   H488      1.0  0.83308  0.22790  0.04553  1.0000
  H   H489      1.0  0.73133  0.18949  0.05126  1.0000
  S   S114      1.0  0.50593  0.00684  0.18100  1.0000
  H   H490      1.0  0.74045  0.21488  0.46053  1.0000
  H   H491      1.0  0.59566  0.23915  0.36467  1.0000
  C   C415      1.0  0.89415  0.28220  0.25987  1.0000
  N   N27       1.0  0.84094  0.28163  0.29924  1.0000
  H   H492      1.0  0.66981  0.14363  0.07473  1.0000
  S   S115      1.0  0.70965  0.31970  0.40411  1.0000
  H   H493      1.0  0.62063  0.18795  0.06846  1.0000
  H   H494      1.0  0.88503  0.22043  0.05008  1.0000
  H   H495      1.0  0.77822  0.28314  0.28530  1.0000
  H   H496      1.0  0.78912  0.29649  0.31756  1.0000
  C   C416      1.0  0.98782  0.21282  0.12689  1.0000
  H   H497      1.0  0.55503  0.03492  0.49825  1.0000
  H   H498      1.0  0.72203  0.16497  0.06532  1.0000
  H   H499      1.0  0.87394  0.30978  0.30435  1.0000
  H   H500      1.0  0.66588  0.06560  0.45553  1.0000
  H   H501      1.0  0.60066  0.05326  0.47161  1.0000
  H   H502      1.0  0.70788  0.08825  0.48625  1.0000
  C   C417      1.0  0.71458  0.25374  0.48851  1.0000
  S   S116      1.0  0.51112  0.03148  0.04453  1.0000
  C   C418      1.0  0.71508  0.17497  0.04685  1.0000
  H   H503      1.0  0.72870  0.16794  0.02747  1.0000
  C   C419      1.0  0.50539  0.00229  0.21884  1.0000
  C   C420      1.0  0.67869  0.08294  0.49368  1.0000
  C   C421      1.0  0.99540  0.17115  0.13337  1.0000
  H   H504      1.0  0.50463  0.03353  0.23223  1.0000
  C   C422      1.0  0.65497  0.07018  0.47643  1.0000
  C   C423      1.0  0.61730  0.06321  0.48597  1.0000
  C   C424      1.0  0.60851  0.13694  0.00434  1.0000
  H   H505      1.0  0.99805  0.15497  0.13599  1.0000
  Fe  Fe61      1.0  0.49871  0.03545  0.15347  1.0000
  H   H506      1.0  0.77775  0.20069  0.50073  1.0000
  Fe  Fe62      1.0  0.84983  0.19150  0.61256  1.0000
  S   S117      1.0  0.82483  0.22313  0.61350  1.0000
  S   S118      1.0  0.91142  0.18634  0.59122  1.0000
  Fe  Fe63      1.0  0.77014  0.17349  0.63734  1.0000
  S   S119      1.0  0.74096  0.20410  0.64026  1.0000
  S   S120      1.0  0.73635  0.14680  0.65758  1.0000
  Fe  Fe64      1.0  0.76711  0.20930  0.59644  1.0000
  S   S121      1.0  0.72506  0.22082  0.56139  1.0000
  Fe  Fe65      1.0  0.80108  0.21518  0.65709  1.0000
  S   S122      1.0  0.81466  0.23670  0.69428  1.0000
  S   S123      1.0  0.79289  0.17796  0.59247  1.0000
  S   S124      1.0  0.82959  0.18429  0.65714  1.0000
  Fe  Fe66      1.0  0.71932  0.28213  0.83906  1.0000
  S   S125      1.0  0.69471  0.31191  0.85504  1.0000
  S   S126      1.0  0.70306  0.27203  0.79350  1.0000
  Fe  Fe67      1.0  0.74229  0.26875  0.89962  1.0000
  S   S127      1.0  0.71881  0.29732  0.91837  1.0000
  S   S128      1.0  0.76780  0.24312  0.92665  1.0000
  Fe  Fe68      1.0  0.65927  0.29433  0.89045  1.0000
  C   C425      1.0  0.79852  0.27539  0.62705  1.0000
  Fe  Fe69      1.0  0.75114  0.31306  0.88264  1.0000
  S   S129      1.0  0.68701  0.26421  0.87239  1.0000
  S   S130      1.0  0.77753  0.28418  0.86478  1.0000
  H   H507      1.0  0.69669  0.26377  0.58457  1.0000
  S   S131      1.0  0.54658  0.03782  0.62400  1.0000
  H   H508      1.0  0.74708  0.25036  0.65091  1.0000
  C   C426      1.0  0.62734  0.08195  0.53029  1.0000
  Fe  Fe70      1.0  0.54098  0.07193  0.62524  1.0000
  S   S132      1.0  0.58734  0.09433  0.60697  1.0000
  H   H509      1.0  0.58413  0.05857  0.56793  1.0000
  C   C427      1.0  0.62190  0.27671  0.91429  1.0000
  C   C428      1.0  0.96658  0.19233  0.63625  1.0000
  C   C429      1.0  0.53714  0.07960  0.53191  1.0000
  H   H510      1.0  0.80886  0.26680  0.64625  1.0000
  C   C430      1.0  0.96072  0.18951  0.60678  1.0000
  H   H511      1.0  0.54235  0.01839  0.99009  1.0000
  H   H512      1.0  0.91312  0.22352  0.51308  1.0000
  C   C431      1.0  0.60708  0.27780  0.88360  1.0000
  H   H513      1.0  0.53382  0.09006  0.51351  1.0000
  H   H514      1.0  0.59524  0.29832  0.84642  1.0000
  H   H515      1.0  0.74362  0.24671  0.61292  1.0000
  C   C432      1.0  0.69418  0.13278  0.64335  1.0000
  C   C433      1.0  0.68018  0.13526  0.61522  1.0000
  C   C434      1.0  0.64743  0.12343  0.60463  1.0000
  C   C435      1.0  0.62781  0.10914  0.62203  1.0000
  C   C436      1.0  0.64146  0.10683  0.65028  1.0000
  C   C437      1.0  0.67454  0.11851  0.66078  1.0000
  H   H516      1.0  0.69489  0.14612  0.60150  1.0000
  H   H517      1.0  0.63722  0.12539  0.58276  1.0000
  H   H518      1.0  0.62695  0.09586  0.66391  1.0000
  H   H519      1.0  0.68515  0.11634  0.68250  1.0000
  H   H520      1.0  0.80237  0.27474  0.51341  1.0000
  C   C438      1.0  0.52796  0.00295  0.75974  1.0000
  C   C439      1.0  0.85047  0.18293  0.51751  1.0000
  C   C440      1.0  0.73577  0.25728  0.63070  1.0000
  H   H521      1.0  0.94062  0.19284  0.65023  1.0000
  C   C441      1.0  0.75738  0.24073  0.96366  1.0000
  C   C442      1.0  0.77328  0.22425  0.97892  1.0000
  C   C443      1.0  0.76949  0.25093  0.53464  1.0000
  C   C444      1.0  0.73544  0.23825  0.53374  1.0000
  H   H522      1.0  0.78034  0.31351  0.60324  1.0000
  H   H523      1.0  0.81471  0.29015  0.62821  1.0000
  H   H524      1.0  0.79114  0.21304  0.96774  1.0000
  H   H525      1.0  0.78999  0.25046  0.55277  1.0000
  H   H526      1.0  0.62157  0.26237  0.92530  1.0000
  H   H527      1.0  0.72177  0.26780  0.96684  1.0000
  C   C445      1.0  0.73473  0.26169  0.76665  1.0000
  C   C446      1.0  0.77695  0.26146  0.76946  1.0000
  C   C447      1.0  0.80086  0.25355  0.74719  1.0000
  C   C448      1.0  0.78287  0.24546  0.72217  1.0000
  C   C449      1.0  0.74058  0.24539  0.71953  1.0000
  C   C450      1.0  0.71671  0.25362  0.74159  1.0000
  H   H528      1.0  0.79118  0.26765  0.78860  1.0000
  H   H529      1.0  0.83355  0.25377  0.74938  1.0000
  H   H530      1.0  0.72624  0.23935  0.70039  1.0000
  H   H531      1.0  0.68404  0.25373  0.73929  1.0000
  N   N28       1.0  0.73240  0.18096  0.73556  1.0000
  C   C451      1.0  0.76224  0.18836  0.71452  1.0000
  C   C452      1.0  0.74367  0.16010  0.74392  1.0000
  C   C453      1.0  0.69238  0.17978  0.72071  1.0000
  C   C454      1.0  0.73278  0.19442  0.76110  1.0000
  C   C455      1.0  0.69792  0.20509  0.77053  1.0000
  C   C456      1.0  0.76909  0.19736  0.77724  1.0000
  C   C457      1.0  0.69970  0.21792  0.79450  1.0000
  C   C458      1.0  0.77051  0.21030  0.80108  1.0000
  C   C459      1.0  0.73589  0.22057  0.80966  1.0000
  H   H532      1.0  0.79388  0.18840  0.72288  1.0000
  H   H533      1.0  0.76217  0.17872  0.69492  1.0000
  H   H534      1.0  0.75530  0.20408  0.70790  1.0000
  H   H535      1.0  0.77507  0.15929  0.75264  1.0000
  H   H536      1.0  0.74250  0.14948  0.72517  1.0000
  H   H537      1.0  0.72278  0.15415  0.76047  1.0000
  H   H538      1.0  0.68283  0.19487  0.71271  1.0000
  H   H539      1.0  0.69331  0.16959  0.70155  1.0000
  H   H540      1.0  0.66852  0.17358  0.73490  1.0000
  H   H541      1.0  0.66910  0.20416  0.75950  1.0000
  H   H542      1.0  0.79690  0.18994  0.77124  1.0000
  H   H543      1.0  0.67328  0.22654  0.80082  1.0000
  H   H544      1.0  0.79877  0.21272  0.81268  1.0000
  H   H545      1.0  0.73729  0.23107  0.82765  1.0000
  N   N29       1.0  0.75372  0.27765  0.62614  1.0000
  H   H546      1.0  0.70784  0.29306  0.65026  1.0000
  S   S133      1.0  0.50851  0.07215  0.66729  1.0000
  C   C460      1.0  0.84518  0.21583  0.53976  1.0000
  C   C461      1.0  0.51084  0.30315  0.89698  1.0000
  H   H547      1.0  0.75576  0.30600  0.64960  1.0000
  H   H548      1.0  0.68342  0.09861  0.53417  1.0000
  C   C462      1.0  0.73432  0.25511  0.97828  1.0000
  Fe  Fe71      1.0  0.50932  0.03795  0.66487  1.0000
  H   H549      1.0  0.81847  0.17981  0.52334  1.0000
  C   C463      1.0  0.70180  0.28674  0.55370  1.0000
  C   C464      1.0  0.74128  0.29079  0.65037  1.0000
  C   C465      1.0  0.50507  0.31210  0.87018  1.0000
  H   H550      1.0  0.70216  0.25788  0.63240  1.0000
  H   H551      1.0  0.62492  0.16692  0.99371  1.0000
  H   H552      1.0  0.85013  0.23242  0.53766  1.0000
  H   H553      1.0  0.54059  0.04376  0.55889  1.0000
  H   H554      1.0  0.86888  0.17635  0.53529  1.0000
  C   C466      1.0  0.71170  0.27794  0.57997  1.0000
  H   H555      1.0  0.80942  0.26719  0.60770  1.0000
  C   C467      1.0  0.70790  0.23982  0.51072  1.0000
  H   H556      1.0  0.53084  0.31741  0.85824  1.0000
  S   S134      1.0  0.55953  0.30126  0.91363  1.0000
  C   C468      1.0  0.53916  0.04931  0.50344  1.0000
  N   N30       1.0  0.56268  0.06196  0.52426  1.0000
  H   H557      1.0  0.83617  0.26334  0.96229  1.0000
  S   S135      1.0  0.52725  0.02264  0.70761  1.0000
  H   H558      1.0  0.96286  0.26821  0.98255  1.0000
  C   C469      1.0  0.63433  0.29583  0.93015  1.0000
  C   C470      1.0  0.86070  0.26288  0.97798  1.0000
  H   H559      1.0  0.81235  0.21326  0.54378  1.0000
  C   C471      1.0  0.56957  0.04968  0.55026  1.0000
  C   C472      1.0  0.63327  0.31651  0.91512  1.0000
  C   C473      1.0  0.90378  0.20732  0.51225  1.0000
  C   C474      1.0  0.90037  0.26653  0.96944  1.0000
  C   C475      1.0  0.72067  0.30457  0.54523  1.0000
  H   H560      1.0  0.55485  0.01193  0.76409  1.0000
  C   C476      1.0  0.75852  0.30554  0.58989  1.0000
  H   H561      1.0  0.64240  0.29431  0.95245  1.0000
  H   H562      1.0  0.61821  0.08679  0.55143  1.0000
  H   H563      1.0  0.99102  0.18645  0.56625  1.0000
  H   H564      1.0  0.50616  0.07480  0.53848  1.0000
  C   C477      1.0  0.74867  0.31408  0.56341  1.0000
  H   H565      1.0  0.58927  0.03646  0.54564  1.0000
  C   C478      1.0  0.60637  0.29771  0.86828  1.0000
  H   H566      1.0  0.90658  0.26998  0.94724  1.0000
  C   C479      1.0  0.60223  0.06903  0.51326  1.0000
  H   H567      1.0  0.59614  0.26426  0.87277  1.0000
  H   H568      1.0  0.74987  0.28407  0.67143  1.0000
  C   C480      1.0  0.77618  0.26483  0.51246  1.0000
  C   C481      1.0  0.74108  0.28693  0.59870  1.0000
  N   N31       1.0  0.85900  0.20488  0.51393  1.0000
  C   C482      1.0  0.99505  0.18873  0.58904  1.0000
  H   H569      1.0  0.54978  0.08845  0.55031  1.0000
  C   C483      1.0  0.66491  0.08878  0.52059  1.0000
  H   H570      1.0  0.86184  0.21089  0.55919  1.0000
  C   C484      1.0  0.52579  0.99785  0.53027  1.0000
  C   C485      1.0  0.61863  0.31696  0.88394  1.0000
  H   H571      1.0  0.71388  0.31087  0.52434  1.0000
  H   H572      1.0  0.91954  0.20016  0.53082  1.0000
  H   H573      1.0  0.68036  0.27928  0.53929  1.0000
  C   C486      1.0  0.50743  0.00521  0.73334  1.0000
  C   C487      1.0  0.50357  0.99439  0.97369  1.0000
  C   C488      1.0  0.51559  0.00933  0.99402  1.0000
  H   H574      1.0  0.52107  0.99209  0.95448  1.0000
  H   H575      1.0  0.54552  0.00095  0.54841  1.0000
  C   C489      1.0  0.93196  0.26554  0.98939  1.0000
  H   H576      1.0  0.59135  0.13472  0.98463  1.0000
  H   H577      1.0  0.50915  0.04476  0.51220  1.0000
  H   H578      1.0  0.67952  0.18917  0.99982  1.0000
  H   H579      1.0  0.68119  0.23025  0.51005  1.0000
  S   S136      1.0  0.96500  0.45675  0.38259  1.0000
  H   H580      1.0  0.92573  0.61686  0.09129  1.0000
  H   H581      1.0  0.95946  0.51647  0.04108  1.0000
  Fe  Fe72      1.0  0.96522  0.42254  0.38419  1.0000
  S   S137      1.0  0.90875  0.40573  0.39975  1.0000
  H   H582      1.0  0.51826  0.32807  0.35036  1.0000
  C   C490      1.0  0.89154  0.64348  0.08026  1.0000
  S   S138      1.0  0.96841  0.53833  0.13525  1.0000
  H   H583      1.0  0.89507  0.42563  0.30493  1.0000
  H   H584      1.0  0.83147  0.47185  0.31167  1.0000
  Fe  Fe73      1.0  0.95317  0.57157  0.12996  1.0000
  S   S139      1.0  0.88795  0.58229  0.12335  1.0000
  S   S140      1.0  0.79911  0.33489  0.34530  1.0000
  C   C491      1.0  0.81250  0.41511  0.34376  1.0000
  C   C492      1.0  0.86674  0.60578  0.13444  1.0000
  C   C493      1.0  0.88872  0.61994  0.15084  1.0000
  C   C494      1.0  0.87088  0.63850  0.15879  1.0000
  C   C495      1.0  0.83099  0.64322  0.15034  1.0000
  C   C496      1.0  0.80901  0.62910  0.13387  1.0000
  C   C497      1.0  0.82680  0.61050  0.12604  1.0000
  H   H585      1.0  0.91946  0.61656  0.15744  1.0000
  H   H586      1.0  0.56597  0.64991  0.08862  1.0000
  H   H587      1.0  0.77815  0.63238  0.12747  1.0000
  H   H588      1.0  0.80947  0.59964  0.11344  1.0000
  C   C498      1.0  0.88162  0.38458  0.38517  1.0000
  C   C499      1.0  0.84973  0.37616  0.40107  1.0000
  C   C500      1.0  0.82501  0.36054  0.38958  1.0000
  C   C501      1.0  0.83143  0.35337  0.36174  1.0000
  C   C502      1.0  0.86348  0.36169  0.34586  1.0000
  C   C503      1.0  0.88869  0.37706  0.35756  1.0000
  H   H589      1.0  0.84377  0.38192  0.42237  1.0000
  H   H590      1.0  0.80042  0.35438  0.40205  1.0000
  H   H591      1.0  0.86865  0.35633  0.32427  1.0000
  H   H592      1.0  0.91303  0.38334  0.34500  1.0000
  H   H593      1.0  0.52539  0.62673  0.11815  1.0000
  C   C504      1.0  0.85878  0.46209  0.31023  1.0000
  H   H594      1.0  0.86374  0.63478  0.08067  1.0000
  H   H595      1.0  0.87982  0.46458  0.36347  1.0000
  H   H596      1.0  0.88818  0.64924  0.17158  1.0000
  H   H597      1.0  0.73005  0.39365  0.31135  1.0000
  H   H598      1.0  0.88644  0.57878  0.49907  1.0000
  C   C505      1.0  0.97006  0.49059  0.24978  1.0000
  H   H599      1.0  0.96463  0.50778  0.21057  1.0000
  H   H600      1.0  0.94243  0.48210  0.24585  1.0000
  N   N32       1.0  0.85626  0.44471  0.33016  1.0000
  C   C506      1.0  0.75489  0.40419  0.31514  1.0000
  C   C507      1.0  0.98265  0.50517  0.22961  1.0000
  C   C508      1.0  0.89360  0.43264  0.32663  1.0000
  H   H601      1.0  0.96874  0.48811  0.45543  1.0000
  C   C509      1.0  0.85549  0.45308  0.35979  1.0000
  C   C510      1.0  0.92717  0.63290  0.08650  1.0000
  S   S141      1.0  0.97551  0.46788  0.29922  1.0000
  C   C511      1.0  0.78029  0.40169  0.33878  1.0000
  H   H602      1.0  0.77531  0.38912  0.35321  1.0000
  H   H603      1.0  0.86289  0.45697  0.28768  1.0000
  C   C512      1.0  0.76163  0.42014  0.29640  1.0000
  C   C513      1.0  0.96443  0.64290  0.08730  1.0000
  C   C514      1.0  0.53340  0.64883  0.08534  1.0000
  H   H604      1.0  0.86079  0.44130  0.37631  1.0000
  H   H605      1.0  0.79784  0.44544  0.28556  1.0000
  C   C515      1.0  0.79406  0.43358  0.30107  1.0000
  H   H606      1.0  0.92122  0.44215  0.32956  1.0000
  H   H607      1.0  0.99178  0.63467  0.09281  1.0000
  C   C516      1.0  0.98105  0.50835  0.02806  1.0000
  S   S142      1.0  0.99582  0.41917  0.34179  1.0000
  C   C517      1.0  0.51040  0.63584  0.10206  1.0000
  H   H608      1.0  0.88567  0.47192  0.31509  1.0000
  H   H609      1.0  0.89578  0.42025  0.34248  1.0000
  H   H610      1.0  0.82591  0.46038  0.36439  1.0000
  C   C518      1.0  0.82059  0.43141  0.32503  1.0000
  C   C519      1.0  0.98895  0.49393  0.47193  1.0000
  H   H611      1.0  0.74175  0.42199  0.27801  1.0000
  H   H612      1.0  0.83145  0.41245  0.36229  1.0000
  C   C520      1.0  0.99288  0.48684  0.27487  1.0000
  H   H613      1.0  0.99193  0.48206  0.14793  1.0000
  S   S143      1.0  0.99678  0.57564  0.09367  1.0000
  H   H614      1.0  0.81747  0.65165  0.05269  1.0000
  C   C521      1.0  0.97362  0.50619  0.49434  1.0000
  H   H615      1.0  0.94160  0.50960  0.49477  1.0000
  C   C522      1.0  0.96771  0.49765  0.00328  1.0000
  S   S144      1.0  0.99719  0.58232  0.16392  1.0000
  S   S145      1.0  0.95186  0.46221  0.87787  1.0000
  H   H616      1.0  0.96206  0.44180  0.77726  1.0000
  H   H617      1.0  0.88794  0.43569  0.90820  1.0000
  Fe  Fe74      1.0  0.95511  0.42876  0.86883  1.0000
  S   S146      1.0  0.89612  0.41291  0.85413  1.0000
  H   H618      1.0  0.59050  0.35091  0.91031  1.0000
  H   H619      1.0  0.85091  0.45281  0.92336  1.0000
  S   S147      1.0  0.95240  0.54483  0.62098  1.0000
  H   H620      1.0  0.91189  0.55291  0.56699  1.0000
  H   H621      1.0  0.91060  0.51220  0.73256  1.0000
  Fe  Fe75      1.0  0.97105  0.57748  0.62715  1.0000
  S   S148      1.0  0.93521  0.60719  0.62796  1.0000
  H   H622      1.0  0.82422  0.42204  0.90739  1.0000
  S   S149      1.0  0.75242  0.63974  0.62552  1.0000
  C   C523      1.0  0.88394  0.61570  0.62858  1.0000
  C   C524      1.0  0.87654  0.63668  0.62858  1.0000
  C   C525      1.0  0.83662  0.64433  0.62826  1.0000
  C   C526      1.0  0.80345  0.63104  0.62777  1.0000
  C   C527      1.0  0.81083  0.61005  0.62800  1.0000
  C   C528      1.0  0.85076  0.60240  0.62854  1.0000
  H   H623      1.0  0.77466  0.39504  0.90545  1.0000
  H   H624      1.0  0.90787  0.49593  0.68493  1.0000
  H   H625      1.0  0.78542  0.59963  0.62768  1.0000
  H   H626      1.0  0.85572  0.58626  0.62900  1.0000
  C   C529      1.0  0.87020  0.39064  0.86567  1.0000
  C   C530      1.0  0.83629  0.38369  0.84981  1.0000
  C   C531      1.0  0.81273  0.36713  0.85918  1.0000
  C   C532      1.0  0.82232  0.35748  0.88491  1.0000
  C   C533      1.0  0.85666  0.36422  0.90053  1.0000
  C   C534      1.0  0.88078  0.38049  0.89081  1.0000
  H   H627      1.0  0.82773  0.39136  0.83033  1.0000
  H   H628      1.0  0.78616  0.36239  0.84709  1.0000
  H   H629      1.0  0.86415  0.35709  0.92064  1.0000
  H   H630      1.0  0.90686  0.38547  0.90317  1.0000
  S   S150      1.0  0.97563  0.47292  0.95550  1.0000
  C   C535      1.0  0.78654  0.38465  0.94809  1.0000
  C   C536      1.0  0.85938  0.43917  0.78064  1.0000
  H   H631      1.0  0.94263  0.43305  0.95760  1.0000
  H   H632      1.0  0.93392  0.46919  0.80815  1.0000
  H   H633      1.0  0.60677  0.36200  0.94367  1.0000
  S   S151      1.0  0.97796  0.53006  0.54334  1.0000
  H   H634      1.0  0.90192  0.64712  0.62871  1.0000
  H   H635      1.0  0.90284  0.62159  0.55635  1.0000
  C   C537      1.0  0.93516  0.58769  0.54478  1.0000
  C   C538      1.0  0.83837  0.40299  0.97475  1.0000
  H   H636      1.0  0.80594  0.37700  0.99059  1.0000
  C   C539      1.0  0.93174  0.43444  0.77872  1.0000
  H   H637      1.0  0.85748  0.55975  0.51734  1.0000
  C   C540      1.0  0.82061  0.41321  0.92656  1.0000
  C   C541      1.0  0.60274  0.34740  0.93195  1.0000
  C   C542      1.0  0.79009  0.60530  0.55134  1.0000
  H   H638      1.0  0.84024  0.45285  0.97675  1.0000
  H   H639      1.0  0.90368  0.45667  0.92992  1.0000
  N   N33       1.0  0.64100  0.33574  0.93059  1.0000
  C   C543      1.0  0.90469  0.48422  0.75568  1.0000
  C   C544      1.0  0.80097  0.62537  0.55669  1.0000
  H   H640      1.0  0.67869  0.36240  0.92662  1.0000
  H   H641      1.0  0.93982  0.59866  0.52718  1.0000
  H   H642      1.0  0.92848  0.42386  0.76027  1.0000
  H   H643      1.0  0.85474  0.42885  0.76199  1.0000
  C   C545      1.0  0.91721  0.42187  0.95713  1.0000
  H   H644      1.0  0.87955  0.47254  0.81010  1.0000
  H   H645      1.0  0.91941  0.41333  0.97744  1.0000
  H   H646      1.0  0.90296  0.45108  0.82591  1.0000
  C   C546      1.0  0.88643  0.56839  0.51769  1.0000
  N   N34       1.0  0.89908  0.44979  0.77976  1.0000
  C   C547      1.0  0.88969  0.56546  0.56905  1.0000
  H   H647      1.0  0.89387  0.45784  0.97950  1.0000
  C   C548      1.0  0.67175  0.34792  0.91526  1.0000
  C   C549      1.0  0.87051  0.44554  0.97825  1.0000
  S   S152      1.0  0.78848  0.33976  0.90094  1.0000
  C   C550      1.0  0.89824  0.45399  0.72623  1.0000
  H   H648      1.0  0.87232  0.43752  0.99900  1.0000
  H   H649      1.0  0.93193  0.42481  0.79822  1.0000
  H   H650      1.0  0.70082  0.33959  0.91323  1.0000
  C   C551      1.0  0.90078  0.46277  0.75406  1.0000
  C   C552      1.0  0.87193  0.61637  0.55381  1.0000
  C   C553      1.0  0.90058  0.46586  0.70163  1.0000
  H   H651      1.0  0.83394  0.45018  0.78076  1.0000
  H   H652      1.0  0.76553  0.37203  0.94621  1.0000
  H   H653      1.0  0.89974  0.45883  0.68057  1.0000
  Fe  Fe76      1.0  0.99696  0.45714  0.91371  1.0000
  H   H654      1.0  0.66177  0.35196  0.89328  1.0000
  C   C554      1.0  0.90480  0.48678  0.70399  1.0000
  C   C555      1.0  0.84505  0.41629  0.95151  1.0000
  H   H655      1.0  0.85672  0.42964  0.80017  1.0000
  H   H656      1.0  0.57863  0.33856  0.94294  1.0000
  H   H657      1.0  0.89493  0.43784  0.72326  1.0000
  C   C556      1.0  0.84175  0.63089  0.55778  1.0000
  H   H658      1.0  0.66226  0.34748  0.97133  1.0000
  C   C557      1.0  0.80964  0.38738  0.97294  1.0000
  N   N35       1.0  0.89291  0.57976  0.54492  1.0000
  H   H659      1.0  0.85616  0.40423  0.99423  1.0000
  C   C558      1.0  0.90406  0.46125  0.80707  1.0000
  H   H660      1.0  0.92298  0.41104  0.93927  1.0000
  N   N36       1.0  0.87740  0.43189  0.95338  1.0000
  H   H661      1.0  0.85926  0.55829  0.57037  1.0000
  C   C559      1.0  0.87986  0.44476  0.92752  1.0000
  H   H662      1.0  0.95763  0.57531  0.54171  1.0000
  H   H663      1.0  0.85004  0.64637  0.56313  1.0000
  C   C560      1.0  0.90635  0.49593  0.73092  1.0000
  C   C561      1.0  0.79170  0.39767  0.92512  1.0000
  C   C562      1.0  0.86189  0.59574  0.54818  1.0000
  H   H664      1.0  0.90774  0.49236  0.77574  1.0000
  H   H665      1.0  0.81001  0.57523  0.54376  1.0000
  C   C563      1.0  0.81998  0.59067  0.54706  1.0000
  H   H666      1.0  0.94332  0.59515  0.56555  1.0000
  H   H667      1.0  0.89571  0.57334  0.58984  1.0000
  H   H668      1.0  0.75832  0.60101  0.55146  1.0000
  H   H669      1.0  0.63255  0.32491  0.97353  1.0000
  C   C564      1.0  0.65571  0.33280  0.96038  1.0000
  H   H670      1.0  0.91073  0.55693  0.51418  1.0000
  H   H671      1.0  0.61513  0.33105  0.87271  1.0000
  H   H672      1.0  0.93586  0.49774  0.99758  1.0000
  H   H673      1.0  0.99609  0.53734  0.73342  1.0000
  H   H674      1.0  0.77778  0.63651  0.56120  1.0000
  C   C565      1.0  0.99505  0.48691  0.98583  1.0000
  H   H675      1.0  0.68424  0.32391  0.96092  1.0000
  H   H676      1.0  0.76314  0.32801  0.55671  1.0000
  S   S153      1.0  0.99737  0.42306  0.90608  1.0000
  H   H677      1.0  0.99699  0.53038  0.78569  1.0000
  Fe  Fe77      1.0  0.55699  0.92474  0.36732  1.0000
  S   S154      1.0  0.61413  0.90719  0.35444  1.0000
  H   H678      1.0  0.62598  0.96017  0.41977  1.0000
  C   C566      1.0  0.71697  0.88625  0.44815  1.0000
  S   S155      1.0  0.55820  0.95826  0.37650  1.0000
  C   C567      1.0  0.59812  0.81932  0.36351  1.0000
  Fe  Fe78      1.0  0.75310  0.68278  0.14478  1.0000
  S   S156      1.0  0.76874  0.71445  0.13153  1.0000
  Fe  Fe79      1.0  0.66161  0.69079  0.13339  1.0000
  S   S157      1.0  0.67301  0.72259  0.11850  1.0000
  S   S158      1.0  0.59824  0.67796  0.14197  1.0000
  Fe  Fe80      1.0  0.72595  0.70933  0.09450  1.0000
  S   S159      1.0  0.75317  0.71251  0.04992  1.0000
  Fe  Fe81      1.0  0.71502  0.72438  0.15705  1.0000
  S   S160      1.0  0.71690  0.75126  0.18801  1.0000
  S   S161      1.0  0.71194  0.67707  0.10690  1.0000
  S   S162      1.0  0.70180  0.69328  0.17274  1.0000
  Fe  Fe82      1.0  0.76489  0.80968  0.38556  1.0000
  S   S163      1.0  0.74530  0.77742  0.39322  1.0000
  S   S164      1.0  0.71569  0.83164  0.40115  1.0000
  Fe  Fe83      1.0  0.85071  0.79595  0.36746  1.0000
  S   S165      1.0  0.83530  0.76323  0.37380  1.0000
  S   S166      1.0  0.91366  0.80204  0.34861  1.0000
  Fe  Fe84      1.0  0.77617  0.76998  0.35168  1.0000
  S   S167      1.0  0.74872  0.74524  0.32284  1.0000
  Fe  Fe85      1.0  0.80569  0.77338  0.41456  1.0000
  S   S168      1.0  0.82085  0.75594  0.45514  1.0000
  S   S169      1.0  0.79254  0.80236  0.34245  1.0000
  S   S170      1.0  0.82436  0.80594  0.40968  1.0000
  C   C568      1.0  0.96235  0.79998  0.36550  1.0000
  C   C569      1.0  0.51020  0.73044  0.21801  1.0000
  C   C570      1.0  0.96734  0.80049  0.39530  1.0000
  H   H679      1.0  0.87680  0.70396  0.08855  1.0000
  H   H680      1.0  0.94094  0.80153  0.40880  1.0000
  C   C571      1.0  0.55049  0.68756  0.13048  1.0000
  C   C572      1.0  0.54699  0.70109  0.10773  1.0000
  C   C573      1.0  0.71162  0.76123  0.00492  1.0000
  H   H681      1.0  0.57399  0.70643  0.09711  1.0000
  C   C574      1.0  0.65611  0.94256  0.46542  1.0000
  C   C575      1.0  0.74463  0.73103  0.02313  1.0000
  H   H682      1.0  0.51724  0.67018  0.16141  1.0000
  C   C576      1.0  0.56101  0.96581  0.01669  1.0000
  C   C577      1.0  0.78524  0.74700  0.48024  1.0000
  C   C578      1.0  0.74360  0.74995  0.47653  1.0000
  H   H683      1.0  0.67060  0.72323  0.39740  1.0000
  H   H684      1.0  0.70073  0.74828  0.04664  1.0000
  C   C579      1.0  0.72712  0.70265  0.43025  1.0000
  H   H685      1.0  0.73254  0.75812  0.45814  1.0000
  H   H686      1.0  0.83281  0.78073  0.25922  1.0000
  C   C580      1.0  0.72497  0.74940  0.22558  1.0000
  C   C581      1.0  0.72169  0.73094  0.23983  1.0000
  C   C582      1.0  0.72882  0.72999  0.26959  1.0000
  C   C583      1.0  0.73969  0.74742  0.28543  1.0000
  C   C584      1.0  0.74246  0.76594  0.27126  1.0000
  C   C585      1.0  0.73491  0.76692  0.24151  1.0000
  H   H687      1.0  0.71362  0.71738  0.22796  1.0000
  H   H688      1.0  0.72617  0.71564  0.28040  1.0000
  H   H689      1.0  0.75050  0.77950  0.28319  1.0000
  H   H690      1.0  0.73733  0.78130  0.23074  1.0000
  C   C586      1.0  0.64072  0.88553  0.36723  1.0000
  C   C587      1.0  0.62980  0.87540  0.39225  1.0000
  C   C588      1.0  0.65283  0.85884  0.40194  1.0000
  C   C589      1.0  0.68680  0.85194  0.38670  1.0000
  C   C590      1.0  0.69737  0.86181  0.36143  1.0000
  C   C591      1.0  0.67454  0.87854  0.35187  1.0000
  H   H691      1.0  0.60401  0.88037  0.40442  1.0000
  H   H692      1.0  0.64444  0.85136  0.42154  1.0000
  H   H693      1.0  0.72349  0.85679  0.34952  1.0000
  H   H694      1.0  0.68337  0.88622  0.33251  1.0000
  H   H695      1.0  0.86663  0.77238  0.30499  1.0000
  C   C592      1.0  0.89236  0.66456  0.07429  1.0000
  H   H696      1.0  0.60408  0.91509  0.41556  1.0000
  N   N37       1.0  0.84198  0.71366  0.22511  1.0000
  H   H697      1.0  0.79004  0.70616  0.44583  1.0000
  H   H698      1.0  0.83972  0.73260  0.18761  1.0000
  H   H699      1.0  0.54272  0.96855  0.13868  1.0000
  C   C593      1.0  0.84805  0.72996  0.24677  1.0000
  C   C594      1.0  0.86706  0.72570  0.27346  1.0000
  C   C595      1.0  0.83583  0.75031  0.24220  1.0000
  C   C596      1.0  0.87359  0.74086  0.29414  1.0000
  C   C597      1.0  0.84270  0.76535  0.26300  1.0000
  C   C598      1.0  0.86151  0.76065  0.28889  1.0000
  H   H700      1.0  0.99547  0.67122  0.08189  1.0000
  H   H701      1.0  0.51815  0.85984  0.39022  1.0000
  C   C599      1.0  0.68819  0.90139  0.45263  1.0000
  H   H702      1.0  0.54515  0.88033  0.37389  1.0000
  C   C600      1.0  0.55666  0.84648  0.34288  1.0000
  H   H703      1.0  0.60271  0.80791  0.37975  1.0000
  C   C601      1.0  0.64955  0.94857  0.41513  1.0000
  H   H704      1.0  0.75236  0.90077  0.38357  1.0000
  H   H705      1.0  0.64191  0.94229  0.39349  1.0000
  C   C602      1.0  0.73508  0.90131  0.40321  1.0000
  C   C603      1.0  0.71536  0.68589  0.48539  1.0000
  C   C604      1.0  0.81652  0.69727  0.23715  1.0000
  H   H706      1.0  0.65650  0.81440  0.34456  1.0000
  C   C605      1.0  0.68867  0.69525  0.43895  1.0000
  C   C606      1.0  0.53481  0.96851  0.06568  1.0000
  H   H707      1.0  0.51690  0.95038  0.11672  1.0000
  H   H708      1.0  0.81799  0.70802  0.18265  1.0000
  C   C607      1.0  0.81732  0.66418  0.06874  1.0000
  C   C608      1.0  0.62345  0.83799  0.32328  1.0000
  H   H709      1.0  0.90220  0.71700  0.20848  1.0000
  C   C609      1.0  0.50834  0.70708  0.09787  1.0000
  H   H710      1.0  0.52426  0.72854  0.23878  1.0000
  C   C610      1.0  0.77311  0.72040  0.39688  1.0000
  C   C611      1.0  0.74039  0.88623  0.42351  1.0000
  H   H711      1.0  0.78495  0.79768  0.48690  1.0000
  N   N38       1.0  0.73198  0.71186  0.40164  1.0000
  N   N39       1.0  0.85531  0.67636  0.06790  1.0000
  H   H712      1.0  0.70554  0.73982  0.41575  1.0000
  C   C612      1.0  0.75377  0.69231  0.47718  1.0000
  H   H713      1.0  0.58513  0.93346  0.44037  1.0000
  C   C613      1.0  0.88172  0.70504  0.21692  1.0000
  N   N40       1.0  0.65020  0.93246  0.43716  1.0000
  H   H714      1.0  0.58730  0.86170  0.30728  1.0000
  H   H715      1.0  0.72826  0.70283  0.35723  1.0000
  C   C614      1.0  0.53401  0.73312  0.19311  1.0000
  H   H716      1.0  0.65214  0.93201  0.48357  1.0000
  C   C615      1.0  0.93100  0.67419  0.07474  1.0000
  H   H717      1.0  0.69287  0.69022  0.37987  1.0000
  H   H718      1.0  0.79696  0.70858  0.39780  1.0000
  H   H719      1.0  0.70724  0.73674  0.37745  1.0000
  C   C616      1.0  0.53264  0.95078  0.01006  1.0000
  H   H720      1.0  0.63340  0.95480  0.46887  1.0000
  C   C617      1.0  0.85816  0.68525  0.03890  1.0000
  H   H721      1.0  0.72041  0.87407  0.46338  1.0000
  C   C618      1.0  0.68198  0.91705  0.43240  1.0000
  H   H722      1.0  0.78055  0.73244  0.41290  1.0000
  H   H723      1.0  0.84943  0.68695  0.11132  1.0000
  C   C619      1.0  0.70254  0.72858  0.39797  1.0000
  H   H724      1.0  0.68408  0.74497  0.49404  1.0000
  H   H725      1.0  0.88353  0.69628  0.03719  1.0000
  H   H726      1.0  0.99390  0.79839  0.32532  1.0000
  N   N41       1.0  0.53459  0.97772  0.09472  1.0000
  H   H727      1.0  0.54030  0.82769  0.37930  1.0000
  H   H728      1.0  0.83009  0.69370  0.03305  1.0000
  H   H729      1.0  0.52785  0.73681  0.14646  1.0000
  H   H730      1.0  0.86258  0.67327  0.02235  1.0000
  S   S171      1.0  0.53334  0.96506  0.45535  1.0000
  N   N42       1.0  0.57890  0.73335  0.19524  1.0000
  C   C620      1.0  0.59323  0.71363  0.20627  1.0000
  C   C621      1.0  0.59917  0.73684  0.16744  1.0000
  C   C622      1.0  0.59266  0.74967  0.21517  1.0000
  C   C623      1.0  0.70622  0.91647  0.40735  1.0000
  H   H731      1.0  0.67917  0.95664  0.41405  1.0000
  C   C624      1.0  0.85122  0.69301  0.08916  1.0000
  C   C625      1.0  0.96638  0.66349  0.08128  1.0000
  S   S172      1.0  0.80998  0.66677  0.16136  1.0000
  H   H732      1.0  0.88806  0.73734  0.31442  1.0000
  H   H733      1.0  0.62698  0.71275  0.20658  1.0000
  H   H734      1.0  0.58298  0.71074  0.22844  1.0000
  H   H735      1.0  0.58177  0.70090  0.19258  1.0000
  H   H736      1.0  0.59254  0.72437  0.15188  1.0000
  H   H737      1.0  0.63279  0.73749  0.16999  1.0000
  H   H738      1.0  0.59004  0.75150  0.15783  1.0000
  H   H739      1.0  0.58241  0.74722  0.23745  1.0000
  H   H740      1.0  0.62647  0.75074  0.21624  1.0000
  H   H741      1.0  0.58116  0.76466  0.20813  1.0000
  H   H742      1.0  0.54277  0.88552  0.32243  1.0000
  C   C626      1.0  0.51491  0.68065  0.14380  1.0000
  C   C627      1.0  0.60994  0.92244  0.43668  1.0000
  H   H743      1.0  0.70264  0.92714  0.39014  1.0000
  H   H744      1.0  0.87819  0.69308  0.20002  1.0000
  N   N43       1.0  0.51961  0.85905  0.34384  1.0000
  C   C628      1.0  0.51263  0.73515  0.16668  1.0000
  C   C629      1.0  0.50656  0.95299  0.05823  1.0000
  C   C630      1.0  0.72425  0.69639  0.37906  1.0000
  H   H745      1.0  0.82330  0.70200  0.08512  1.0000
  C   C631      1.0  0.51739  0.87434  0.32072  1.0000
  H   H746      1.0  0.82039  0.75505  0.22291  1.0000
  H   H747      1.0  0.74548  0.68344  0.38129  1.0000
  H   H748      1.0  0.83133  0.68969  0.25557  1.0000
  H   H749      1.0  0.64771  0.84110  0.30840  1.0000
  H   H750      1.0  0.77568  0.72749  0.37543  1.0000
  C   C632      1.0  0.82180  0.72062  0.19842  1.0000
  H   H751      1.0  0.57061  0.95392  0.11281  1.0000
  H   H752      1.0  0.79085  0.72649  0.20262  1.0000
  C   C633      1.0  0.56208  0.97473  0.04397  1.0000
  C   C634      1.0  0.58831  0.84976  0.32291  1.0000
  H   H753      1.0  0.66257  0.69589  0.42487  1.0000
  H   H754      1.0  0.79012  0.67353  0.06379  1.0000
  C   C635      1.0  0.75976  0.70073  0.45016  1.0000
  H   H755      1.0  0.89753  0.69778  0.23522  1.0000
  H   H756      1.0  0.87699  0.71060  0.27856  1.0000
  C   C636      1.0  0.56263  0.83082  0.36313  1.0000
  C   C637      1.0  0.71737  0.74696  0.02687  1.0000
  H   H757      1.0  0.60703  0.91066  0.45336  1.0000
  C   C638      1.0  0.62846  0.82290  0.34362  1.0000
  H   H758      1.0  0.78704  0.70330  0.24467  1.0000
  C   C639      1.0  0.50543  0.94440  0.03076  1.0000
  H   H759      1.0  0.93409  0.69013  0.07022  1.0000
  H   H760      1.0  0.80977  0.68519  0.22092  1.0000
  H   H761      1.0  0.68693  0.94943  0.46723  1.0000
  H   H762      1.0  0.67002  0.90041  0.47169  1.0000
  C   C640      1.0  0.68291  0.68723  0.46625  1.0000
  H   H763      1.0  0.76163  0.87404  0.41961  1.0000
  C   C641      1.0  0.54149  0.96192  0.11661  1.0000
  C   C642      1.0  0.50598  0.98217  0.22869  1.0000
  H   H764      1.0  0.69049  0.77349  0.00805  1.0000
  S   S173      1.0  0.51446  0.91798  0.40329  1.0000
  C   C643      1.0  0.50540  0.97775  0.25830  1.0000
  H   H765      1.0  0.51781  0.86710  0.29914  1.0000
  C   C644      1.0  0.51843  0.87011  0.37154  1.0000
  H   H766      1.0  0.65305  0.68228  0.47286  1.0000
  H   H767      1.0  0.77882  0.69147  0.49231  1.0000
  C   C645      1.0  0.51420  0.98098  0.48352  1.0000
  H   H768      1.0  0.53233  0.67164  0.05295  1.0000
  C   C646      1.0  0.51436  0.66108  0.06524  1.0000
  H   H769      1.0  0.50600  0.71714  0.07978  1.0000
  Fe  Fe86      1.0  0.51266  0.95198  0.41120  1.0000
  H   H770      1.0  0.59716  0.98751  0.09615  1.0000
  H   H771      1.0  0.58379  0.98683  0.04716  1.0000
  C   C647      1.0  0.71627  0.74259  0.49701  1.0000
  H   H772      1.0  0.50690  0.96986  0.21332  1.0000
  S   S174      1.0  0.50750  0.92823  0.33435  1.0000
  Fe  Fe87      1.0  0.50520  0.96116  0.34604  1.0000
  H   H773      1.0  0.50565  0.96221  0.26540  1.0000
  C   C648      1.0  0.99726  0.79877  0.34838  1.0000
  H   H774      1.0  0.81226  0.65782  0.09040  1.0000
  S   S175      1.0  0.50126  0.98896  0.31640  1.0000
  Fe  Fe88      1.0  0.53567  0.92156  0.88007  1.0000
  S   S176      1.0  0.60216  0.91187  0.88117  1.0000
  C   C649      1.0  0.52336  0.85531  0.91493  1.0000
  H   H775      1.0  0.67361  0.83665  0.91353  1.0000
  S   S177      1.0  0.51940  0.95486  0.87927  1.0000
  C   C650      1.0  0.58780  0.97445  0.71861  1.0000
  C   C651      1.0  0.59244  0.83106  0.92665  1.0000
  S   S178      1.0  0.76043  0.70040  0.61427  1.0000
  Fe  Fe89      1.0  0.64634  0.69443  0.63754  1.0000
  S   S179      1.0  0.67499  0.72406  0.62616  1.0000
  H   H776      1.0  0.65355  0.93867  0.80400  1.0000
  Fe  Fe90      1.0  0.70377  0.70786  0.58926  1.0000
  S   S180      1.0  0.69428  0.72349  0.54637  1.0000
  Fe  Fe91      1.0  0.72877  0.71451  0.65229  1.0000
  S   S181      1.0  0.75605  0.73995  0.67980  1.0000
  H   H777      1.0  0.55643  0.67935  0.60078  1.0000
  H   H778      1.0  0.83272  0.70550  0.76149  1.0000
  Fe  Fe92      1.0  0.73056  0.80900  0.85772  1.0000
  S   S182      1.0  0.71177  0.77761  0.87027  1.0000
  S   S183      1.0  0.67612  0.82701  0.84115  1.0000
  Fe  Fe93      1.0  0.82085  0.79922  0.87063  1.0000
  S   S184      1.0  0.80655  0.76753  0.88504  1.0000
  S   S185      1.0  0.88460  0.81247  0.86421  1.0000
  Fe  Fe94      1.0  0.76561  0.76657  0.84588  1.0000
  S   S186      1.0  0.76117  0.73884  0.81655  1.0000
  Fe  Fe95      1.0  0.75361  0.78160  0.90816  1.0000
  S   S187      1.0  0.72421  0.77817  0.95209  1.0000
  S   S188      1.0  0.78191  0.79749  0.83052  1.0000
  S   S189      1.0  0.77056  0.81364  0.89644  1.0000
  C   C652      1.0  0.93335  0.80272  0.87345  1.0000
  C   C653      1.0  0.93817  0.78556  0.89049  1.0000
  C   C654      1.0  0.96832  0.81250  0.86313  1.0000
  H   H779      1.0  0.91174  0.77791  0.89876  1.0000
  H   H780      1.0  0.96506  0.82579  0.84997  1.0000
  H   H781      1.0  0.67685  0.75034  0.81687  1.0000
  H   H782      1.0  0.92100  0.76513  0.74537  1.0000
  H   H783      1.0  0.69299  0.81881  0.93851  1.0000
  C   C655      1.0  0.62205  0.80803  0.96095  1.0000
  C   C656      1.0  0.53416  0.69323  0.63933  1.0000
  C   C657      1.0  0.73025  0.73231  0.52139  1.0000
  C   C658      1.0  0.77191  0.72928  0.52502  1.0000
  H   H784      1.0  0.57832  0.93792  0.83672  1.0000
  C   C659      1.0  0.73305  0.75980  0.97904  1.0000
  C   C660      1.0  0.76035  0.74389  0.97532  1.0000
  H   H785      1.0  0.95083  0.75049  0.81243  1.0000
  H   H786      1.0  0.78307  0.72100  0.54332  1.0000
  C   C661      1.0  0.66703  0.82915  0.93424  1.0000
  H   H787      1.0  0.77700  0.74258  0.95555  1.0000
  H   H788      1.0  0.95526  0.77112  0.78778  1.0000
  C   C662      1.0  0.75646  0.73949  0.71785  1.0000
  C   C663      1.0  0.74868  0.72171  0.73293  1.0000
  C   C664      1.0  0.74975  0.72183  0.76311  1.0000
  C   C665      1.0  0.75830  0.73973  0.77857  1.0000
  C   C666      1.0  0.76545  0.75759  0.76349  1.0000
  C   C667      1.0  0.76482  0.75741  0.73329  1.0000
  H   H789      1.0  0.74256  0.70776  0.72134  1.0000
  H   H790      1.0  0.74438  0.70792  0.77457  1.0000
  H   H791      1.0  0.77181  0.77149  0.77507  1.0000
  H   H792      1.0  0.77074  0.77127  0.72186  1.0000
  C   C668      1.0  0.62185  0.88802  0.87033  1.0000
  C   C669      1.0  0.59862  0.87398  0.85462  1.0000
  C   C670      1.0  0.61569  0.85538  0.84605  1.0000
  C   C671      1.0  0.65594  0.85045  0.85333  1.0000
  C   C672      1.0  0.67909  0.86445  0.86919  1.0000
  C   C673      1.0  0.66217  0.88316  0.87746  1.0000
  H   H793      1.0  0.56749  0.87740  0.84913  1.0000
  H   H794      1.0  0.59750  0.84468  0.83378  1.0000
  H   H795      1.0  0.71024  0.86101  0.87465  1.0000
  H   H796      1.0  0.68049  0.89394  0.88950  1.0000
  C   C674      1.0  0.63200  0.74637  0.75031  1.0000
  H   H797      1.0  0.89505  0.79032  0.77330  1.0000
  Fe  Fe96      1.0  0.72697  0.67197  0.62666  1.0000
  N   N44       1.0  0.75957  0.77200  0.59496  1.0000
  C   C675      1.0  0.77532  0.75114  0.59756  1.0000
  C   C676      1.0  0.78171  0.78523  0.61570  1.0000
  C   C677      1.0  0.71633  0.77152  0.60364  1.0000
  C   C678      1.0  0.76577  0.77933  0.56539  1.0000
  C   C679      1.0  0.73315  0.78469  0.54684  1.0000
  C   C680      1.0  0.80555  0.78105  0.55420  1.0000
  C   C681      1.0  0.65136  0.74063  0.77632  1.0000
  C   C682      1.0  0.51934  0.83438  0.91681  1.0000
  C   C683      1.0  0.64028  0.73728  0.70032  1.0000
  H   H798      1.0  0.80800  0.74999  0.59233  1.0000
  H   H799      1.0  0.77191  0.74531  0.61971  1.0000
  H   H800      1.0  0.75852  0.74063  0.58297  1.0000
  H   H801      1.0  0.81506  0.78475  0.61268  1.0000
  H   H802      1.0  0.77638  0.78046  0.63825  1.0000
  H   H803      1.0  0.77193  0.80126  0.61367  1.0000
  H   H804      1.0  0.71289  0.76605  0.62603  1.0000
  H   H805      1.0  0.70248  0.78682  0.60276  1.0000
  H   H806      1.0  0.69821  0.76093  0.58979  1.0000
  H   H807      1.0  0.70179  0.78327  0.55295  1.0000
  H   H808      1.0  0.83180  0.77684  0.56673  1.0000
  S   S190      1.0  0.58244  0.69693  0.65619  1.0000
  H   H809      1.0  0.66574  0.70907  0.73669  1.0000
  S   S191      1.0  0.67179  0.67852  0.59897  1.0000
  H   H810      1.0  0.63410  0.72590  0.68313  1.0000
  N   N45       1.0  0.62047  0.73164  0.72752  1.0000
  H   H811      1.0  0.66240  0.78656  0.80925  1.0000
  H   H812      1.0  0.62351  0.69986  0.71618  1.0000
  C   C684      1.0  0.65364  0.77545  0.79306  1.0000
  C   C685      1.0  0.56119  0.86433  0.91924  1.0000
  C   C686      1.0  0.97742  0.77862  0.89759  1.0000
  H   H813      1.0  0.71060  0.68023  0.50686  1.0000
  C   C687      1.0  0.63457  0.78157  0.76790  1.0000
  H   H814      1.0  0.63462  0.80901  0.88887  1.0000
  C   C688      1.0  0.53943  0.98556  0.50732  1.0000
  H   H815      1.0  0.60888  0.77278  0.72774  1.0000
  C   C689      1.0  0.77966  0.79308  0.50882  1.0000
  C   C690      1.0  0.74026  0.79159  0.51907  1.0000
  H   H816      1.0  0.65950  0.72519  0.78090  1.0000
  H   H817      1.0  0.56970  0.97938  0.50815  1.0000
  H   H818      1.0  0.53074  0.94457  0.98849  1.0000
  H   H819      1.0  0.55979  0.72834  0.74343  1.0000
  C   C691      1.0  0.52978  0.68413  0.61230  1.0000
  H   H820      1.0  0.83144  0.73422  0.50744  1.0000
  H   H821      1.0  0.65868  0.79252  0.91426  1.0000
  N   N46       1.0  0.59026  0.93477  0.79171  1.0000
  C   C692      1.0  0.63159  0.92672  0.79730  1.0000
  C   C693      1.0  0.57774  0.94699  0.81678  1.0000
  C   C694      1.0  0.56240  0.91707  0.78923  1.0000
  C   C695      1.0  0.58971  0.94781  0.76606  1.0000
  C   C696      1.0  0.55867  0.94649  0.74474  1.0000
  S   S192      1.0  0.69881  0.68572  0.66634  1.0000
  H   H822      1.0  0.56419  0.88065  0.91769  1.0000
  N   N47       1.0  0.62778  0.81800  0.93293  1.0000
  C   C697      1.0  0.55319  0.82240  0.92285  1.0000
  C   C698      1.0  0.63232  0.71046  0.73395  1.0000
  H   H823      1.0  0.63180  0.91570  0.81531  1.0000
  H   H824      1.0  0.64365  0.91885  0.77804  1.0000
  C   C699      1.0  0.62369  0.76730  0.74685  1.0000
  H   H825      1.0  0.54634  0.95278  0.81390  1.0000
  H   H826      1.0  0.59793  0.96028  0.82052  1.0000
  H   H827      1.0  0.56894  0.90786  0.76978  1.0000
  H   H828      1.0  0.56528  0.90685  0.80803  1.0000
  H   H829      1.0  0.53001  0.92178  0.78862  1.0000
  H   H830      1.0  0.53372  0.93592  0.74604  1.0000
  H   H831      1.0  0.67374  0.73833  0.70313  1.0000
  C   C700      1.0  0.61910  0.96341  0.76284  1.0000
  H   H832      1.0  0.98072  0.76560  0.91130  1.0000
  C   C701      1.0  0.63156  0.80214  0.91045  1.0000
  H   H833      1.0  0.60538  0.79156  0.90967  1.0000
  C   C702      1.0  0.55809  0.95957  0.72135  1.0000
  H   H834      1.0  0.66767  0.84065  0.95175  1.0000
  H   H835      1.0  0.61832  0.81943  0.97838  1.0000
  H   H836      1.0  0.90474  0.74188  0.70585  1.0000
  H   H837      1.0  0.61715  0.70478  0.75351  1.0000
  N   N48       1.0  0.89389  0.76402  0.80074  1.0000
  C   C703      1.0  0.93815  0.76548  0.80647  1.0000
  C   C704      1.0  0.87876  0.78418  0.79203  1.0000
  C   C705      1.0  0.87402  0.75882  0.82814  1.0000
  C   C706      1.0  0.88569  0.74914  0.77747  1.0000
  C   C707      1.0  0.86101  0.73165  0.78116  1.0000
  C   C708      1.0  0.90180  0.75224  0.74973  1.0000
  C   C709      1.0  0.85241  0.71847  0.75830  1.0000
  C   C710      1.0  0.89277  0.73902  0.72698  1.0000
  C   C711      1.0  0.86785  0.72225  0.73122  1.0000
  C   C712      1.0  0.61819  0.97641  0.73935  1.0000
  H   H838      1.0  0.71500  0.79516  0.50502  1.0000
  C   C713      1.0  0.81222  0.78774  0.52629  1.0000
  H   H839      1.0  0.58121  0.97117  0.00017  1.0000
  H   H840      1.0  0.88266  0.79564  0.80946  1.0000
  H   H841      1.0  0.84586  0.78347  0.78649  1.0000
  H   H842      1.0  0.84044  0.75816  0.82565  1.0000
  H   H843      1.0  0.88485  0.74411  0.83664  1.0000
  H   H844      1.0  0.88054  0.77034  0.84512  1.0000
  H   H845      1.0  0.84702  0.72800  0.80132  1.0000
  H   H846      1.0  0.64859  0.79841  0.96671  1.0000
  H   H847      1.0  0.54840  0.80627  0.92442  1.0000
  H   H848      1.0  0.58630  0.98501  0.70095  1.0000
  H   H849      1.0  0.86017  0.71222  0.71347  1.0000
  H   H850      1.0  0.94511  0.77617  0.82450  1.0000
  C   C714      1.0  0.66170  0.75503  0.79732  1.0000
  H   H851      1.0  0.62957  0.75197  0.69189  1.0000
  H   H852      1.0  0.62841  0.79751  0.76475  1.0000
  H   H853      1.0  0.53353  0.95870  0.70577  1.0000
  H   H854      1.0  0.56592  0.72039  0.70684  1.0000
  C   C715      1.0  0.57585  0.73183  0.72318  1.0000
  H   H855      1.0  0.56473  0.74666  0.71543  1.0000
  H   H856      1.0  0.64235  0.96608  0.77886  1.0000
  H   H857      1.0  0.84270  0.78828  0.51776  1.0000
  C   C716      1.0  0.59540  0.85249  0.92478  1.0000
  H   H858      1.0  0.62383  0.86054  0.92711  1.0000
  H   H859      1.0  0.83153  0.66047  0.62807  1.0000
  H   H860      1.0  0.59505  0.79791  0.96096  1.0000
  C   C717      1.0  0.76605  0.72960  0.99725  1.0000
  H   H861      1.0  0.78714  0.71733  0.99407  1.0000
  C   C718      1.0  0.79925  0.73662  0.50452  1.0000
  H   H862      1.0  0.64048  0.98844  0.73754  1.0000
  H   H863      1.0  0.53034  0.98782  0.80073  1.0000
  C   C719      1.0  0.51428  0.98909  0.78057  1.0000
  H   H864      1.0  0.50185  0.70614  0.67499  1.0000
  C   C720      1.0  0.49900  0.69917  0.65404  1.0000
