data_image0
_chemical_formula_structural       CHFeC4H2FeS3C2HFeC2SFeS2FeSFeSC6H5C6H4C6H3CH2C3H2C3SHNCHSHC2H4C2SH2NFeNH2C2H2FeCSH2C2H3SHCHSHC2H4CH3CH3C2HNH4NH3C2FeH3CSNC9HSH11C3H4C2HSHC2SCH2CSCHCH5CSHC2HCHCHSHFeHCH2FeSHCSHFeS2FeS2FeSFeS3C2NH2CH2FeS2FeS2FeSFeS3C2H2C4H5C7H3C2HCHC7H4C3H2C3SC2H2S2C6H5C2FeC2NC2H4CH3SHCFeCH5CH8CH5C3H5NC9H13CH2CH4C3H2C2H2SC4H2NC6H4C4HCSHFeCH8C2H3CNCNHCH2CHFeS2HFeCFeCS4H2C3H2FeS2FeSFeSCSHCH2C7H4C6H4C6H5CHC2H6C2NSC3SH2C2H3SH2CH2C2HC2HCFeHC2HC2HSHFeHCNC2HC2NHC4H2CHSHCHSHCSH6C2FeSH3C3HCH5C2NHCHCH3CHCHCHCHCH3CH4SFeSCFeNHCSHFe2S2FeS2FeSFeS3H2FeS2H2C6H4C4HCHCHC6H5C3FeHCHC5H7CH3CHC2S2H4CH2NC6H14S2CHC2SC2H2CHCH5SC4HNHCHSCHSHC2H3CH6CHCH2FeCHSH3CH2CH2NC4H2CH2CH2CH2C2HCFeSFeS2FeS2FeSFeS3H3CH4FeS2FeS2FeSFeS4H6C2HCHCHC3H2C7HFeHC6H2CH3CH2C6H4C3H2C6H4C6HSH2CSCH2CHCH5CH4C9HNH3C3HSH3NC4HC4H4C2H2SH2CH2C2HC2H10CHCHNFeC4HC2H3C2HC2NH6CHCNH4CHC2H3NH3C2Fe2CHSHFeH8NHNFeSHFeS2FeSFeS3CSCSHS2C6H4C3HC2H7CHC4H4C2H2FeCHFeNC9H10CHCSNCSH2C2HCH7CH2Fe2C4H3SFeHC2H2SCHCHCH4C2H2C2H2C6SHC2H2SCHCH3C2HNCSC4HC2HNHCH2SH2C4HCHCH4C2H2C2HCHC2FeCS2HFeCFeS2FeS2FeSFeS3CSFeSHCSCFeC3H2CH3C2H2C6H4C6H4CHSC2HSC2H2CHNS2H5SC3HCH4FeHNC9H14NC5H2CH3FeH3NC9H19C8H3SH2Fe2H5CSH3CH2SCH2S4H2CH3FeHCHCH2S2C2SCS2HCHC2H5CHCHCSHC4H5C6HCH2FeHC2HC2H2CSHSFeCSH2C7H5C6HCH2S2C3HCH2NC6NCH9SH3CH2NH2CHSNHC2FeSNCFe2CHCH4CFeHS2H2CHFeH3CFeHC2H2FeCHCHCH2C4FeSC3FeSC3H3C2HSH2CHCH2CH2CH2C2HNCH2C2H6C3HCFe2S2FeS2FeS2FeSFeS5H2CHSFeS2HC4H3CFeCH2C3H2C6H4C6H8C2H2CH2CH2C3H6C4H2C2NCHCH2C2HCNC6H2NH9CH2CHCH4NCH4CH2C3NCH3NC9H14CHCHCHSH2C2HCFeSHCHSH2SHC3HCH2C2HCH2FeS2FeS2FeSFeS3CSHFeSHFeSFeCNCHCSC2HCH3C2S2H6C4H2CHCH2CHCH2C6H4C2H7CH2FeCHSC2HNC2H2CNCH2C3NCH6CHCHC2HCSHCFeSFeNC9H8CH6CHCNSHCHCH3C6H2S2CSH4C3H2C2HC2HCH4SHCFeHSHCS2FeH2CSCFeS3CHSH3CH3SHS2CS3H2C4H3SC6HCHC7H2C2HC7H7SCHCHC8H2C7H4FeC3HCH2CHSFeCHSH2CNC9H14NHCHC6HCS2HSNCH3FeCHFeNHCH3Fe2HCH7NFeCHCH5CHC2FeNHSH2SHC2HCH4SH3CH3FeHCH2FeS2FeS2FeSFeS3FeHSFeS2HCFeS3CH2FeCHC3H2CHCH2CHCHCHCH2C3HSCH2C3HC2NC6H3NC9H20CH2CH3CHSC2H2CHC3N2FeHCHC2HCH5CH2C2HCH2SHC2HCSHC2H5SH4CH4CH2CH2C
_chemical_formula_sum              "C960 H1152 Fe128 S256 N64"
_cell_length_a       38.438
_cell_length_b       41.7565
_cell_length_c       70.4389
_cell_angle_alpha    90.077
_cell_angle_beta     89.9897
_cell_angle_gamma    90.4451

_space_group_name_H-M_alt    "P 1"
_space_group_IT_number       1

loop_
  _space_group_symop_operation_xyz
  'x, y, z'

loop_
  _atom_site_type_symbol
  _atom_site_label
  _atom_site_symmetry_multiplicity
  _atom_site_fract_x
  _atom_site_fract_y
  _atom_site_fract_z
  _atom_site_occupancy
  C   C1        1.0  0.11225  0.43145  0.06431  1.0000
  H   H1        1.0  0.11205  0.48658  0.19506  1.0000
  Fe  Fe1       1.0  0.10013  0.47835  0.30597  1.0000
  C   C2        1.0  0.43425  0.13480  0.29729  1.0000
  C   C3        1.0  0.09172  0.39237  0.04200  1.0000
  C   C4        1.0  0.37357  0.41779  0.14010  1.0000
  C   C5        1.0  0.41283  0.16027  0.26878  1.0000
  H   H2        1.0  0.38270  0.47697  0.12251  1.0000
  H   H3        1.0  0.41979  0.06512  0.18253  1.0000
  Fe  Fe2       1.0  0.19569  0.38875  0.10543  1.0000
  S   S1        1.0  0.14877  0.37245  0.12229  1.0000
  S   S2        1.0  0.32034  0.34352  0.09836  1.0000
  S   S3        1.0  0.22029  0.35791  0.08299  1.0000
  C   C6        1.0  0.17696  0.45948  0.16710  1.0000
  C   C7        1.0  0.40697  0.42775  0.14665  1.0000
  H   H4        1.0  0.44296  0.21043  0.33077  1.0000
  Fe  Fe3       1.0  0.42242  0.01455  0.33132  1.0000
  C   C8        1.0  0.12166  0.37575  0.07030  1.0000
  C   C9        1.0  0.12625  0.46965  0.18649  1.0000
  S   S4        1.0  0.27481  0.41787  0.07646  1.0000
  Fe  Fe4       1.0  0.41927  0.20665  0.16365  1.0000
  S   S5        1.0  0.40337  0.15828  0.17563  1.0000
  S   S6        1.0  0.37366  0.24138  0.15970  1.0000
  Fe  Fe5       1.0  0.43943  0.13821  0.15361  1.0000
  S   S7        1.0  0.43751  0.09565  0.13353  1.0000
  Fe  Fe6       1.0  0.45035  0.16349  0.19472  1.0000
  S   S8        1.0  0.45328  0.18581  0.14067  1.0000
  C   C10       1.0  0.35385  0.01798  0.12381  1.0000
  C   C11       1.0  0.34701  0.04380  0.13610  1.0000
  C   C12       1.0  0.37237  0.06775  0.13946  1.0000
  C   C13       1.0  0.40478  0.06604  0.13047  1.0000
  C   C14       1.0  0.41179  0.03998  0.11849  1.0000
  C   C15       1.0  0.38655  0.01604  0.11522  1.0000
  H   H5        1.0  0.32177  0.04548  0.14281  1.0000
  H   H6        1.0  0.36668  0.08747  0.14888  1.0000
  H   H7        1.0  0.43681  0.03835  0.11153  1.0000
  H   H8        1.0  0.39984  0.15866  0.25514  1.0000
  H   H9        1.0  0.06641  0.39121  0.17219  1.0000
  C   C16       1.0  0.33383  0.31407  0.11516  1.0000
  C   C17       1.0  0.31466  0.30712  0.13156  1.0000
  C   C18       1.0  0.32722  0.28468  0.14486  1.0000
  C   C19       1.0  0.35896  0.26871  0.14200  1.0000
  C   C20       1.0  0.37795  0.27536  0.12548  1.0000
  C   C21       1.0  0.36549  0.29796  0.11223  1.0000
  H   H10       1.0  0.29032  0.31921  0.13409  1.0000
  H   H11       1.0  0.31226  0.27978  0.15756  1.0000
  H   H12       1.0  0.40250  0.26353  0.12307  1.0000
  H   H13       1.0  0.38068  0.30324  0.09966  1.0000
  C   C22       1.0  0.06542  0.44862  0.13093  1.0000
  C   C23       1.0  0.05775  0.41642  0.13460  1.0000
  C   C24       1.0  0.08337  0.39301  0.13180  1.0000
  C   C25       1.0  0.11667  0.40180  0.12546  1.0000
  C   C26       1.0  0.12424  0.43403  0.12200  1.0000
  C   C27       1.0  0.09868  0.45734  0.12460  1.0000
  H   H14       1.0  0.03197  0.40946  0.13924  1.0000
  H   H15       1.0  0.07733  0.36806  0.13445  1.0000
  H   H16       1.0  0.15008  0.44115  0.11783  1.0000
  C   C28       1.0  0.01734  0.47832  0.23023  1.0000
  H   H17       1.0  0.46058  0.05162  0.16161  1.0000
  H   H18       1.0  0.14769  0.37813  0.06345  1.0000
  C   C29       1.0  0.47628  0.13532  0.33070  1.0000
  C   C30       1.0  0.04945  0.47352  0.26021  1.0000
  C   C31       1.0  0.42243  0.37306  0.15428  1.0000
  H   H19       1.0  0.03504  0.43311  0.27749  1.0000
  H   H20       1.0  0.12532  0.37946  0.08577  1.0000
  C   C32       1.0  0.08441  0.42897  0.21367  1.0000
  C   C33       1.0  0.33759  0.43102  0.11303  1.0000
  C   C34       1.0  0.11365  0.43790  0.18369  1.0000
  S   S9        1.0  0.24612  0.40187  0.11959  1.0000
  H   H21       1.0  0.36705  0.06133  0.07979  1.0000
  N   N1        1.0  0.46846  0.16682  0.32195  1.0000
  C   C35       1.0  0.06276  0.39565  0.07266  1.0000
  H   H22       1.0  0.30783  0.04459  0.08907  1.0000
  S   S10       1.0  0.45470  0.14478  0.22508  1.0000
  H   H23       1.0  0.34248  0.21102  0.10870  1.0000
  C   C36       1.0  0.99860  0.45027  0.23422  1.0000
  C   C37       1.0  0.30858  0.99988  0.32885  1.0000
  H   H24       1.0  0.26984  0.39919  0.02395  1.0000
  H   H25       1.0  0.34108  0.37505  0.13625  1.0000
  H   H26       1.0  0.05544  0.47359  0.19188  1.0000
  H   H27       1.0  0.36919  0.18419  0.13704  1.0000
  C   C38       1.0  0.41851  0.06701  0.21268  1.0000
  C   C39       1.0  0.44915  0.16412  0.30381  1.0000
  S   S11       1.0  0.48440  0.13910  0.17362  1.0000
  H   H28       1.0  0.44744  0.00974  0.24288  1.0000
  H   H29       1.0  0.33320  0.15719  0.13845  1.0000
  N   N2        1.0  0.09644  0.39901  0.06255  1.0000
  Fe  Fe7       1.0  0.22228  0.40286  0.06526  1.0000
  N   N3        1.0  0.34741  0.44040  0.13264  1.0000
  H   H30       1.0  0.07187  0.40847  0.03572  1.0000
  H   H31       1.0  0.48411  0.11827  0.25940  1.0000
  C   C40       1.0  0.44397  0.19156  0.29229  1.0000
  C   C41       1.0  0.42595  0.05167  0.22974  1.0000
  H   H32       1.0  0.13743  0.43325  0.05649  1.0000
  H   H33       1.0  0.18039  0.41225  0.15511  1.0000
  Fe  Fe8       1.0  0.24586  0.44391  0.09967  1.0000
  C   C42       1.0  0.01216  0.36243  0.08144  1.0000
  S   S12       1.0  0.09822  0.43697  0.32693  1.0000
  H   H34       1.0  0.40576  0.11039  0.27517  1.0000
  H   H35       1.0  0.39034  0.11303  0.08912  1.0000
  C   C43       1.0  0.41645  0.13308  0.28000  1.0000
  C   C44       1.0  0.03018  0.44588  0.26442  1.0000
  H   H36       1.0  0.08343  0.36727  0.03920  1.0000
  H   H37       1.0  0.42373  0.21051  0.26607  1.0000
  H   H38       1.0  0.10655  0.41413  0.21864  1.0000
  S   S13       1.0  0.19397  0.43238  0.08704  1.0000
  H   H39       1.0  0.04505  0.38713  0.19457  1.0000
  C   C45       1.0  0.42650  0.05237  0.19536  1.0000
  H   H40       1.0  0.06048  0.44380  0.08541  1.0000
  S   S14       1.0  0.19698  0.40554  0.03581  1.0000
  H   H41       1.0  0.36088  0.42921  0.10369  1.0000
  C   C46       1.0  0.35963  0.47423  0.13194  1.0000
  C   C47       1.0  0.13429  0.41739  0.17223  1.0000
  H   H42       1.0  0.28136  0.48538  0.32678  1.0000
  H   H43       1.0  0.32413  0.40744  0.11248  1.0000
  H   H44       1.0  0.00534  0.43613  0.10132  1.0000
  H   H45       1.0  0.11653  0.39590  0.03398  1.0000
  C   C48       1.0  0.04788  0.42083  0.08355  1.0000
  H   H46       1.0  0.06049  0.42021  0.22103  1.0000
  H   H47       1.0  0.41990  0.06322  0.24312  1.0000
  H   H48       1.0  0.40675  0.09056  0.21289  1.0000
  C   C49       1.0  0.25369  0.39990  0.01139  1.0000
  H   H49       1.0  0.11817  0.43740  0.07939  1.0000
  H   H50       1.0  0.41528  0.45249  0.14649  1.0000
  H   H51       1.0  0.29157  0.11548  0.32463  1.0000
  C   C50       1.0  0.44272  0.02192  0.19463  1.0000
  C   C51       1.0  0.01601  0.41674  0.09288  1.0000
  H   H52       1.0  0.45631  0.41354  0.15848  1.0000
  N   N4        1.0  0.08071  0.42733  0.19273  1.0000
  H   H53       1.0  0.08982  0.37633  0.19264  1.0000
  H   H54       1.0  0.47883  0.01772  0.15045  1.0000
  H   H55       1.0  0.33103  0.01222  0.32193  1.0000
  H   H56       1.0  0.11325  0.35048  0.06826  1.0000
  N   N5        1.0  0.45054  0.00671  0.17611  1.0000
  H   H57       1.0  0.38340  0.33725  0.14849  1.0000
  H   H58       1.0  0.43600  0.11278  0.30523  1.0000
  H   H59       1.0  0.99936  0.46499  0.32454  1.0000
  C   C52       1.0  0.38994  0.36259  0.14803  1.0000
  C   C53       1.0  0.21761  0.40271  0.01325  1.0000
  Fe  Fe9       1.0  0.27125  0.37442  0.09576  1.0000
  H   H60       1.0  0.32227  0.44630  0.15970  1.0000
  H   H61       1.0  0.04973  0.44947  0.17106  1.0000
  H   H62       1.0  0.30397  0.41508  0.14535  1.0000
  C   C54       1.0  0.45014  0.00705  0.21231  1.0000
  S   S15       1.0  0.15647  0.48955  0.31228  1.0000
  N   N6        1.0  0.35648  0.16102  0.11053  1.0000
  C   C55       1.0  0.35886  0.16100  0.13152  1.0000
  C   C56       1.0  0.39151  0.16929  0.10297  1.0000
  C   C57       1.0  0.33241  0.18682  0.10462  1.0000
  C   C58       1.0  0.34332  0.12940  0.10400  1.0000
  C   C59       1.0  0.30939  0.11882  0.10914  1.0000
  C   C60       1.0  0.36382  0.10780  0.09315  1.0000
  C   C61       1.0  0.29669  0.08873  0.10361  1.0000
  C   C62       1.0  0.35077  0.07783  0.08764  1.0000
  C   C63       1.0  0.31732  0.06832  0.09285  1.0000
  H   H63       1.0  0.01236  0.49117  0.21721  1.0000
  S   S16       1.0  0.46373  0.21304  0.18464  1.0000
  H   H64       1.0  0.37642  0.14167  0.13649  1.0000
  H   H65       1.0  0.41159  0.15219  0.10807  1.0000
  H   H66       1.0  0.40026  0.19351  0.10776  1.0000
  H   H67       1.0  0.39165  0.16952  0.08717  1.0000
  H   H68       1.0  0.30645  0.18469  0.11145  1.0000
  H   H69       1.0  0.05384  0.34591  0.06425  1.0000
  H   H70       1.0  0.32848  0.18663  0.08896  1.0000
  H   H71       1.0  0.29266  0.13345  0.11783  1.0000
  H   H72       1.0  0.08907  0.45380  0.21881  1.0000
  H   H73       1.0  0.36607  0.48353  0.14633  1.0000
  H   H74       1.0  0.31948  0.44853  0.10648  1.0000
  C   C64       1.0  0.07024  0.39401  0.18776  1.0000
  C   C65       1.0  0.05198  0.44862  0.18679  1.0000
  C   C66       1.0  0.04393  0.36627  0.07197  1.0000
  H   H75       1.0  0.20093  0.46780  0.16060  1.0000
  H   H76       1.0  0.45354  0.21486  0.29656  1.0000
  H   H77       1.0  0.12679  0.39301  0.16898  1.0000
  H   H78       1.0  0.19099  0.48283  0.12421  1.0000
  C   C67       1.0  0.31595  0.43935  0.14483  1.0000
  C   C68       1.0  0.43093  0.40556  0.15361  1.0000
  H   H79       1.0  0.27103  0.08076  0.10802  1.0000
  S   S17       1.0  0.03412  0.47869  0.13362  1.0000
  H   H80       1.0  0.09500  0.45016  0.05833  1.0000
  C   C69       1.0  0.42646  0.18947  0.27493  1.0000
  C   C70       1.0  0.36584  0.38451  0.14104  1.0000
  S   S18       1.0  0.47601  0.00305  0.32062  1.0000
  C   C71       1.0  0.16546  0.42818  0.16412  1.0000
  H   H81       1.0  0.29543  0.45587  0.13956  1.0000
  H   H82       1.0  0.44104  0.35587  0.15960  1.0000
  C   C72       1.0  0.15735  0.48023  0.17821  1.0000
  S   S19       1.0  0.08260  0.48868  0.27548  1.0000
  C   C73       1.0  0.48881  0.15829  0.24024  1.0000
  H   H83       1.0  0.02644  0.44031  0.19247  1.0000
  C   C74       1.0  0.44168  0.02172  0.22956  1.0000
  H   H84       1.0  0.33911  0.49032  0.12614  1.0000
  H   H85       1.0  0.30492  0.05931  0.32060  1.0000
  H   H86       1.0  0.49076  0.11963  0.32070  1.0000
  H   H87       1.0  0.40328  0.02308  0.16278  1.0000
  H   H88       1.0  0.37954  0.13079  0.33142  1.0000
  C   C75       1.0  0.99822  0.38763  0.09187  1.0000
  S   S20       1.0  0.40358  0.06623  0.33075  1.0000
  H   H89       1.0  0.10493  0.48225  0.12198  1.0000
  C   C76       1.0  0.47298  0.02829  0.16459  1.0000
  C   C77       1.0  0.04278  0.48968  0.24307  1.0000
  H   H90       1.0  0.99834  0.33970  0.08084  1.0000
  C   C78       1.0  0.00502  0.43430  0.25145  1.0000
  H   H91       1.0  0.39226  0.99635  0.10580  1.0000
  C   C79       1.0  0.41761  0.00068  0.16568  1.0000
  H   H92       1.0  0.49290  0.07482  0.22326  1.0000
  S   S21       1.0  0.26098  0.49412  0.10964  1.0000
  H   H93       1.0  0.28485  0.00371  0.32014  1.0000
  Fe  Fe10      1.0  0.15344  0.45130  0.33486  1.0000
  H   H94       1.0  0.45217  0.12259  0.33532  1.0000
  C   C80       1.0  0.29647  0.06681  0.33450  1.0000
  H   H95       1.0  0.39113  0.19501  0.52111  1.0000
  H   H96       1.0  0.48275  0.19606  0.53892  1.0000
  Fe  Fe11      1.0  0.09085  0.44019  0.65207  1.0000
  S   S22       1.0  0.05618  0.41485  0.63115  1.0000
  H   H97       1.0  0.43946  0.11554  0.37845  1.0000
  C   C81       1.0  0.49393  0.21815  0.38626  1.0000
  S   S23       1.0  0.14114  0.45248  0.63789  1.0000
  H   H98       1.0  0.48304  0.03917  0.60153  1.0000
  Fe  Fe12      1.0  0.30656  0.27590  0.59294  1.0000
  S   S24       1.0  0.34575  0.27932  0.56905  1.0000
  S   S25       1.0  0.26603  0.31603  0.59477  1.0000
  Fe  Fe13      1.0  0.32779  0.20647  0.60221  1.0000
  S   S26       1.0  0.36738  0.20492  0.57897  1.0000
  S   S27       1.0  0.31439  0.16140  0.61894  1.0000
  Fe  Fe14      1.0  0.38217  0.25411  0.58898  1.0000
  S   S28       1.0  0.43990  0.26484  0.58751  1.0000
  Fe  Fe15      1.0  0.32835  0.23004  0.56070  1.0000
  S   S29       1.0  0.31916  0.21125  0.53072  1.0000
  S   S30       1.0  0.34479  0.25464  0.61376  1.0000
  S   S31       1.0  0.28685  0.22761  0.58313  1.0000
  C   C82       1.0  0.29423  0.04536  0.35015  1.0000
  C   C83       1.0  0.12189  0.26875  0.62692  1.0000
  N   N7        1.0  0.11609  0.32928  0.63095  1.0000
  H   H99       1.0  0.25885  0.28418  0.55951  1.0000
  H   H100      1.0  0.21413  0.46664  0.64262  1.0000
  C   C84       1.0  0.18876  0.36108  0.35128  1.0000
  H   H101      1.0  0.39644  0.23304  0.49848  1.0000
  H   H102      1.0  0.42146  0.17433  0.33791  1.0000
  Fe  Fe16      1.0  0.29371  0.26765  0.38588  1.0000
  S   S32       1.0  0.33735  0.29741  0.39794  1.0000
  S   S33       1.0  0.24148  0.28626  0.37470  1.0000
  Fe  Fe17      1.0  0.33148  0.20459  0.39526  1.0000
  S   S34       1.0  0.37696  0.23011  0.40859  1.0000
  S   S35       1.0  0.33222  0.15008  0.39544  1.0000
  Fe  Fe18      1.0  0.33749  0.26214  0.42224  1.0000
  S   S36       1.0  0.34293  0.28332  0.45201  1.0000
  Fe  Fe19      1.0  0.37321  0.26266  0.38336  1.0000
  S   S37       1.0  0.41994  0.27735  0.36549  1.0000
  S   S38       1.0  0.29178  0.23411  0.41107  1.0000
  S   S39       1.0  0.32956  0.23541  0.36923  1.0000
  C   C85       1.0  0.36110  0.14059  0.35977  1.0000
  C   C86       1.0  0.35453  0.12797  0.37781  1.0000
  H   H103      1.0  0.35357  0.16491  0.35657  1.0000
  H   H104      1.0  0.03102  0.41255  0.35654  1.0000
  C   C87       1.0  0.45812  0.25467  0.36814  1.0000
  C   C88       1.0  0.46357  0.23622  0.38437  1.0000
  C   C89       1.0  0.36398  0.09619  0.38165  1.0000
  C   C90       1.0  0.12523  0.34715  0.64852  1.0000
  H   H105      1.0  0.17347  0.30006  0.41727  1.0000
  H   H106      1.0  0.47844  0.18574  0.60193  1.0000
  H   H107      1.0  0.44466  0.23621  0.39564  1.0000
  H   H108      1.0  0.49264  0.13798  0.34365  1.0000
  H   H109      1.0  0.46636  0.04497  0.62534  1.0000
  C   C91       1.0  0.39664  0.09437  0.64473  1.0000
  C   C92       1.0  0.21356  0.38572  0.35052  1.0000
  C   C93       1.0  0.24761  0.37948  0.35681  1.0000
  C   C94       1.0  0.25672  0.34915  0.36402  1.0000
  C   C95       1.0  0.23183  0.32458  0.36502  1.0000
  C   C96       1.0  0.19782  0.33075  0.35856  1.0000
  C   C97       1.0  0.47061  0.07449  0.37149  1.0000
  H   H110      1.0  0.27458  0.13697  0.35598  1.0000
  H   H111      1.0  0.28296  0.34478  0.36887  1.0000
  H   H112      1.0  0.26906  0.46041  0.65698  1.0000
  C   C98       1.0  0.17385  0.30138  0.63028  1.0000
  C   C99       1.0  0.22131  0.49046  0.63665  1.0000
  H   H113      1.0  0.07034  0.30795  0.64362  1.0000
  C   C100      1.0  0.37962  0.07712  0.36759  1.0000
  H   H114      1.0  0.23134  0.38344  0.40094  1.0000
  C   C101      1.0  0.46906  0.24495  0.47249  1.0000
  C   C102      1.0  0.32574  0.23187  0.50901  1.0000
  C   C103      1.0  0.32334  0.21464  0.49188  1.0000
  C   C104      1.0  0.32880  0.22992  0.47429  1.0000
  C   C105      1.0  0.33661  0.26266  0.47369  1.0000
  C   C106      1.0  0.33922  0.27984  0.49081  1.0000
  C   C107      1.0  0.33373  0.26460  0.50839  1.0000
  H   H115      1.0  0.31721  0.18931  0.49219  1.0000
  H   H116      1.0  0.32675  0.21644  0.46119  1.0000
  H   H117      1.0  0.34531  0.30518  0.49044  1.0000
  H   H118      1.0  0.33596  0.27825  0.52137  1.0000
  C   C108      1.0  0.40599  0.12511  0.63826  1.0000
  C   C109      1.0  0.38133  0.14549  0.62992  1.0000
  C   C110      1.0  0.34666  0.13557  0.62827  1.0000
  H   H119      1.0  0.43251  0.13337  0.63966  1.0000
  H   H120      1.0  0.38899  0.16913  0.62514  1.0000
  C   C111      1.0  0.46339  0.25173  0.60741  1.0000
  C   C112      1.0  0.44589  0.24145  0.62369  1.0000
  C   C113      1.0  0.46471  0.23147  0.63962  1.0000
  S   S40       1.0  0.13790  0.48661  0.35743  1.0000
  C   C114      1.0  0.17883  0.24419  0.62576  1.0000
  C   C115      1.0  0.46613  0.21647  0.54332  1.0000
  H   H121      1.0  0.41780  0.24163  0.62416  1.0000
  H   H122      1.0  0.45087  0.22428  0.65231  1.0000
  S   S41       1.0  0.20367  0.42470  0.34188  1.0000
  S   S42       1.0  0.04307  0.47746  0.37124  1.0000
  C   C116      1.0  0.22959  0.38083  0.64406  1.0000
  C   C117      1.0  0.25498  0.35733  0.64723  1.0000
  C   C118      1.0  0.26691  0.33763  0.63231  1.0000
  C   C119      1.0  0.25374  0.34139  0.61394  1.0000
  C   C120      1.0  0.22888  0.36539  0.61068  1.0000
  C   C121      1.0  0.21680  0.38496  0.62563  1.0000
  H   H123      1.0  0.26525  0.35404  0.66140  1.0000
  H   H124      1.0  0.28606  0.31936  0.63508  1.0000
  H   H125      1.0  0.21862  0.36862  0.59652  1.0000
  H   H126      1.0  0.19758  0.40314  0.62288  1.0000
  H   H127      1.0  0.29898  0.47172  0.61676  1.0000
  C   C122      1.0  0.42395  0.23474  0.49564  1.0000
  C   C123      1.0  0.01155  0.41791  0.36713  1.0000
  Fe  Fe20      1.0  0.16622  0.43540  0.66447  1.0000
  C   C124      1.0  0.27611  0.48520  0.65233  1.0000
  C   C125      1.0  0.19437  0.27410  0.62829  1.0000
  N   N8        1.0  0.43717  0.22169  0.52972  1.0000
  C   C126      1.0  0.41548  0.19211  0.52944  1.0000
  C   C127      1.0  0.41604  0.24844  0.53721  1.0000
  H   H128      1.0  0.38755  0.05311  0.37104  1.0000
  H   H129      1.0  0.23298  0.22167  0.50681  1.0000
  H   H130      1.0  0.40697  0.18500  0.54396  1.0000
  H   H131      1.0  0.22002  0.24004  0.55654  1.0000
  C   C128      1.0  0.25368  0.30397  0.48407  1.0000
  H   H132      1.0  0.22951  0.32877  0.41415  1.0000
  H   H133      1.0  0.35842  0.01817  0.35178  1.0000
  H   H134      1.0  0.19492  0.22308  0.62431  1.0000
  S   S43       1.0  0.08367  0.48931  0.66426  1.0000
  H   H135      1.0  0.48996  0.14868  0.38815  1.0000
  C   C129      1.0  0.48380  0.25553  0.35396  1.0000
  Fe  Fe21      1.0  0.08340  0.47495  0.34821  1.0000
  C   C130      1.0  0.46549  0.10574  0.37777  1.0000
  H   H136      1.0  0.10826  0.36839  0.65045  1.0000
  H   H137      1.0  0.31037  0.09697  0.63356  1.0000
  H   H138      1.0  0.06300  0.34595  0.63279  1.0000
  H   H139      1.0  0.25662  0.47185  0.60603  1.0000
  H   H140      1.0  0.26893  0.31040  0.54041  1.0000
  C   C131      1.0  0.13699  0.29968  0.62957  1.0000
  H   H141      1.0  0.26714  0.39822  0.35614  1.0000
  H   H142      1.0  0.48249  0.23842  0.54500  1.0000
  H   H143      1.0  0.25892  0.27715  0.45813  1.0000
  H   H144      1.0  0.30499  0.48611  0.65128  1.0000
  H   H145      1.0  0.17844  0.31187  0.35918  1.0000
  H   H146      1.0  0.18718  0.32391  0.63228  1.0000
  H   H147      1.0  0.45277  0.08675  0.60574  1.0000
  H   H148      1.0  0.28619  0.27065  0.54063  1.0000
  C   C132      1.0  0.25236  0.27622  0.47312  1.0000
  H   H149      1.0  0.43692  0.14096  0.59758  1.0000
  H   H150      1.0  0.16281  0.36527  0.34604  1.0000
  H   H151      1.0  0.42991  0.17171  0.52312  1.0000
  H   H152      1.0  0.26100  0.32645  0.47743  1.0000
  H   H153      1.0  0.43084  0.27146  0.53691  1.0000
  C   C133      1.0  0.37582  0.12119  0.34553  1.0000
  C   C134      1.0  0.14268  0.24150  0.62513  1.0000
  C   C135      1.0  0.01115  0.41408  0.63501  1.0000
  H   H154      1.0  0.15235  0.35668  0.64839  1.0000
  H   H155      1.0  0.27105  0.10127  0.38370  1.0000
  H   H156      1.0  0.20100  0.22912  0.53424  1.0000
  H   H157      1.0  0.17824  0.28475  0.53000  1.0000
  H   H158      1.0  0.19544  0.29220  0.55344  1.0000
  N   N9        1.0  0.11075  0.38319  0.38942  1.0000
  C   C136      1.0  0.09399  0.36038  0.37597  1.0000
  C   C137      1.0  0.08640  0.38943  0.40531  1.0000
  C   C138      1.0  0.11623  0.41382  0.37910  1.0000
  C   C139      1.0  0.14337  0.36939  0.39696  1.0000
  C   C140      1.0  0.17601  0.38568  0.39606  1.0000
  C   C141      1.0  0.14315  0.33856  0.40547  1.0000
  C   C142      1.0  0.20649  0.37126  0.40256  1.0000
  C   C143      1.0  0.17389  0.32424  0.41167  1.0000
  C   C144      1.0  0.20552  0.34046  0.41008  1.0000
  H   H159      1.0  0.08448  0.33824  0.38304  1.0000
  H   H160      1.0  0.07082  0.37096  0.36895  1.0000
  H   H161      1.0  0.11250  0.35306  0.36464  1.0000
  H   H162      1.0  0.07901  0.36713  0.41297  1.0000
  H   H163      1.0  0.06174  0.40048  0.40023  1.0000
  H   H164      1.0  0.09823  0.40613  0.41588  1.0000
  H   H165      1.0  0.13462  0.41081  0.36700  1.0000
  H   H166      1.0  0.09150  0.42317  0.37313  1.0000
  H   H167      1.0  0.12633  0.43300  0.38865  1.0000
  H   H168      1.0  0.17908  0.40908  0.38975  1.0000
  H   H169      1.0  0.11932  0.32495  0.40702  1.0000
  H   H170      1.0  0.47390  0.32786  0.37996  1.0000
  H   H171      1.0  0.22256  0.27624  0.62866  1.0000
  C   C145      1.0  0.48447  0.23219  0.50500  1.0000
  H   H172      1.0  0.24444  0.22535  0.47309  1.0000
  H   H173      1.0  0.44867  0.05979  0.36721  1.0000
  C   C146      1.0  0.01164  0.44781  0.37613  1.0000
  H   H174      1.0  0.35437  0.06071  0.64783  1.0000
  H   H175      1.0  0.20649  0.31841  0.53443  1.0000
  H   H176      1.0  0.24698  0.22348  0.53855  1.0000
  H   H177      1.0  0.24860  0.32479  0.51145  1.0000
  C   C147      1.0  0.36210  0.08415  0.64277  1.0000
  C   C148      1.0  0.24427  0.24701  0.48161  1.0000
  C   C149      1.0  0.44880  0.22942  0.51019  1.0000
  H   H178      1.0  0.35910  0.08631  0.39560  1.0000
  H   H179      1.0  0.21954  0.48971  0.33760  1.0000
  C   C150      1.0  0.38508  0.08935  0.34932  1.0000
  C   C151      1.0  0.46301  0.13625  0.60271  1.0000
  H   H180      1.0  0.47666  0.25092  0.45808  1.0000
  H   H181      1.0  0.46036  0.18712  0.34980  1.0000
  S   S44       1.0  0.42888  0.07093  0.65616  1.0000
  C   C152      1.0  0.27704  0.09128  0.36985  1.0000
  C   C153      1.0  0.27916  0.11153  0.35422  1.0000
  C   C154      1.0  0.43395  0.24250  0.47713  1.0000
  C   C155      1.0  0.33718  0.10481  0.63471  1.0000
  H   H182      1.0  0.15149  0.35742  0.61378  1.0000
  H   H183      1.0  0.33546  0.01468  0.37392  1.0000
  N   N10       1.0  0.23206  0.27246  0.53346  1.0000
  C   C156      1.0  0.26278  0.28505  0.54387  1.0000
  C   C157      1.0  0.20171  0.29283  0.53799  1.0000
  C   C158      1.0  0.22459  0.23983  0.54092  1.0000
  C   C159      1.0  0.23884  0.27321  0.51275  1.0000
  C   C160      1.0  0.23776  0.24530  0.50113  1.0000
  C   C161      1.0  0.24687  0.30264  0.50356  1.0000
  H   H184      1.0  0.01405  0.42702  0.66457  1.0000
  H   H185      1.0  0.06855  0.31194  0.61796  1.0000
  H   H186      1.0  0.28394  0.04442  0.38069  1.0000
  H   H187      1.0  0.13072  0.21810  0.62321  1.0000
  C   C162      1.0  0.07792  0.32325  0.63135  1.0000
  C   C163      1.0  0.47258  0.10501  0.60744  1.0000
  C   C164      1.0  0.27062  0.46942  0.61974  1.0000
  C   C165      1.0  0.12369  0.35001  0.61436  1.0000
  H   H188      1.0  0.11754  0.33745  0.60081  1.0000
  C   C166      1.0  0.28454  0.05873  0.36793  1.0000
  S   S45       1.0  0.21491  0.40450  0.66346  1.0000
  H   H189      1.0  0.26552  0.44446  0.62475  1.0000
  Fe  Fe22      1.0  0.43343  0.01785  0.66407  1.0000
  C   C167      1.0  0.49395  0.12438  0.38324  1.0000
  H   H190      1.0  0.41424  0.24672  0.46636  1.0000
  H   H191      1.0  0.45622  0.21081  0.55785  1.0000
  H   H192      1.0  0.39168  0.25177  0.52909  1.0000
  H   H193      1.0  0.10822  0.37249  0.61476  1.0000
  H   H194      1.0  0.40804  0.24421  0.55216  1.0000
  H   H195      1.0  0.09412  0.26491  0.62619  1.0000
  H   H196      1.0  0.48003  0.27026  0.34151  1.0000
  H   H197      1.0  0.12236  0.33174  0.66131  1.0000
  C   C168      1.0  0.33648  0.00580  0.35905  1.0000
  C   C169      1.0  0.48630  0.16157  0.60528  1.0000
  H   H198      1.0  0.47434  0.12475  0.66368  1.0000
  H   H199      1.0  0.99998  0.40039  0.60610  1.0000
  H   H200      1.0  0.02281  0.48570  0.61705  1.0000
  C   C170      1.0  0.49020  0.04064  0.61680  1.0000
  N   N11       1.0  0.25940  0.49349  0.63396  1.0000
  C   C171      1.0  0.28887  0.09935  0.33660  1.0000
  N   N12       1.0  0.30353  0.01106  0.34870  1.0000
  H   H201      1.0  0.46908  0.16742  0.66134  1.0000
  C   C172      1.0  0.99708  0.42086  0.65286  1.0000
  H   H202      1.0  0.20652  0.49313  0.62319  1.0000
  H   H203      1.0  0.29457  0.49292  0.35052  1.0000
  C   C173      1.0  0.44749  0.18547  0.33567  1.0000
  H   H204      1.0  0.27487  0.06042  0.88027  1.0000
  Fe  Fe23      1.0  0.23415  0.45028  0.89237  1.0000
  S   S46       1.0  0.28117  0.42551  0.90410  1.0000
  S   S47       1.0  0.02878  0.47819  0.86771  1.0000
  H   H205      1.0  0.49085  0.00782  0.87441  1.0000
  Fe  Fe24      1.0  0.26943  0.38487  0.88408  1.0000
  C   C174      1.0  0.31395  0.33012  0.92071  1.0000
  Fe  Fe25      1.0  0.11244  0.46997  0.68961  1.0000
  C   C175      1.0  0.01181  0.45430  0.76054  1.0000
  S   S48       1.0  0.19873  0.42921  0.91449  1.0000
  S   S49       1.0  0.14009  0.37065  0.88341  1.0000
  S   S50       1.0  0.31627  0.36551  0.86773  1.0000
  S   S51       1.0  0.23516  0.35918  0.90505  1.0000
  H   H206      1.0  0.49124  0.07196  0.84109  1.0000
  H   H207      1.0  0.28839  0.11231  0.86594  1.0000
  C   C176      1.0  0.19590  0.49548  0.94660  1.0000
  C   C177      1.0  0.37319  0.28514  0.91415  1.0000
  C   C178      1.0  0.39396  0.26548  0.90283  1.0000
  H   H208      1.0  0.10198  0.47370  0.92854  1.0000
  H   H209      1.0  0.34696  0.37959  0.90507  1.0000
  Fe  Fe26      1.0  0.41559  0.20048  0.83783  1.0000
  S   S52       1.0  0.40884  0.17129  0.81101  1.0000
  S   S53       1.0  0.36831  0.22242  0.85273  1.0000
  Fe  Fe27      1.0  0.43295  0.13081  0.82736  1.0000
  S   S54       1.0  0.41505  0.07872  0.82572  1.0000
  Fe  Fe28      1.0  0.46383  0.18646  0.80376  1.0000
  S   S55       1.0  0.43675  0.15861  0.85433  1.0000
  C   C179      1.0  0.18071  0.46023  0.83170  1.0000
  S   S56       1.0  0.26924  0.39705  0.95415  1.0000
  H   H210      1.0  0.12226  0.39896  0.83181  1.0000
  C   C180      1.0  0.28904  0.03328  0.85565  1.0000
  H   H211      1.0  0.44230  0.10201  0.90761  1.0000
  H   H212      1.0  0.38109  0.38290  0.92272  1.0000
  C   C181      1.0  0.36566  0.01884  0.87374  1.0000
  C   C182      1.0  0.13997  0.46728  0.95065  1.0000
  C   C183      1.0  0.39098  0.02306  0.84219  1.0000
  C   C184      1.0  0.39747  0.05598  0.84481  1.0000
  C   C185      1.0  0.38858  0.07009  0.86214  1.0000
  C   C186      1.0  0.37207  0.05174  0.87634  1.0000
  C   C187      1.0  0.48005  0.14826  0.67047  1.0000
  H   H213      1.0  0.03023  0.49266  0.77843  1.0000
  H   H214      1.0  0.39389  0.09519  0.86459  1.0000
  H   H215      1.0  0.36421  0.06312  0.88944  1.0000
  H   H216      1.0  0.04655  0.43556  0.71708  1.0000
  C   C188      1.0  0.32927  0.32542  0.86296  1.0000
  C   C189      1.0  0.35937  0.32019  0.85202  1.0000
  C   C190      1.0  0.37152  0.28891  0.84848  1.0000
  C   C191      1.0  0.35374  0.26244  0.85597  1.0000
  C   C192      1.0  0.32337  0.26766  0.86669  1.0000
  C   C193      1.0  0.31108  0.29889  0.87010  1.0000
  H   H217      1.0  0.37356  0.34050  0.84634  1.0000
  H   H218      1.0  0.39481  0.28533  0.84015  1.0000
  H   H219      1.0  0.30927  0.24737  0.87245  1.0000
  H   H220      1.0  0.28755  0.30238  0.87822  1.0000
  C   C194      1.0  0.05825  0.44738  0.87256  1.0000
  C   C195      1.0  0.08736  0.45434  0.88383  1.0000
  C   C196      1.0  0.11250  0.43089  0.88721  1.0000
  C   C197      1.0  0.10826  0.40007  0.87974  1.0000
  C   C198      1.0  0.07880  0.39292  0.86872  1.0000
  C   C199      1.0  0.05395  0.41663  0.86497  1.0000
  H   H221      1.0  0.09084  0.47815  0.88963  1.0000
  H   H222      1.0  0.13503  0.43668  0.89566  1.0000
  H   H223      1.0  0.07539  0.36909  0.86293  1.0000
  H   H224      1.0  0.03144  0.41108  0.85633  1.0000
  H   H225      1.0  0.17768  0.46700  0.76260  1.0000
  C   C200      1.0  0.48164  0.08589  0.88808  1.0000
  H   H226      1.0  0.02070  0.49081  0.69273  1.0000
  C   C201      1.0  0.06490  0.47392  0.73496  1.0000
  C   C202      1.0  0.04305  0.44813  0.73038  1.0000
  H   H227      1.0  0.46941  0.18101  0.71421  1.0000
  H   H228      1.0  0.39794  0.35716  0.89498  1.0000
  H   H229      1.0  0.38686  0.33978  0.94733  1.0000
  H   H230      1.0  0.11689  0.48717  0.82995  1.0000
  H   H231      1.0  0.28741  0.16850  0.82310  1.0000
  H   H232      1.0  0.30820  0.30480  0.92440  1.0000
  C   C203      1.0  0.41754  0.31199  0.88706  1.0000
  C   C204      1.0  0.21231  0.40150  0.97851  1.0000
  N   N13       1.0  0.31400  0.12474  0.83023  1.0000
  S   S57       1.0  0.22560  0.41208  0.87047  1.0000
  C   C205      1.0  0.34110  0.14115  0.84169  1.0000
  C   C206      1.0  0.32713  0.12279  0.81041  1.0000
  C   C207      1.0  0.30578  0.09312  0.83870  1.0000
  S   S58       1.0  0.11587  0.41956  0.67818  1.0000
  H   H233      1.0  0.33304  0.14535  0.85663  1.0000
  H   H234      1.0  0.29597  0.34499  0.92938  1.0000
  C   C208      1.0  0.35418  0.37402  0.92003  1.0000
  C   C209      1.0  0.31093  0.06372  0.82889  1.0000
  H   H235      1.0  0.27302  0.15059  0.84459  1.0000
  H   H236      1.0  0.28415  0.49139  0.94338  1.0000
  H   H237      1.0  0.46486  0.02168  0.82430  1.0000
  S   S59       1.0  0.47992  0.20312  0.77409  1.0000
  H   H238      1.0  0.34762  0.16512  0.83577  1.0000
  H   H239      1.0  0.36548  0.12704  0.84195  1.0000
  C   C210      1.0  0.37365  0.31899  0.91208  1.0000
  H   H240      1.0  0.30697  0.33343  0.90551  1.0000
  H   H241      1.0  0.35206  0.10934  0.80967  1.0000
  C   C211      1.0  0.05990  0.48996  0.75234  1.0000
  C   C212      1.0  0.30241  0.03435  0.83730  1.0000
  H   H242      1.0  0.32236  0.06260  0.81491  1.0000
  C   C213      1.0  0.41614  0.27888  0.88934  1.0000
  C   C214      1.0  0.35898  0.33429  0.94437  1.0000
  H   H243      1.0  0.08053  0.41913  0.77260  1.0000
  C   C215      1.0  0.12773  0.48006  0.93368  1.0000
  Fe  Fe29      1.0  0.19221  0.38964  0.89305  1.0000
  H   H244      1.0  0.39235  0.23965  0.90415  1.0000
  C   C216      1.0  0.29223  0.09109  0.85744  1.0000
  C   C217      1.0  0.48024  0.12229  0.70087  1.0000
  H   H245      1.0  0.99996  0.41837  0.73944  1.0000
  C   C218      1.0  0.03356  0.48022  0.76508  1.0000
  C   C219      1.0  0.45298  0.02501  0.89355  1.0000
  H   H246      1.0  0.26075  0.13278  0.82229  1.0000
  S   S60       1.0  0.46897  0.21889  0.82948  1.0000
  H   H247      1.0  0.30782  0.11115  0.80082  1.0000
  Fe  Fe30      1.0  0.24486  0.40116  0.92464  1.0000
  H   H248      1.0  0.35376  0.30931  0.94904  1.0000
  C   C220      1.0  0.10445  0.42957  0.77808  1.0000
  N   N14       1.0  0.35079  0.33919  0.92401  1.0000
  C   C221      1.0  0.46395  0.00566  0.81219  1.0000
  C   C222      1.0  0.16559  0.45759  0.79203  1.0000
  H   H249      1.0  0.33284  0.14697  0.80443  1.0000
  C   C223      1.0  0.28413  0.06156  0.86574  1.0000
  C   C224      1.0  0.39649  0.33188  0.89810  1.0000
  N   N15       1.0  0.14740  0.44462  0.82600  1.0000
  H   H250      1.0  0.44041  0.04067  0.79397  1.0000
  C   C225      1.0  0.14783  0.41130  0.83332  1.0000
  C   C226      1.0  0.48149  0.02899  0.88142  1.0000
  C   C227      1.0  0.14150  0.44424  0.80523  1.0000
  C   C228      1.0  0.11068  0.43027  0.79764  1.0000
  H   H251      1.0  0.43408  0.32220  0.87613  1.0000
  H   H252      1.0  0.15409  0.41056  0.84876  1.0000
  C   C229      1.0  0.11885  0.46223  0.83543  1.0000
  H   H253      1.0  0.45971  0.04679  0.71677  1.0000
  S   S61       1.0  0.16543  0.48431  0.67824  1.0000
  H   H254      1.0  0.29689  0.39585  0.99196  1.0000
  C   C230      1.0  0.15910  0.45666  0.77248  1.0000
  H   H255      1.0  0.30740  0.01216  0.82980  1.0000
  S   S62       1.0  0.48700  0.14361  0.81771  1.0000
  H   H256      1.0  0.16770  0.39666  0.82586  1.0000
  C   C231      1.0  0.26894  0.39797  0.99320  1.0000
  S   S63       1.0  0.09817  0.48764  0.71935  1.0000
  H   H257      1.0  0.43444  0.09048  0.69936  1.0000
  H   H258      1.0  0.09106  0.41986  0.80680  1.0000
  H   H259      1.0  0.41769  0.12832  0.67997  1.0000
  H   H260      1.0  0.12308  0.46369  0.85100  1.0000
  H   H261      1.0  0.43148  0.26350  0.88023  1.0000
  H   H262      1.0  0.44069  0.00168  0.89508  1.0000
  C   C232      1.0  0.17348  0.47482  0.95712  1.0000
  C   C233      1.0  0.47521  0.06815  0.71422  1.0000
  Fe  Fe31      1.0  0.48900  0.17460  0.84372  1.0000
  S   S64       1.0  0.48689  0.01071  0.67599  1.0000
  H   H263      1.0  0.46288  0.20121  0.69185  1.0000
  H   H264      1.0  0.12359  0.45095  0.95868  1.0000
  H   H265      1.0  0.39722  0.01190  0.82878  1.0000
  C   C234      1.0  0.24840  0.39870  0.97667  1.0000
  C   C235      1.0  0.37570  0.00443  0.85669  1.0000
  C   C236      1.0  0.28238  0.14492  0.83005  1.0000
  H   H266      1.0  0.34284  0.34995  0.95367  1.0000
  C   C237      1.0  0.01665  0.43843  0.74310  1.0000
  H   H267      1.0  0.35623  0.27354  0.92430  1.0000
  H   H268      1.0  0.19616  0.40189  0.96594  1.0000
  H   H269      1.0  0.33648  0.38843  0.92917  1.0000
  H   H270      1.0  0.20358  0.44761  0.82563  1.0000
  H   H271      1.0  0.41696  0.17049  0.68152  1.0000
  C   C238      1.0  0.44980  0.01633  0.79516  1.0000
  C   C239      1.0  0.25651  0.48668  0.93951  1.0000
  N   N16       1.0  0.46591  0.14951  0.68999  1.0000
  H   H272      1.0  0.41691  0.04790  0.91241  1.0000
  C   C240      1.0  0.47598  0.18062  0.69880  1.0000
  H   H273      1.0  0.28378  0.01038  0.86238  1.0000
  C   C241      1.0  0.42729  0.14879  0.68869  1.0000
  H   H274      1.0  0.23932  0.46552  0.97338  1.0000
  H   H275      1.0  0.41523  0.14736  0.70304  1.0000
  H   H276      1.0  0.18159  0.48594  0.82751  1.0000
  C   C242      1.0  0.43935  0.05113  0.90325  1.0000
  H   H277      1.0  0.18435  0.45988  0.84739  1.0000
  C   C243      1.0  0.46077  0.09381  0.70435  1.0000
  H   H278      1.0  0.16380  0.48745  0.87774  1.0000
  C   C244      1.0  0.45358  0.08155  0.90048  1.0000
  H   H279      1.0  0.25246  0.46028  0.93980  1.0000
  C   C245      1.0  0.12871  0.44258  0.76553  1.0000
  H   H280      1.0  0.16913  0.40565  0.99797  1.0000
  C   C246      1.0  0.24015  0.49210  0.97218  1.0000
  H   H281      1.0  0.12387  0.44200  0.75037  1.0000
  H   H282      1.0  0.18962  0.46892  0.79640  1.0000
  H   H283      1.0  0.43675  0.00404  0.76637  1.0000
  C   C247      1.0  0.19706  0.40360  0.99671  1.0000
  H   H284      1.0  0.09305  0.45048  0.83355  1.0000
  H   H285      1.0  0.18139  0.46368  0.97023  1.0000
  H   H286      1.0  0.25312  0.49454  0.92455  1.0000
  H   H287      1.0  0.49100  0.11013  0.88590  1.0000
  S   S65       1.0  0.34350  0.99720  0.89178  1.0000
  Fe  Fe32      1.0  0.45135  0.96309  0.30396  1.0000
  S   S66       1.0  0.39723  0.97731  0.31276  1.0000
  C   C248      1.0  0.31687  0.72337  0.12755  1.0000
  Fe  Fe33      1.0  0.33741  0.92047  0.05914  1.0000
  N   N17       1.0  0.37057  0.80030  0.12514  1.0000
  H   H288      1.0  0.03263  0.58766  0.29547  1.0000
  C   C249      1.0  0.19799  0.50744  0.12713  1.0000
  S   S67       1.0  0.08144  0.51475  0.32702  1.0000
  H   H289      1.0  0.03899  0.72767  0.15305  1.0000
  Fe  Fe34      1.0  0.33025  0.94609  0.09995  1.0000
  Fe  Fe35      1.0  0.10182  0.68715  0.14352  1.0000
  S   S68       1.0  0.09286  0.64839  0.16492  1.0000
  S   S69       1.0  0.06531  0.69602  0.11917  1.0000
  Fe  Fe36      1.0  0.17209  0.70663  0.15953  1.0000
  S   S70       1.0  0.16909  0.66859  0.18242  1.0000
  S   S71       1.0  0.21488  0.74520  0.15932  1.0000
  Fe  Fe37      1.0  0.14902  0.63584  0.15922  1.0000
  S   S72       1.0  0.15548  0.58169  0.15634  1.0000
  Fe  Fe38      1.0  0.11326  0.68348  0.18635  1.0000
  S   S73       1.0  0.09044  0.69746  0.21508  1.0000
  S   S74       1.0  0.15633  0.67256  0.13617  1.0000
  S   S75       1.0  0.11771  0.72350  0.16516  1.0000
  H   H290      1.0  0.33852  0.87163  0.01919  1.0000
  H   H291      1.0  0.29804  0.75270  0.17119  1.0000
  Fe  Fe39      1.0  0.00043  0.68676  0.32980  1.0000
  S   S76       1.0  0.34876  0.87062  0.06923  1.0000
  S   S77       1.0  0.26568  0.83570  0.09141  1.0000
  H   H292      1.0  0.47888  0.94162  0.23356  1.0000
  H   H293      1.0  0.04730  0.56100  0.27749  1.0000
  C   C250      1.0  0.22937  0.76982  0.14023  1.0000
  C   C251      1.0  0.22510  0.76074  0.12125  1.0000
  C   C252      1.0  0.23655  0.78114  0.10655  1.0000
  C   C253      1.0  0.25326  0.81046  0.11059  1.0000
  C   C254      1.0  0.25840  0.81920  0.12957  1.0000
  C   C255      1.0  0.24632  0.79905  0.14428  1.0000
  H   H294      1.0  0.21318  0.73788  0.11789  1.0000
  H   H295      1.0  0.23272  0.77404  0.09191  1.0000
  H   H296      1.0  0.27102  0.84176  0.13292  1.0000
  H   H297      1.0  0.25008  0.80619  0.15891  1.0000
  C   C256      1.0  0.05705  0.68013  0.22932  1.0000
  C   C257      1.0  0.03874  0.65240  0.22401  1.0000
  C   C258      1.0  0.11817  0.57293  0.23552  1.0000
  C   C259      1.0  0.01158  0.64053  0.23564  1.0000
  H   H298      1.0  0.10484  0.55625  0.29132  1.0000
  C   C260      1.0  0.04841  0.69531  0.24649  1.0000
  H   H299      1.0  0.04534  0.64028  0.21095  1.0000
  C   C261      1.0  0.30236  0.72519  0.14562  1.0000
  H   H300      1.0  0.06242  0.71671  0.25075  1.0000
  C   C262      1.0  0.23033  0.51925  0.12120  1.0000
  C   C263      1.0  0.23901  0.55139  0.12515  1.0000
  C   C264      1.0  0.21583  0.57135  0.13520  1.0000
  C   C265      1.0  0.18397  0.55913  0.14168  1.0000
  C   C266      1.0  0.17512  0.52716  0.13743  1.0000
  C   C267      1.0  0.29770  0.83453  0.32446  1.0000
  H   H301      1.0  0.26393  0.56082  0.12060  1.0000
  H   H302      1.0  0.22312  0.59582  0.13844  1.0000
  H   H303      1.0  0.15063  0.51734  0.14237  1.0000
  H   H304      1.0  0.24065  0.51799  0.31059  1.0000
  H   H305      1.0  0.00270  0.54172  0.13023  1.0000
  C   C268      1.0  0.28944  0.86180  0.31413  1.0000
  C   C269      1.0  0.45145  0.93419  0.11390  1.0000
  C   C270      1.0  0.46124  0.90212  0.11254  1.0000
  Fe  Fe40      1.0  0.38217  0.89427  0.09159  1.0000
  H   H306      1.0  0.06965  0.58060  0.15132  1.0000
  C   C271      1.0  0.04665  0.58669  0.28165  1.0000
  H   H307      1.0  0.42640  0.94163  0.10870  1.0000
  C   C272      1.0  0.01612  0.61899  0.11580  1.0000
  C   C273      1.0  0.05329  0.80413  0.15887  1.0000
  C   C274      1.0  0.99794  0.56638  0.12644  1.0000
  C   C275      1.0  0.37579  0.82734  0.13862  1.0000
  C   C276      1.0  0.33929  0.74756  0.12110  1.0000
  H   H308      1.0  0.31484  0.97384  0.32826  1.0000
  H   H309      1.0  0.03505  0.63648  0.11116  1.0000
  H   H310      1.0  0.08503  0.61120  0.10232  1.0000
  H   H311      1.0  0.47438  0.96503  0.16359  1.0000
  H   H312      1.0  0.06155  0.64933  0.28293  1.0000
  H   H313      1.0  0.20299  0.77358  0.32568  1.0000
  H   H314      1.0  0.46238  0.98400  0.21322  1.0000
  C   C277      1.0  0.07820  0.63350  0.29170  1.0000
  H   H315      1.0  0.09302  0.58182  0.31060  1.0000
  H   H316      1.0  0.25748  0.59437  0.33337  1.0000
  H   H317      1.0  0.01751  0.64498  0.17752  1.0000
  C   C278      1.0  0.00261  0.65613  0.25267  1.0000
  H   H318      1.0  0.99738  0.61924  0.23141  1.0000
  C   C279      1.0  0.13038  0.60136  0.22753  1.0000
  C   C280      1.0  0.47427  0.95693  0.12178  1.0000
  S   S78       1.0  0.45564  0.92594  0.32724  1.0000
  S   S79       1.0  0.46091  0.95434  0.27230  1.0000
  H   H319      1.0  0.05731  0.51121  0.23968  1.0000
  H   H320      1.0  0.06225  0.81106  0.18875  1.0000
  H   H321      1.0  0.03042  0.59950  0.27104  1.0000
  H   H322      1.0  0.00637  0.70858  0.09582  1.0000
  C   C281      1.0  0.11103  0.63055  0.25531  1.0000
  H   H323      1.0  0.06569  0.63225  0.30594  1.0000
  H   H324      1.0  0.08592  0.62180  0.12711  1.0000
  N   N18       1.0  0.12216  0.79253  0.12021  1.0000
  C   C282      1.0  0.14999  0.81667  0.11654  1.0000
  C   C283      1.0  0.13796  0.76034  0.12068  1.0000
  C   C284      1.0  0.09768  0.79329  0.10389  1.0000
  C   C285      1.0  0.10521  0.79876  0.13874  1.0000
  C   C286      1.0  0.12561  0.80255  0.15543  1.0000
  C   C287      1.0  0.06842  0.79944  0.14103  1.0000
  H   H325      1.0  0.01488  0.69573  0.27111  1.0000
  H   H326      1.0  0.13062  0.59117  0.29657  1.0000
  H   H327      1.0  0.12635  0.80928  0.18576  1.0000
  H   H328      1.0  0.17220  0.81466  0.12657  1.0000
  H   H329      1.0  0.16178  0.81379  0.10219  1.0000
  H   H330      1.0  0.13975  0.84146  0.11761  1.0000
  H   H331      1.0  0.15677  0.75792  0.13254  1.0000
  H   H332      1.0  0.15198  0.75476  0.10726  1.0000
  H   H333      1.0  0.11784  0.74149  0.12282  1.0000
  H   H334      1.0  0.11143  0.78991  0.09012  1.0000
  H   H335      1.0  0.07805  0.77350  0.10469  1.0000
  H   H336      1.0  0.08390  0.81661  0.10313  1.0000
  H   H337      1.0  0.15367  0.80070  0.15504  1.0000
  H   H338      1.0  0.05063  0.79580  0.12935  1.0000
  S   S80       1.0  0.37507  0.94360  0.07967  1.0000
  S   S81       1.0  0.05857  0.68699  0.33393  1.0000
  C   C288      1.0  0.49372  0.89276  0.11972  1.0000
  H   H339      1.0  0.31018  0.70340  0.11837  1.0000
  C   C289      1.0  0.22896  0.85569  0.32331  1.0000
  C   C290      1.0  0.00103  0.71804  0.10982  1.0000
  S   S82       1.0  0.29147  0.92647  0.07871  1.0000
  C   C291      1.0  0.02615  0.71578  0.12413  1.0000
  C   C292      1.0  0.10253  0.57314  0.25345  1.0000
  H   H340      1.0  0.16614  0.50478  0.18022  1.0000
  H   H341      1.0  0.05394  0.54192  0.14407  1.0000
  C   C293      1.0  0.12709  0.63000  0.23748  1.0000
  H   H342      1.0  0.35248  0.79582  0.09600  1.0000
  C   C294      1.0  0.01941  0.72877  0.14205  1.0000
  H   H343      1.0  0.16515  0.82238  0.32929  1.0000
  H   H344      1.0  0.24884  0.89342  0.30530  1.0000
  H   H345      1.0  0.31122  0.51787  0.33179  1.0000
  H   H346      1.0  0.10385  0.64543  0.29398  1.0000
  H   H347      1.0  0.10865  0.65377  0.26194  1.0000
  S   S83       1.0  0.32066  0.98931  0.11909  1.0000
  C   C295      1.0  0.11018  0.80716  0.17320  1.0000
  C   C296      1.0  0.02137  0.68346  0.25807  1.0000
  C   C297      1.0  0.40531  0.78706  0.12063  1.0000
  C   C298      1.0  0.34754  0.77459  0.13256  1.0000
  H   H348      1.0  0.28413  0.70696  0.15042  1.0000
  N   N19       1.0  0.08191  0.60130  0.28292  1.0000
  H   H349      1.0  0.46662  0.98178  0.12230  1.0000
  C   C299      1.0  0.33567  0.91869  0.00696  1.0000
  H   H350      1.0  0.41715  0.77572  0.13334  1.0000
  S   S84       1.0  0.33923  0.89768  0.11306  1.0000
  C   C300      1.0  0.33251  0.77554  0.15101  1.0000
  H   H351      1.0  0.00355  0.67215  0.15908  1.0000
  S   S85       1.0  0.33496  0.93994  0.02882  1.0000
  H   H352      1.0  0.32453  0.82675  0.32527  1.0000
  C   C301      1.0  0.02553  0.58745  0.12129  1.0000
  C   C302      1.0  0.10346  0.58174  0.29586  1.0000
  H   H353      1.0  0.11518  0.59255  0.11811  1.0000
  H   H354      1.0  0.37212  0.83321  0.10165  1.0000
  H   H355      1.0  0.01539  0.70411  0.18326  1.0000
  C   C303      1.0  0.07411  0.80796  0.17491  1.0000
  H   H356      1.0  0.42360  0.80615  0.11558  1.0000
  H   H357      1.0  0.09776  0.55234  0.13992  1.0000
  H   H358      1.0  0.02518  0.80427  0.16029  1.0000
  H   H359      1.0  0.38854  0.81939  0.15196  1.0000
  H   H360      1.0  0.04840  0.52988  0.10923  1.0000
  H   H361      1.0  0.14241  0.60128  0.21359  1.0000
  C   C304      1.0  0.35545  0.81374  0.10754  1.0000
  H   H362      1.0  0.32928  0.82386  0.11031  1.0000
  C   C305      1.0  0.99957  0.72577  0.20888  1.0000
  H   H363      1.0  0.13660  0.65211  0.23121  1.0000
  H   H364      1.0  0.45287  0.95750  0.18549  1.0000
  Fe  Fe41      1.0  0.30479  0.87751  0.09008  1.0000
  C   C306      1.0  0.33737  0.88526  0.00616  1.0000
  H   H365      1.0  0.33675  0.79522  0.16070  1.0000
  S   S86       1.0  0.43320  0.87368  0.10183  1.0000
  H   H366      1.0  0.12094  0.55059  0.22784  1.0000
  H   H367      1.0  0.09272  0.54151  0.10588  1.0000
  H   H368      1.0  0.35070  0.83919  0.14209  1.0000
  C   C307      1.0  0.25510  0.87219  0.31340  1.0000
  H   H369      1.0  0.34965  0.74520  0.10692  1.0000
  H   H370      1.0  0.40415  0.76884  0.10914  1.0000
  C   C308      1.0  0.09824  0.60197  0.26387  1.0000
  H   H371      1.0  0.09393  0.55045  0.25917  1.0000
  H   H372      1.0  0.39292  0.84639  0.13249  1.0000
  N   N20       1.0  0.06193  0.57601  0.12113  1.0000
  C   C309      1.0  0.06564  0.55081  0.10645  1.0000
  C   C310      1.0  0.08799  0.60154  0.11694  1.0000
  C   C311      1.0  0.07100  0.56223  0.13990  1.0000
  C   C312      1.0  0.31033  0.75107  0.15735  1.0000
  H   H373      1.0  0.30985  0.87508  0.30690  1.0000
  H   H374      1.0  0.05883  0.56013  0.09214  1.0000
  C   C313      1.0  0.99578  0.70346  0.19420  1.0000
  H   H375      1.0  0.02178  0.74195  0.20901  1.0000
  H   H376      1.0  0.20302  0.86526  0.32234  1.0000
  C   C314      1.0  0.23672  0.82812  0.33432  1.0000
  H   H377      1.0  0.42228  0.98919  0.15160  1.0000
  H   H378      1.0  0.26944  0.55170  0.31299  1.0000
  C   C315      1.0  0.46883  0.97561  0.17778  1.0000
  H   H379      1.0  0.22451  0.55407  0.32066  1.0000
  H   H380      1.0  0.39983  0.98472  0.17388  1.0000
  C   C316      1.0  0.24784  0.53841  0.32006  1.0000
  C   C317      1.0  0.27186  0.81789  0.33442  1.0000
  H   H381      1.0  0.22613  0.86180  0.00965  1.0000
  C   C318      1.0  0.99576  0.65118  0.16780  1.0000
  Fe  Fe42      1.0  0.13730  0.52347  0.33453  1.0000
  S   S87       1.0  0.15738  0.57473  0.33536  1.0000
  Fe  Fe43      1.0  0.27582  0.76850  0.60601  1.0000
  S   S88       1.0  0.23240  0.77727  0.58519  1.0000
  S   S89       1.0  0.31971  0.80597  0.60535  1.0000
  Fe  Fe44      1.0  0.24420  0.70288  0.61779  1.0000
  S   S90       1.0  0.19890  0.70757  0.59803  1.0000
  S   S91       1.0  0.24916  0.66100  0.63831  1.0000
  Fe  Fe45      1.0  0.23813  0.72574  0.57669  1.0000
  S   S92       1.0  0.24196  0.70397  0.54709  1.0000
  Fe  Fe46      1.0  0.19733  0.75849  0.60823  1.0000
  S   S93       1.0  0.14978  0.78463  0.61869  1.0000
  S   S94       1.0  0.28401  0.71775  0.59595  1.0000
  S   S95       1.0  0.24022  0.75291  0.62960  1.0000
  H   H382      1.0  0.24575  0.89409  0.65484  1.0000
  H   H383      1.0  0.28143  0.96456  0.35515  1.0000
  H   H384      1.0  0.07065  0.78204  0.37487  1.0000
  C   C319      1.0  0.18247  0.62713  0.35462  1.0000
  H   H385      1.0  0.01528  0.60391  0.62240  1.0000
  H   H386      1.0  0.35013  0.74948  0.51472  1.0000
  H   H387      1.0  0.32019  0.92908  0.60127  1.0000
  H   H388      1.0  0.03781  0.74592  0.35303  1.0000
  Fe  Fe47      1.0  0.19074  0.76014  0.40160  1.0000
  S   S96       1.0  0.22842  0.73290  0.38353  1.0000
  S   S97       1.0  0.13992  0.77908  0.39018  1.0000
  Fe  Fe48      1.0  0.23564  0.75507  0.43737  1.0000
  S   S98       1.0  0.27651  0.72672  0.42188  1.0000
  S   S99       1.0  0.23828  0.77587  0.46736  1.0000
  Fe  Fe49      1.0  0.26995  0.76248  0.39806  1.0000
  S   S100      1.0  0.31663  0.78069  0.38079  1.0000
  Fe  Fe50      1.0  0.23130  0.69994  0.40853  1.0000
  S   S101      1.0  0.22630  0.64570  0.40623  1.0000
  S   S102      1.0  0.23182  0.79234  0.41425  1.0000
  S   S103      1.0  0.19114  0.72567  0.42590  1.0000
  S   S104      1.0  0.14419  0.54278  0.63279  1.0000
  H   H389      1.0  0.49215  0.92610  0.42514  1.0000
  H   H390      1.0  0.29425  0.93109  0.66027  1.0000
  H   H391      1.0  0.17706  0.64015  0.34170  1.0000
  H   H392      1.0  0.04476  0.56558  0.38031  1.0000
  H   H393      1.0  0.27282  0.89210  0.59484  1.0000
  H   H394      1.0  0.29660  0.89624  0.37055  1.0000
  C   C320      1.0  0.41606  0.81816  0.53769  1.0000
  C   C321      1.0  0.32837  0.76031  0.52285  1.0000
  H   H395      1.0  0.37638  0.80522  0.36094  1.0000
  C   C322      1.0  0.34163  0.73000  0.55074  1.0000
  H   H396      1.0  0.05732  0.64298  0.65435  1.0000
  C   C323      1.0  0.22054  0.81442  0.36634  1.0000
  H   H397      1.0  0.07026  0.59007  0.34999  1.0000
  C   C324      1.0  0.20484  0.62685  0.38692  1.0000
  C   C325      1.0  0.08176  0.60846  0.35960  1.0000
  C   C326      1.0  0.19699  0.64347  0.37025  1.0000
  H   H398      1.0  0.31206  0.59538  0.63907  1.0000
  H   H399      1.0  0.20287  0.66876  0.36924  1.0000
  C   C327      1.0  0.11686  0.75311  0.37494  1.0000
  C   C328      1.0  0.08274  0.76054  0.36948  1.0000
  C   C329      1.0  0.06410  0.74010  0.35720  1.0000
  C   C330      1.0  0.07992  0.71258  0.35003  1.0000
  C   C331      1.0  0.11405  0.70528  0.35542  1.0000
  C   C332      1.0  0.13232  0.72528  0.36799  1.0000
  C   C333      1.0  0.17504  0.59419  0.35560  1.0000
  H   H400      1.0  0.30124  0.54168  0.65092  1.0000
  Fe  Fe51      1.0  0.49086  0.96847  0.65661  1.0000
  H   H401      1.0  0.15825  0.71896  0.37237  1.0000
  C   C334      1.0  0.32798  0.82024  0.37345  1.0000
  C   C335      1.0  0.30606  0.84636  0.37648  1.0000
  C   C336      1.0  0.31431  0.87652  0.36859  1.0000
  C   C337      1.0  0.34519  0.88133  0.35819  1.0000
  C   C338      1.0  0.36792  0.85561  0.35589  1.0000
  C   C339      1.0  0.35914  0.82519  0.36331  1.0000
  H   H402      1.0  0.28257  0.84324  0.38471  1.0000
  H   H403      1.0  0.29551  0.56571  0.39831  1.0000
  C   C340      1.0  0.05681  0.58609  0.38812  1.0000
  H   H404      1.0  0.44880  0.83680  0.56000  1.0000
  H   H405      1.0  0.34314  0.98002  0.35980  1.0000
  H   H406      1.0  0.23633  0.52282  0.60143  1.0000
  C   C341      1.0  0.26793  0.52619  0.62716  1.0000
  H   H407      1.0  0.30526  0.74464  0.52030  1.0000
  H   H408      1.0  0.17317  0.84952  0.34906  1.0000
  C   C342      1.0  0.23726  0.72381  0.52497  1.0000
  C   C343      1.0  0.24286  0.70648  0.50811  1.0000
  C   C344      1.0  0.24221  0.72181  0.49029  1.0000
  C   C345      1.0  0.23636  0.75477  0.48918  1.0000
  C   C346      1.0  0.23040  0.77203  0.50602  1.0000
  C   C347      1.0  0.23037  0.75660  0.52380  1.0000
  H   H409      1.0  0.24811  0.68110  0.50884  1.0000
  H   H410      1.0  0.24689  0.70827  0.47744  1.0000
  H   H411      1.0  0.22563  0.79750  0.50527  1.0000
  H   H412      1.0  0.22536  0.77018  0.53658  1.0000
  C   C348      1.0  0.22093  0.62744  0.63644  1.0000
  C   C349      1.0  0.19988  0.62285  0.62050  1.0000
  C   C350      1.0  0.21920  0.60511  0.65136  1.0000
  H   H413      1.0  0.20130  0.63951  0.60879  1.0000
  H   H414      1.0  0.00471  0.62581  0.38043  1.0000
  C   C351      1.0  0.11188  0.76066  0.61861  1.0000
  C   C352      1.0  0.08558  0.76590  0.63208  1.0000
  C   C353      1.0  0.05667  0.74505  0.63315  1.0000
  C   C354      1.0  0.05391  0.71917  0.62058  1.0000
  C   C355      1.0  0.07930  0.71502  0.60653  1.0000
  C   C356      1.0  0.10827  0.73557  0.60561  1.0000
  H   H415      1.0  0.08806  0.78552  0.64204  1.0000
  H   H416      1.0  0.03704  0.74855  0.64393  1.0000
  H   H417      1.0  0.07710  0.69526  0.59663  1.0000
  H   H418      1.0  0.12785  0.73190  0.59483  1.0000
  C   C357      1.0  0.33591  0.83305  0.62292  1.0000
  C   C358      1.0  0.32383  0.83283  0.64166  1.0000
  C   C359      1.0  0.33648  0.85558  0.65485  1.0000
  C   C360      1.0  0.36180  0.87849  0.64964  1.0000
  C   C361      1.0  0.37456  0.87820  0.63103  1.0000
  C   C362      1.0  0.36155  0.85570  0.61775  1.0000
  H   H419      1.0  0.30489  0.81510  0.64607  1.0000
  S   S105      1.0  0.42554  0.98188  0.35639  1.0000
  H   H420      1.0  0.39393  0.89569  0.62677  1.0000
  H   H421      1.0  0.37124  0.85606  0.60334  1.0000
  C   C363      1.0  0.19674  0.59402  0.38803  1.0000
  S   S106      1.0  0.02123  0.68967  0.62296  1.0000
  C   C364      1.0  0.01655  0.57799  0.62107  1.0000
  H   H422      1.0  0.19662  0.84087  0.59923  1.0000
  H   H423      1.0  0.31895  0.71417  0.54730  1.0000
  C   C365      1.0  0.17470  0.57453  0.63460  1.0000
  H   H424      1.0  0.39166  0.85883  0.34784  1.0000
  C   C366      1.0  0.28801  0.57133  0.38386  1.0000
  H   H425      1.0  0.34421  0.72935  0.56645  1.0000
  H   H426      1.0  0.32178  0.78396  0.51656  1.0000
  H   H427      1.0  0.12631  0.68387  0.35004  1.0000
  H   H428      1.0  0.36597  0.77572  0.57826  1.0000
  H   H429      1.0  0.20258  0.58105  0.40092  1.0000
  C   C367      1.0  0.17692  0.59653  0.61959  1.0000
  H   H430      1.0  0.16060  0.59335  0.60720  1.0000
  H   H431      1.0  0.36528  0.71892  0.54453  1.0000
  H   H432      1.0  0.12387  0.61860  0.39274  1.0000
  H   H433      1.0  0.17502  0.55267  0.37375  1.0000
  C   C368      1.0  0.28676  0.60320  0.37817  1.0000
  C   C369      1.0  0.04965  0.52929  0.62265  1.0000
  C   C370      1.0  0.07417  0.64204  0.38733  1.0000
  C   C371      1.0  0.05600  0.67101  0.39088  1.0000
  C   C372      1.0  0.10825  0.63966  0.39499  1.0000
  C   C373      1.0  0.07119  0.69581  0.40145  1.0000
  C   C374      1.0  0.12319  0.66467  0.40548  1.0000
  C   C375      1.0  0.10466  0.69267  0.40871  1.0000
  C   C376      1.0  0.28963  0.54781  0.63748  1.0000
  H   H434      1.0  0.24548  0.80220  0.36949  1.0000
  N   N21       1.0  0.05911  0.61524  0.37614  1.0000
  H   H435      1.0  0.43035  0.83040  0.52654  1.0000
  H   H436      1.0  0.23407  0.49780  0.36108  1.0000
  H   H437      1.0  0.02377  0.64304  0.35924  1.0000
  C   C377      1.0  0.09897  0.69612  0.66510  1.0000
  C   C378      1.0  0.37945  0.78698  0.56653  1.0000
  C   C379      1.0  0.40819  0.80630  0.57091  1.0000
  H   H438      1.0  0.07421  0.51734  0.62506  1.0000
  S   S107      1.0  0.35246  0.91903  0.34704  1.0000
  H   H439      1.0  0.05739  0.71809  0.40356  1.0000
  H   H440      1.0  0.14952  0.66253  0.41090  1.0000
  H   H441      1.0  0.11651  0.71237  0.41647  1.0000
  N   N22       1.0  0.22449  0.86664  0.62120  1.0000
  C   C380      1.0  0.23234  0.83663  0.63147  1.0000
  C   C381      1.0  0.19136  0.87972  0.62864  1.0000
  C   C382      1.0  0.21869  0.85818  0.60094  1.0000
  C   C383      1.0  0.25329  0.88992  0.62418  1.0000
  H   H442      1.0  0.07228  0.69386  0.65915  1.0000
  C   C384      1.0  0.27551  0.90051  0.60925  1.0000
  C   C385      1.0  0.28200  0.58908  0.61372  1.0000
  C   C386      1.0  0.30296  0.92193  0.61272  1.0000
  C   C387      1.0  0.22807  0.50931  0.34727  1.0000
  H   H443      1.0  0.21070  0.81891  0.63018  1.0000
  H   H444      1.0  0.25615  0.82530  0.62563  1.0000
  H   H445      1.0  0.21157  0.50919  0.64653  1.0000
  H   H446      1.0  0.16896  0.86326  0.62568  1.0000
  C   C388      1.0  0.27880  0.54687  0.37119  1.0000
  C   C389      1.0  0.20891  0.77687  0.34102  1.0000
  H   H447      1.0  0.27403  0.63576  0.35580  1.0000
  H   H448      1.0  0.19181  0.88299  0.64428  1.0000
  S   S108      1.0  0.43853  0.97709  0.64329  1.0000
  H   H449      1.0  0.19448  0.56208  0.66219  1.0000
  H   H450      1.0  0.08281  0.57790  0.39294  1.0000
  C   C390      1.0  0.30924  0.93327  0.63101  1.0000
  H   H451      1.0  0.27998  0.79756  0.34280  1.0000
  H   H452      1.0  0.08666  0.63053  0.35111  1.0000
  C   C391      1.0  0.02370  0.62180  0.36875  1.0000
  C   C392      1.0  0.12213  0.66854  0.63780  1.0000
  H   H453      1.0  0.01329  0.60141  0.36022  1.0000
  C   C393      1.0  0.07484  0.62851  0.66270  1.0000
  C   C394      1.0  0.04797  0.56247  0.62426  1.0000
  H   H454      1.0  0.24873  0.57703  0.59030  1.0000
  H   H455      1.0  0.13790  0.64820  0.63257  1.0000
  H   H456      1.0  0.26744  0.50143  0.66394  1.0000
  H   H457      1.0  0.18553  0.90330  0.62206  1.0000
  H   H458      1.0  0.07120  0.57611  0.62792  1.0000
  H   H459      1.0  0.00255  0.51601  0.34187  1.0000
  H   H460      1.0  0.41600  0.80945  0.58562  1.0000
  H   H461      1.0  0.20080  0.80357  0.37589  1.0000
  H   H462      1.0  0.13315  0.69081  0.63144  1.0000
  H   H463      1.0  0.09551  0.66529  0.63191  1.0000
  C   C395      1.0  0.18144  0.57782  0.37255  1.0000
  H   H464      1.0  0.10743  0.59920  0.36397  1.0000
  C   C396      1.0  0.26060  0.90189  0.64266  1.0000
  H   H465      1.0  0.04085  0.59059  0.40103  1.0000
  N   N23       1.0  0.33667  0.76297  0.54342  1.0000
  Fe  Fe52      1.0  0.47725  0.96722  0.34436  1.0000
  C   C397      1.0  0.42653  0.82181  0.55652  1.0000
  C   C398      1.0  0.19608  0.57876  0.65049  1.0000
  C   C399      1.0  0.36788  0.78282  0.54752  1.0000
  C   C400      1.0  0.27608  0.61079  0.35985  1.0000
  H   H466      1.0  0.38021  0.79761  0.51832  1.0000
  C   C401      1.0  0.38711  0.79907  0.53315  1.0000
  C   C402      1.0  0.30611  0.77714  0.55301  1.0000
  H   H467      1.0  0.30933  0.77831  0.56865  1.0000
  H   H468      1.0  0.28223  0.76264  0.55051  1.0000
  H   H469      1.0  0.30119  0.80190  0.54790  1.0000
  C   C403      1.0  0.26067  0.56852  0.60329  1.0000
  C   C404      1.0  0.28762  0.50501  0.33701  1.0000
  H   H470      1.0  0.03039  0.67554  0.38527  1.0000
  C   C405      1.0  0.26785  0.55371  0.35237  1.0000
  C   C406      1.0  0.02012  0.51146  0.61764  1.0000
  N   N24       1.0  0.12219  0.66990  0.65881  1.0000
  H   H471      1.0  0.23368  0.76433  0.34408  1.0000
  H   H472      1.0  0.28645  0.61346  0.60893  1.0000
  H   H473      1.0  0.22356  0.83997  0.37056  1.0000
  H   H474      1.0  0.23555  0.60844  0.66372  1.0000
  H   H475      1.0  0.29294  0.62219  0.38819  1.0000
  H   H476      1.0  0.24190  0.84628  0.59471  1.0000
  C   C407      1.0  0.17465  0.82421  0.34417  1.0000
  H   H477      1.0  0.21239  0.87968  0.59233  1.0000
  C   C408      1.0  0.25367  0.53755  0.60985  1.0000
  N   N25       1.0  0.21043  0.81135  0.34613  1.0000
  H   H478      1.0  0.17745  0.66113  0.65961  1.0000
  H   H479      1.0  0.23676  0.84054  0.64688  1.0000
  H   H480      1.0  0.16651  0.70220  0.65929  1.0000
  H   H481      1.0  0.27981  0.52255  0.37636  1.0000
  C   C409      1.0  0.29638  0.57879  0.63078  1.0000
  H   H482      1.0  0.33136  0.94887  0.63380  1.0000
  C   C410      1.0  0.28815  0.92324  0.64594  1.0000
  C   C411      1.0  0.26654  0.58658  0.34709  1.0000
  H   H483      1.0  0.15563  0.81062  0.35313  1.0000
  H   H484      1.0  0.18842  0.76392  0.34929  1.0000
  H   H485      1.0  0.47978  0.90396  0.39326  1.0000
  N   N26       1.0  0.25803  0.52732  0.33930  1.0000
  H   H486      1.0  0.01358  0.53252  0.66750  1.0000
  H   H487      1.0  0.25011  0.99574  0.35099  1.0000
  H   H488      1.0  0.20548  0.52531  0.34944  1.0000
  C   C412      1.0  0.10951  0.63883  0.66633  1.0000
  C   C413      1.0  0.27600  0.99055  0.35730  1.0000
  Fe  Fe53      1.0  0.13665  0.50018  0.65226  1.0000
  Fe  Fe54      1.0  0.41871  0.94542  0.66714  1.0000
  C   C414      1.0  0.15804  0.67848  0.66500  1.0000
  H   H489      1.0  0.10876  0.71998  0.66033  1.0000
  S   S109      1.0  0.37464  0.90800  0.66662  1.0000
  H   H490      1.0  0.03561  0.59211  0.66660  1.0000
  Fe  Fe55      1.0  0.40319  0.94334  0.33738  1.0000
  H   H491      1.0  0.27407  0.99372  0.37292  1.0000
  H   H492      1.0  0.28110  0.84403  0.83550  1.0000
  H   H493      1.0  0.33847  0.84359  0.98800  1.0000
  H   H494      1.0  0.00679  0.67954  0.90664  1.0000
  H   H495      1.0  0.26365  0.89480  0.98890  1.0000
  H   H496      1.0  0.23874  0.54729  0.93697  1.0000
  H   H497      1.0  0.16003  0.67980  0.68074  1.0000
  H   H498      1.0  0.45534  0.85247  0.90014  1.0000
  N   N27       1.0  0.01444  0.58539  0.87106  1.0000
  H   H499      1.0  0.19469  0.74330  0.76754  1.0000
  N   N28       1.0  0.23208  0.50288  0.95257  1.0000
  Fe  Fe56      1.0  0.06269  0.68564  0.83724  1.0000
  S   S110      1.0  0.07242  0.64631  0.81637  1.0000
  H   H500      1.0  0.03794  0.64217  0.88624  1.0000
  Fe  Fe57      1.0  0.13973  0.70210  0.83999  1.0000
  S   S111      1.0  0.15408  0.66316  0.81914  1.0000
  S   S112      1.0  0.18729  0.72614  0.85354  1.0000
  Fe  Fe58      1.0  0.10839  0.68070  0.80206  1.0000
  S   S113      1.0  0.11196  0.68486  0.76978  1.0000
  Fe  Fe59      1.0  0.11648  0.63208  0.83535  1.0000
  S   S114      1.0  0.11573  0.57913  0.84326  1.0000
  S   S115      1.0  0.09624  0.72162  0.82176  1.0000
  S   S116      1.0  0.10461  0.66952  0.85719  1.0000
  C   C415      1.0  0.46565  0.93548  0.86693  1.0000
  S   S117      1.0  0.47208  0.93392  0.67900  1.0000
  C   C416      1.0  0.99998  0.60868  0.70980  1.0000
  S   S118      1.0  0.40918  0.85416  0.86594  1.0000
  H   H501      1.0  0.15799  0.78122  0.79853  1.0000
  S   S119      1.0  0.23357  0.86993  0.87264  1.0000
  S   S120      1.0  0.32485  0.85084  0.89664  1.0000
  C   C417      1.0  0.19861  0.76637  0.85922  1.0000
  C   C418      1.0  0.23072  0.77236  0.86817  1.0000
  C   C419      1.0  0.24168  0.80384  0.87244  1.0000
  C   C420      1.0  0.22055  0.82979  0.86783  1.0000
  C   C421      1.0  0.18815  0.82382  0.85915  1.0000
  C   C422      1.0  0.17721  0.79229  0.85481  1.0000
  H   H502      1.0  0.24747  0.75249  0.87162  1.0000
  H   H503      1.0  0.26671  0.80795  0.87903  1.0000
  H   H504      1.0  0.17156  0.84373  0.85557  1.0000
  H   H505      1.0  0.15234  0.78809  0.84805  1.0000
  C   C423      1.0  0.07415  0.68970  0.75552  1.0000
  C   C424      1.0  0.07614  0.68536  0.73571  1.0000
  C   C425      1.0  0.04632  0.68853  0.72413  1.0000
  H   H506      1.0  0.21467  0.71510  0.81539  1.0000
  C   C426      1.0  0.42618  0.94062  0.94493  1.0000
  C   C427      1.0  0.04211  0.69759  0.76360  1.0000
  H   H507      1.0  0.10083  0.67932  0.72931  1.0000
  H   H508      1.0  0.04809  0.68483  0.70896  1.0000
  H   H509      1.0  0.04019  0.70125  0.77877  1.0000
  H   H510      1.0  0.48199  0.84570  0.85662  1.0000
  H   H511      1.0  0.46065  0.96040  0.86985  1.0000
  H   H512      1.0  0.23204  0.86040  0.81524  1.0000
  H   H513      1.0  0.41195  0.89483  0.95512  1.0000
  C   C428      1.0  0.20237  0.52458  0.87433  1.0000
  H   H514      1.0  0.18332  0.82406  0.99557  1.0000
  C   C429      1.0  0.14265  0.52860  0.86317  1.0000
  C   C430      1.0  0.14919  0.55939  0.85590  1.0000
  C   C431      1.0  0.18220  0.57308  0.85832  1.0000
  C   C432      1.0  0.20861  0.55576  0.86755  1.0000
  H   H515      1.0  0.07444  0.55607  0.68477  1.0000
  H   H516      1.0  0.04299  0.62260  0.85628  1.0000
  H   H517      1.0  0.18756  0.59682  0.85286  1.0000
  H   H518      1.0  0.23417  0.56645  0.86921  1.0000
  C   C433      1.0  0.44378  0.88135  0.86367  1.0000
  C   C434      1.0  0.43792  0.91375  0.86709  1.0000
  H   H519      1.0  0.40952  0.95257  0.95512  1.0000
  H   H520      1.0  0.12037  0.57281  0.78559  1.0000
  Fe  Fe60      1.0  0.36518  0.87907  0.88084  1.0000
  C   C435      1.0  0.49102  0.90244  0.78170  1.0000
  H   H521      1.0  0.41193  0.92221  0.86990  1.0000
  Fe  Fe61      1.0  0.33498  0.94315  0.89149  1.0000
  N   N29       1.0  0.21595  0.85195  0.93328  1.0000
  C   C436      1.0  0.25018  0.84223  0.92559  1.0000
  C   C437      1.0  0.18975  0.82834  0.92631  1.0000
  C   C438      1.0  0.20669  0.88362  0.92528  1.0000
  C   C439      1.0  0.21805  0.85429  0.95424  1.0000
  C   C440      1.0  0.19670  0.83571  0.96661  1.0000
  C   C441      1.0  0.24217  0.87573  0.96291  1.0000
  C   C442      1.0  0.19965  0.83852  0.98636  1.0000
  C   C443      1.0  0.02152  0.59561  0.78543  1.0000
  C   C444      1.0  0.11829  0.58808  0.68324  1.0000
  H   H522      1.0  0.24942  0.83925  0.90988  1.0000
  H   H523      1.0  0.27085  0.86020  0.92857  1.0000
  H   H524      1.0  0.25891  0.81923  0.93191  1.0000
  H   H525      1.0  0.19584  0.80366  0.93119  1.0000
  H   H526      1.0  0.18917  0.82736  0.91046  1.0000
  H   H527      1.0  0.16300  0.83471  0.93094  1.0000
  H   H528      1.0  0.22650  0.90233  0.92852  1.0000
  H   H529      1.0  0.20448  0.88278  0.90950  1.0000
  H   H530      1.0  0.18140  0.89208  0.93103  1.0000
  H   H531      1.0  0.17766  0.81874  0.96139  1.0000
  C   C445      1.0  0.18262  0.50783  0.92928  1.0000
  H   H532      1.0  0.04070  0.56156  0.89393  1.0000
  C   C446      1.0  0.14895  0.50043  0.92308  1.0000
  S   S121      1.0  0.41027  0.98721  0.68724  1.0000
  N   N30       1.0  0.45187  0.85537  0.93080  1.0000
  C   C447      1.0  0.99562  0.60715  0.88407  1.0000
  S   S122      1.0  0.23655  0.50356  0.88562  1.0000
  H   H533      1.0  0.13961  0.50995  0.90971  1.0000
  H   H534      1.0  0.09888  0.61400  0.76334  1.0000
  C   C448      1.0  0.33568  0.88684  0.97137  1.0000
  C   C449      1.0  0.01248  0.70105  0.75202  1.0000
  H   H535      1.0  0.16632  0.75443  0.81779  1.0000
  C   C450      1.0  0.21725  0.72159  0.80009  1.0000
  H   H536      1.0  0.07985  0.54672  0.80809  1.0000
  H   H537      1.0  0.41211  0.85052  0.90946  1.0000
  H   H538      1.0  0.03827  0.62907  0.76315  1.0000
  H   H539      1.0  0.43401  0.81242  0.94509  1.0000
  H   H540      1.0  0.15308  0.73925  0.79491  1.0000
  H   H541      1.0  0.29651  0.78693  0.83815  1.0000
  H   H542      1.0  0.33278  0.93394  0.95914  1.0000
  C   C451      1.0  0.16944  0.75772  0.80219  1.0000
  H   H543      1.0  0.21871  0.55128  0.95994  1.0000
  H   H544      1.0  0.19848  0.82061  0.79737  1.0000
  Fe  Fe62      1.0  0.46476  0.97724  0.69748  1.0000
  Fe  Fe63      1.0  0.28693  0.88510  0.88391  1.0000
  C   C452      1.0  0.20960  0.76138  0.77601  1.0000
  C   C453      1.0  0.25603  0.77062  0.81915  1.0000
  C   C454      1.0  0.27540  0.79395  0.82886  1.0000
  C   C455      1.0  0.26681  0.82617  0.82738  1.0000
  H   H545      1.0  0.19921  0.78519  0.77198  1.0000
  H   H546      1.0  0.23727  0.76057  0.77136  1.0000
  H   H547      1.0  0.26344  0.74608  0.82154  1.0000
  S   S123      1.0  0.29117  0.92026  0.90821  1.0000
  Fe  Fe64      1.0  0.33187  0.88740  0.91992  1.0000
  H   H548      1.0  0.37070  0.97918  0.85444  1.0000
  C   C456      1.0  0.16913  0.51117  0.87225  1.0000
  C   C457      1.0  0.04667  0.57376  0.88027  1.0000
  H   H549      1.0  0.44346  0.98453  0.93196  1.0000
  H   H550      1.0  0.06073  0.56697  0.73420  1.0000
  S   S124      1.0  0.00517  0.68392  0.84311  1.0000
  C   C458      1.0  0.47745  0.87085  0.85930  1.0000
  H   H551      1.0  0.43762  0.90020  0.80628  1.0000
  C   C459      1.0  0.22368  0.85978  0.99435  1.0000
  H   H552      1.0  0.09663  0.69671  0.68085  1.0000
  C   C460      1.0  0.45979  0.96431  0.78108  1.0000
  H   H553      1.0  0.06564  0.59342  0.88310  1.0000
  H   H554      1.0  0.00858  0.54121  0.85543  1.0000
  H   H555      1.0  0.26697  0.49913  0.97659  1.0000
  H   H556      1.0  0.03661  0.58707  0.84287  1.0000
  C   C461      1.0  0.07006  0.56396  0.79793  1.0000
  C   C462      1.0  0.43117  0.83890  0.94576  1.0000
  H   H557      1.0  0.15802  0.62286  0.67973  1.0000
  H   H558      1.0  0.45769  0.94994  0.76837  1.0000
  C   C463      1.0  0.24480  0.87840  0.98264  1.0000
  C   C464      1.0  0.44906  0.89073  0.93138  1.0000
  H   H559      1.0  0.40288  0.84366  0.94409  1.0000
  H   H560      1.0  0.22179  0.50246  0.98271  1.0000
  C   C465      1.0  0.08076  0.60177  0.77273  1.0000
  C   C466      1.0  0.33414  0.92025  0.97215  1.0000
  C   C467      1.0  0.01422  0.69626  0.73228  1.0000
  C   C468      1.0  0.01184  0.63577  0.89062  1.0000
  C   C469      1.0  0.46421  0.90152  0.81251  1.0000
  C   C470      1.0  0.47615  0.97433  0.81379  1.0000
  S   S125      1.0  0.48015  0.98560  0.72852  1.0000
  H   H561      1.0  0.19850  0.52255  0.92004  1.0000
  C   C471      1.0  0.42796  0.90717  0.94479  1.0000
  C   C472      1.0  0.09296  0.57869  0.78529  1.0000
  H   H562      1.0  0.25962  0.89042  0.95451  1.0000
  H   H563      1.0  0.46510  0.89826  0.77508  1.0000
  S   S126      1.0  0.32706  0.91110  0.86612  1.0000
  C   C473      1.0  0.33412  0.93604  0.98986  1.0000
  H   H564      1.0  0.33277  0.96190  0.99034  1.0000
  C   C474      1.0  0.43948  0.84327  0.91217  1.0000
  H   H565      1.0  0.43929  0.84656  0.96025  1.0000
  H   H566      1.0  0.04049  0.62250  0.72921  1.0000
  H   H567      1.0  0.02386  0.74551  0.86036  1.0000
  C   C475      1.0  0.02311  0.54620  0.71505  1.0000
  C   C476      1.0  0.03910  0.57160  0.72470  1.0000
  H   H568      1.0  0.11688  0.51826  0.86182  1.0000
  N   N31       1.0  0.20655  0.75522  0.79668  1.0000
  C   C477      1.0  0.04563  0.61028  0.77277  1.0000
  S   S127      1.0  0.37576  0.91258  0.90510  1.0000
  C   C478      1.0  0.21980  0.81228  0.80598  1.0000
  C   C479      1.0  0.46785  0.90988  0.91816  1.0000
  C   C480      1.0  0.23872  0.53796  0.95175  1.0000
  C   C481      1.0  0.23903  0.83532  0.81599  1.0000
  H   H569      1.0  0.24455  0.71740  0.79553  1.0000
  C   C482      1.0  0.22756  0.77914  0.80733  1.0000
  C   C483      1.0  0.08398  0.57897  0.67969  1.0000
  H   H570      1.0  0.06059  0.55621  0.87109  1.0000
  N   N32       1.0  0.48830  0.91975  0.80009  1.0000
  H   H571      1.0  0.07665  0.50997  0.75604  1.0000
  C   C484      1.0  0.33740  0.86946  0.98844  1.0000
  H   H572      1.0  0.13524  0.57200  0.69094  1.0000
  H   H573      1.0  0.26474  0.54446  0.95762  1.0000
  S   S128      1.0  0.33492  0.86569  0.94951  1.0000
  H   H574      1.0  0.46151  0.91296  0.82668  1.0000
  H   H575      1.0  0.20066  0.70421  0.79208  1.0000
  C   C485      1.0  0.48876  0.84607  0.93333  1.0000
  C   C486      1.0  0.47524  0.95287  0.79811  1.0000
  C   C487      1.0  0.13105  0.61755  0.67672  1.0000
  C   C488      1.0  0.02404  0.60295  0.85353  1.0000
  H   H576      1.0  0.00072  0.61407  0.84702  1.0000
  C   C489      1.0  0.02771  0.60280  0.72197  1.0000
  H   H577      1.0  0.47333  0.87661  0.81495  1.0000
  C   C490      1.0  0.99947  0.73718  0.86630  1.0000
  H   H578      1.0  0.48385  0.89919  0.90726  1.0000
  H   H579      1.0  0.03345  0.52281  0.71773  1.0000
  H   H580      1.0  0.48065  0.95724  0.90820  1.0000
  H   H581      1.0  0.01841  0.56088  0.80846  1.0000
  C   C491      1.0  0.46601  0.94329  0.91850  1.0000
  C   C492      1.0  0.03490  0.57227  0.79805  1.0000
  H   H582      1.0  0.44031  0.81668  0.91126  1.0000
  H   H583      1.0  0.48600  0.96701  0.82747  1.0000
  C   C493      1.0  0.44519  0.95864  0.93185  1.0000
  C   C494      1.0  0.99431  0.65728  0.90239  1.0000
  H   H584      1.0  0.32656  0.85548  0.66922  1.0000
  C   C495      1.0  0.06226  0.59919  0.66947  1.0000
  H   H585      1.0  0.49178  0.81958  0.93379  1.0000
  C   C496      1.0  0.99522  0.55134  0.70220  1.0000
  C   C497      1.0  0.44746  0.99563  0.77971  1.0000
  Fe  Fe65      1.0  0.91290  0.43728  0.15153  1.0000
  C   C498      1.0  0.57654  0.10298  0.21879  1.0000
  S   S129      1.0  0.87375  0.41172  0.13213  1.0000
  S   S130      1.0  0.89923  0.46327  0.17867  1.0000
  H   H586      1.0  0.59510  0.10497  0.15073  1.0000
  Fe  Fe66      1.0  0.95409  0.45208  0.18823  1.0000
  C   C499      1.0  0.97091  0.46397  0.32755  1.0000
  Fe  Fe67      1.0  0.74226  0.24491  0.06081  1.0000
  S   S131      1.0  0.78136  0.21592  0.07719  1.0000
  S   S132      1.0  0.74795  0.26552  0.03097  1.0000
  Fe  Fe68      1.0  0.69580  0.25276  0.09563  1.0000
  S   S133      1.0  0.73109  0.22465  0.11455  1.0000
  S   S134      1.0  0.64670  0.27625  0.10611  1.0000
  Fe  Fe69      1.0  0.77471  0.25219  0.10067  1.0000
  S   S135      1.0  0.81820  0.26820  0.12073  1.0000
  Fe  Fe70      1.0  0.73442  0.19092  0.08990  1.0000
  S   S136      1.0  0.73255  0.13681  0.09363  1.0000
  S   S137      1.0  0.73900  0.28292  0.08356  1.0000
  S   S138      1.0  0.69590  0.21723  0.07172  1.0000
  C   C500      1.0  0.57593  0.15564  0.20258  1.0000
  S   S139      1.0  0.65966  0.16779  0.31110  1.0000
  Fe  Fe71      1.0  0.60310  0.18010  0.30709  1.0000
  S   S140      1.0  0.58053  0.19165  0.27786  1.0000
  H   H587      1.0  0.58783  0.03014  0.24041  1.0000
  C   C501      1.0  0.69237  0.06921  0.12909  1.0000
  S   S141      1.0  0.55445  0.18836  0.15948  1.0000
  C   C502      1.0  0.67469  0.12071  0.14127  1.0000
  Fe  Fe72      1.0  0.64218  0.01597  0.16479  1.0000
  C   C503      1.0  0.54409  0.17844  0.26429  1.0000
  C   C504      1.0  0.52558  0.15022  0.26830  1.0000
  C   C505      1.0  0.61542  0.14597  0.22824  1.0000
  H   H588      1.0  0.51871  0.18330  0.33189  1.0000
  H   H589      1.0  0.74349  0.30393  0.33265  1.0000
  C   C506      1.0  0.53467  0.19643  0.24827  1.0000
  H   H590      1.0  0.53289  0.13573  0.28034  1.0000
  H   H591      1.0  0.95765  0.44970  0.31628  1.0000
  H   H592      1.0  0.54885  0.21822  0.24497  1.0000
  C   C507      1.0  0.70915  0.11829  0.11236  1.0000
  C   C508      1.0  0.69139  0.13622  0.12600  1.0000
  H   H593      1.0  0.69073  0.16202  0.12489  1.0000
  H   H594      1.0  0.66117  0.13477  0.15180  1.0000
  C   C509      1.0  0.62039  0.25153  0.12047  1.0000
  C   C510      1.0  0.58563  0.25975  0.12402  1.0000
  C   C511      1.0  0.56461  0.24031  0.13572  1.0000
  C   C512      1.0  0.57869  0.21307  0.14419  1.0000
  C   C513      1.0  0.61345  0.20507  0.14074  1.0000
  C   C514      1.0  0.63408  0.22398  0.12872  1.0000
  H   H595      1.0  0.57491  0.28105  0.11763  1.0000
  H   H596      1.0  0.53782  0.24664  0.13840  1.0000
  H   H597      1.0  0.62433  0.18385  0.14712  1.0000
  H   H598      1.0  0.66062  0.21727  0.12598  1.0000
  C   C515      1.0  0.85940  0.37140  0.12922  1.0000
  C   C516      1.0  0.87003  0.34666  0.14122  1.0000
  C   C517      1.0  0.85722  0.31522  0.13842  1.0000
  C   C518      1.0  0.83357  0.30819  0.12370  1.0000
  C   C519      1.0  0.82290  0.33294  0.11175  1.0000
  C   C520      1.0  0.83588  0.36428  0.11446  1.0000
  H   H599      1.0  0.88804  0.35177  0.15265  1.0000
  H   H600      1.0  0.86570  0.29625  0.14774  1.0000
  H   H601      1.0  0.80501  0.32791  0.10026  1.0000
  H   H602      1.0  0.82759  0.38322  0.10507  1.0000
  C   C521      1.0  0.52100  0.07498  0.22422  1.0000
  H   H603      1.0  0.61040  0.10675  0.18601  1.0000
  S   S142      1.0  0.93335  0.48209  0.13730  1.0000
  C   C522      1.0  0.82901  0.29037  0.00963  1.0000
  C   C523      1.0  0.57518  0.01060  0.31224  1.0000
  H   H604      1.0  0.59209  0.17580  0.19700  1.0000
  S   S143      1.0  0.96838  0.43336  0.21780  1.0000
  C   C524      1.0  0.57437  0.05009  0.23400  1.0000
  C   C525      1.0  0.53827  0.04928  0.23243  1.0000
  H   H605      1.0  0.75144  0.19751  0.02088  1.0000
  H   H606      1.0  0.62998  0.16791  0.22389  1.0000
  C   C526      1.0  0.63769  0.01209  0.30807  1.0000
  H   H607      1.0  0.82426  0.23921  0.00870  1.0000
  N   N33       1.0  0.59723  0.13073  0.21196  1.0000
  S   S144      1.0  0.58915  0.00634  0.17680  1.0000
  S   S145      1.0  0.60597  0.22131  0.32769  1.0000
  H   H608      1.0  0.51678  0.06330  0.12965  1.0000
  H   H609      1.0  0.56140  0.14564  0.19025  1.0000
  H   H610      1.0  0.63812  0.14022  0.19156  1.0000
  H   H611      1.0  0.55703  0.16649  0.21255  1.0000
  H   H612      1.0  0.61104  0.05812  0.13014  1.0000
  S   S146      1.0  0.65596  0.06905  0.16309  1.0000
  C   C527      1.0  0.74901  0.21132  0.00797  1.0000
  C   C528      1.0  0.60562  0.02768  0.30848  1.0000
  C   C529      1.0  0.62753  0.13280  0.09274  1.0000
  H   H613      1.0  0.57076  0.03833  0.13440  1.0000
  C   C530      1.0  0.62332  0.11985  0.19788  1.0000
  H   H614      1.0  0.55837  0.07990  0.15661  1.0000
  H   H615      1.0  0.69309  0.04338  0.13025  1.0000
  H   H616      1.0  0.65149  0.12872  0.08497  1.0000
  H   H617      1.0  0.63442  0.12967  0.23503  1.0000
  Fe  Fe73      1.0  0.64144  0.13511  0.33467  1.0000
  H   H618      1.0  0.58289  0.04714  0.11050  1.0000
  N   N34       1.0  0.71716  0.34143  0.13214  1.0000
  C   C531      1.0  0.70964  0.35005  0.11210  1.0000
  C   C532      1.0  0.73022  0.30809  0.13218  1.0000
  C   C533      1.0  0.68383  0.34228  0.14274  1.0000
  C   C534      1.0  0.74296  0.36294  0.14136  1.0000
  C   C535      1.0  0.75798  0.38992  0.13204  1.0000
  C   C536      1.0  0.75404  0.35701  0.16027  1.0000
  C   C537      1.0  0.78303  0.40909  0.14102  1.0000
  C   C538      1.0  0.77936  0.37620  0.16903  1.0000
  C   C539      1.0  0.79398  0.40206  0.15937  1.0000
  H   H619      1.0  0.73357  0.34910  0.10319  1.0000
  H   H620      1.0  0.69058  0.33313  0.10547  1.0000
  H   H621      1.0  0.69801  0.37428  0.11097  1.0000
  H   H622      1.0  0.75571  0.30656  0.12476  1.0000
  H   H623      1.0  0.71178  0.29145  0.12493  1.0000
  H   H624      1.0  0.73388  0.29838  0.14668  1.0000
  H   H625      1.0  0.67356  0.36710  0.14349  1.0000
  H   H626      1.0  0.66355  0.32693  0.13581  1.0000
  H   H627      1.0  0.68654  0.33331  0.15749  1.0000
  H   H628      1.0  0.75161  0.39634  0.11763  1.0000
  H   H629      1.0  0.74360  0.33715  0.16832  1.0000
  H   H630      1.0  0.79526  0.42883  0.13346  1.0000
  H   H631      1.0  0.78817  0.37076  0.18328  1.0000
  H   H632      1.0  0.81441  0.41638  0.16590  1.0000
  N   N35       1.0  0.56605  0.08823  0.12664  1.0000
  C   C540      1.0  0.58356  0.05670  0.12526  1.0000
  C   C541      1.0  0.56785  0.09881  0.14672  1.0000
  C   C542      1.0  0.52900  0.08314  0.12137  1.0000
  C   C543      1.0  0.58188  0.11324  0.11439  1.0000
  C   C544      1.0  0.56706  0.14425  0.11351  1.0000
  H   H633      1.0  0.52639  0.07698  0.10605  1.0000
  H   H634      1.0  0.82574  0.29147  0.02491  1.0000
  C   C545      1.0  0.74567  0.24461  0.00903  1.0000
  H   H635      1.0  0.51279  0.10459  0.12410  1.0000
  H   H636      1.0  0.49915  0.20927  0.31527  1.0000
  H   H637      1.0  0.98525  0.48032  0.29361  1.0000
  Fe  Fe74      1.0  0.66106  0.20667  0.33355  1.0000
  H   H638      1.0  0.54429  0.15025  0.12176  1.0000
  H   H639      1.0  0.57060  0.19225  0.10236  1.0000
  H   H640      1.0  0.64290  0.10342  0.20403  1.0000
  N   N36       1.0  0.81169  0.15634  0.13647  1.0000
  C   C546      1.0  0.81315  0.17252  0.11776  1.0000
  C   C547      1.0  0.84657  0.15836  0.14544  1.0000
  C   C548      1.0  0.80374  0.12194  0.13297  1.0000
  C   C549      1.0  0.78573  0.17247  0.14867  1.0000
  C   C550      1.0  0.75561  0.15664  0.15589  1.0000
  C   C551      1.0  0.78997  0.20530  0.15346  1.0000
  C   C552      1.0  0.73121  0.17300  0.16691  1.0000
  C   C553      1.0  0.76536  0.22145  0.16441  1.0000
  C   C554      1.0  0.73594  0.20536  0.17107  1.0000
  H   H641      1.0  0.82197  0.19789  0.11880  1.0000
  H   H642      1.0  0.83120  0.16040  0.10774  1.0000
  H   H643      1.0  0.78704  0.17256  0.11099  1.0000
  H   H644      1.0  0.85621  0.18348  0.14660  1.0000
  H   H645      1.0  0.86645  0.14524  0.13703  1.0000
  H   H646      1.0  0.84604  0.14803  0.16000  1.0000
  H   H647      1.0  0.77848  0.11883  0.12543  1.0000
  H   H648      1.0  0.82359  0.11053  0.12371  1.0000
  H   H649      1.0  0.80283  0.10803  0.14643  1.0000
  H   H650      1.0  0.74989  0.13174  0.15297  1.0000
  H   H651      1.0  0.81213  0.21896  0.14846  1.0000
  H   H652      1.0  0.70823  0.16051  0.17203  1.0000
  H   H653      1.0  0.76909  0.24668  0.16752  1.0000
  H   H654      1.0  0.71668  0.21800  0.17938  1.0000
  H   H655      1.0  0.52441  0.12055  0.21148  1.0000
  H   H656      1.0  0.55193  0.12047  0.14937  1.0000
  H   H657      1.0  0.62648  0.08577  0.10371  1.0000
  H   H658      1.0  0.90383  0.48067  0.32278  1.0000
  H   H659      1.0  0.59653  0.15320  0.23945  1.0000
  C   C555      1.0  0.61274  0.10821  0.10365  1.0000
  C   C556      1.0  0.59331  0.07648  0.22733  1.0000
  C   C557      1.0  0.61227  0.16292  0.09223  1.0000
  C   C558      1.0  0.58197  0.16856  0.10248  1.0000
  C   C559      1.0  0.53966  0.10145  0.21745  1.0000
  C   C560      1.0  0.70927  0.08474  0.11388  1.0000
  C   C561      1.0  0.67545  0.08721  0.14300  1.0000
  C   C562      1.0  0.50717  0.18654  0.23637  1.0000
  H   H660      1.0  0.62426  0.18210  0.08410  1.0000
  H   H661      1.0  0.72281  0.07067  0.10333  1.0000
  H   H662      1.0  0.62124  0.07593  0.22894  1.0000
  S   S147      1.0  0.96583  0.42230  0.16210  1.0000
  H   H663      1.0  0.70495  0.99895  0.32276  1.0000
  H   H664      1.0  0.97371  0.38456  0.09933  1.0000
  Fe  Fe75      1.0  0.98470  0.46885  0.14989  1.0000
  Fe  Fe76      1.0  0.49604  0.18817  0.16245  1.0000
  H   H665      1.0  0.66021  0.02706  0.30544  1.0000
  H   H666      1.0  0.52371  0.02878  0.23769  1.0000
  H   H667      1.0  0.51733  0.17224  0.30724  1.0000
  H   H668      1.0  0.55043  0.02281  0.31256  1.0000
  H   H669      1.0  0.60457  0.05333  0.30611  1.0000
  C   C563      1.0  0.91873  0.49268  0.33436  1.0000
  S   S148      1.0  0.58467  0.14507  0.32912  1.0000
  H   H670      1.0  0.83311  0.34130  0.00635  1.0000
  H   H671      1.0  0.70569  0.99720  0.29708  1.0000
  H   H672      1.0  0.79662  0.22950  0.33310  1.0000
  C   C564      1.0  0.49801  0.14028  0.25634  1.0000
  H   H673      1.0  0.49821  0.03313  0.17185  1.0000
  H   H674      1.0  0.99066  0.41258  0.25469  1.0000
  S   S149      1.0  0.70264  0.24621  0.33344  1.0000
  C   C565      1.0  0.50225  0.18359  0.31891  1.0000
  H   H675      1.0  0.50031  0.20076  0.22413  1.0000
  H   H676      1.0  0.54697  0.24025  0.62248  1.0000
  S   S150      1.0  0.89400  0.40707  0.64440  1.0000
  S   S151      1.0  0.75731  0.99999  0.38694  1.0000
  S   S152      1.0  0.73708  0.36429  0.60346  1.0000
  S   S153      1.0  0.83931  0.37219  0.59849  1.0000
  H   H677      1.0  0.56556  0.05147  0.40474  1.0000
  H   H678      1.0  0.55742  0.02992  0.35390  1.0000
  C   C566      1.0  0.68016  0.06002  0.35209  1.0000
  H   H679      1.0  0.91523  0.47826  0.34756  1.0000
  H   H680      1.0  0.64393  0.35049  0.63950  1.0000
  H   H681      1.0  0.56819  0.27379  0.66288  1.0000
  Fe  Fe77      1.0  0.59198  0.18527  0.34990  1.0000
  H   H682      1.0  0.51357  0.25899  0.59433  1.0000
  C   C567      1.0  0.98590  0.45481  0.38953  1.0000
  H   H683      1.0  0.65319  0.01508  0.34758  1.0000
  C   C568      1.0  0.61624  0.35071  0.61343  1.0000
  H   H684      1.0  0.57127  0.07228  0.61244  1.0000
  H   H685      1.0  0.55724  0.03160  0.61333  1.0000
  S   S154      1.0  0.62597  0.09846  0.63575  1.0000
  S   S155      1.0  0.62088  0.19406  0.63926  1.0000
  C   C569      1.0  0.57210  0.30813  0.37053  1.0000
  C   C570      1.0  0.86315  0.40499  0.48959  1.0000
  S   S156      1.0  0.92745  0.37375  0.39092  1.0000
  C   C571      1.0  0.98584  0.39499  0.37181  1.0000
  S   S157      1.0  0.76199  0.33647  0.39956  1.0000
  S   S158      1.0  0.84240  0.37079  0.42292  1.0000
  H   H686      1.0  0.72868  0.36610  0.47963  1.0000
  C   C572      1.0  0.83274  0.42283  0.48735  1.0000
  H   H687      1.0  0.86845  0.33986  0.37264  1.0000
  C   C573      1.0  0.73095  0.32699  0.54796  1.0000
  C   C574      1.0  0.53370  0.08019  0.37596  1.0000
  H   H688      1.0  0.60445  0.29227  0.33693  1.0000
  H   H689      1.0  0.86659  0.27463  0.40710  1.0000
  H   H690      1.0  0.59731  0.03011  0.39096  1.0000
  H   H691      1.0  0.59300  0.25018  0.36406  1.0000
  H   H692      1.0  0.54840  0.12774  0.38690  1.0000
  C   C575      1.0  0.58642  0.34132  0.60359  1.0000
  H   H693      1.0  0.91271  0.29767  0.37647  1.0000
  C   C576      1.0  0.54869  0.05627  0.60952  1.0000
  H   H694      1.0  0.92104  0.47449  0.62070  1.0000
  C   C577      1.0  0.83106  0.26552  0.37292  1.0000
  S   S159      1.0  0.64713  0.17289  0.35731  1.0000
  H   H695      1.0  0.66866  0.99739  0.60905  1.0000
  C   C578      1.0  0.70841  0.07474  0.36118  1.0000
  C   C579      1.0  0.73174  0.05621  0.37199  1.0000
  C   C580      1.0  0.72676  0.02296  0.37402  1.0000
  C   C581      1.0  0.69790  0.00850  0.36542  1.0000
  H   H696      1.0  0.52157  0.24175  0.48266  1.0000
  H   H697      1.0  0.50303  0.07399  0.64939  1.0000
  H   H698      1.0  0.75398  0.06760  0.37866  1.0000
  H   H699      1.0  0.62807  0.34434  0.37798  1.0000
  H   H700      1.0  0.87846  0.31537  0.40258  1.0000
  C   C582      1.0  0.74558  0.31207  0.38082  1.0000
  C   C583      1.0  0.75180  0.31889  0.36168  1.0000
  C   C584      1.0  0.73833  0.29853  0.34741  1.0000
  C   C585      1.0  0.71825  0.27132  0.35205  1.0000
  C   C586      1.0  0.71187  0.26459  0.37120  1.0000
  C   C587      1.0  0.72543  0.28489  0.38546  1.0000
  H   H701      1.0  0.76676  0.33994  0.35783  1.0000
  C   C588      1.0  0.51678  0.33185  0.36042  1.0000
  H   H702      1.0  0.69736  0.24329  0.37506  1.0000
  H   H703      1.0  0.72066  0.27927  0.40023  1.0000
  Fe  Fe78      1.0  0.57795  0.20064  0.66060  1.0000
  H   H704      1.0  0.62608  0.31298  0.39532  1.0000
  C   C589      1.0  0.95998  0.43226  0.39390  1.0000
  C   C590      1.0  0.95982  0.40226  0.38514  1.0000
  H   H705      1.0  0.71376  0.36370  0.51335  1.0000
  C   C591      1.0  0.74828  0.35947  0.48994  1.0000
  C   C592      1.0  0.56040  0.32400  0.61288  1.0000
  H   H706      1.0  0.94057  0.43792  0.40441  1.0000
  H   H707      1.0  0.77032  0.21323  0.39132  1.0000
  C   C593      1.0  0.87509  0.39712  0.50796  1.0000
  S   S160      1.0  0.55524  0.19297  0.37431  1.0000
  H   H708      1.0  0.53164  0.04098  0.64579  1.0000
  S   S161      1.0  0.79419  0.43059  0.57892  1.0000
  Fe  Fe79      1.0  0.83057  0.41992  0.43413  1.0000
  C   C594      1.0  0.82686  0.42532  0.52202  1.0000
  S   S162      1.0  0.87211  0.39542  0.54710  1.0000
  H   H709      1.0  0.60799  0.05449  0.66523  1.0000
  H   H710      1.0  0.61272  0.25881  0.38644  1.0000
  C   C595      1.0  0.70828  0.01994  0.62612  1.0000
  C   C596      1.0  0.67524  0.01774  0.61790  1.0000
  C   C597      1.0  0.65054  0.04195  0.62105  1.0000
  C   C598      1.0  0.65850  0.06886  0.63232  1.0000
  C   C599      1.0  0.69147  0.07102  0.64070  1.0000
  C   C600      1.0  0.71614  0.04660  0.63767  1.0000
  C   C601      1.0  0.78626  0.22535  0.38081  1.0000
  H   H711      1.0  0.62522  0.03980  0.61451  1.0000
  H   H712      1.0  0.69804  0.09155  0.64941  1.0000
  H   H713      1.0  0.74161  0.04859  0.64411  1.0000
  H   H714      1.0  0.87730  0.39711  0.47718  1.0000
  H   H715      1.0  0.89846  0.38311  0.50954  1.0000
  C   C602      1.0  0.72831  0.33121  0.61885  1.0000
  C   C603      1.0  0.74931  0.32440  0.63453  1.0000
  C   C604      1.0  0.74069  0.29876  0.64677  1.0000
  C   C605      1.0  0.71114  0.27937  0.64351  1.0000
  C   C606      1.0  0.69034  0.28591  0.62767  1.0000
  C   C607      1.0  0.69888  0.31168  0.61547  1.0000
  H   H716      1.0  0.77203  0.33910  0.63738  1.0000
  C   C608      1.0  0.52547  0.06548  0.64083  1.0000
  H   H717      1.0  0.66767  0.27118  0.62482  1.0000
  H   H718      1.0  0.68258  0.31646  0.60331  1.0000
  S   S163      1.0  0.87278  0.44432  0.59518  1.0000
  S   S164      1.0  0.80682  0.43058  0.62471  1.0000
  C   C609      1.0  0.96097  0.41839  0.65566  1.0000
  C   C610      1.0  0.93893  0.41001  0.64053  1.0000
  C   C611      1.0  0.95300  0.40416  0.62259  1.0000
  H   H719      1.0  0.62077  0.33143  0.34395  1.0000
  C   C612      1.0  0.50130  0.32315  0.37755  1.0000
  H   H720      1.0  0.71285  0.10019  0.35951  1.0000
  H   H721      1.0  0.93608  0.39757  0.61091  1.0000
  N   N37       1.0  0.75705  0.35226  0.54363  1.0000
  C   C613      1.0  0.78743  0.34706  0.55626  1.0000
  C   C614      1.0  0.74216  0.38390  0.54858  1.0000
  C   C615      1.0  0.76589  0.35146  0.52315  1.0000
  C   C616      1.0  0.79982  0.34433  0.51634  1.0000
  C   C617      1.0  0.74017  0.35836  0.50929  1.0000
  C   C618      1.0  0.80740  0.34487  0.49692  1.0000
  N   N38       1.0  0.85720  0.29018  0.37832  1.0000
  C   C619      1.0  0.78191  0.35297  0.48379  1.0000
  H   H722      1.0  0.79925  0.32312  0.55402  1.0000
  H   H723      1.0  0.78009  0.34814  0.57154  1.0000
  H   H724      1.0  0.80774  0.36579  0.55405  1.0000
  H   H725      1.0  0.71670  0.38820  0.54168  1.0000
  H   H726      1.0  0.73750  0.38624  0.56413  1.0000
  H   H727      1.0  0.76007  0.40365  0.54422  1.0000
  H   H728      1.0  0.82138  0.33939  0.52570  1.0000
  H   H729      1.0  0.75703  0.29400  0.65894  1.0000
  H   H730      1.0  0.83370  0.34040  0.49208  1.0000
  S   S165      1.0  0.78640  0.42716  0.41349  1.0000
  H   H731      1.0  0.78846  0.35498  0.46885  1.0000
  H   H732      1.0  0.56182  0.33176  0.34323  1.0000
  H   H733      1.0  0.82295  0.32970  0.37360  1.0000
  C   C620      1.0  0.57099  0.04109  0.39049  1.0000
  H   H734      1.0  0.72422  0.32672  0.56339  1.0000
  H   H735      1.0  0.49785  0.20405  0.39894  1.0000
  N   N39       1.0  0.51718  0.06566  0.62028  1.0000
  H   H736      1.0  0.89908  0.25638  0.37830  1.0000
  H   H737      1.0  0.59661  0.10908  0.36808  1.0000
  C   C621      1.0  0.85694  0.40711  0.52427  1.0000
  H   H738      1.0  0.62347  0.07812  0.37733  1.0000
  S   S166      1.0  0.81859  0.49253  0.37516  1.0000
  N   N40       1.0  0.56877  0.06581  0.37550  1.0000
  H   H739      1.0  0.63668  0.36402  0.60619  1.0000
  C   C622      1.0  0.55167  0.32460  0.35687  1.0000
  C   C623      1.0  0.84891  0.32100  0.36900  1.0000
  Fe  Fe80      1.0  0.78712  0.39503  0.60299  1.0000
  S   S167      1.0  0.65135  0.08143  0.33709  1.0000
  N   N41       1.0  0.60888  0.29933  0.36719  1.0000
  C   C624      1.0  0.55563  0.30018  0.38798  1.0000
  Fe  Fe81      1.0  0.85952  0.41011  0.61853  1.0000
  Fe  Fe82      1.0  0.65606  0.21188  0.66275  1.0000
  C   C625      1.0  0.50628  0.09824  0.61470  1.0000
  H   H740      1.0  0.76188  0.20108  0.35727  1.0000
  C   C626      1.0  0.94382  0.48995  0.62429  1.0000
  H   H741      1.0  0.70626  0.33047  0.54006  1.0000
  H   H742      1.0  0.55189  0.02129  0.38816  1.0000
  H   H743      1.0  0.89417  0.27784  0.35639  1.0000
  H   H744      1.0  0.53744  0.17556  0.61466  1.0000
  C   C627      1.0  0.63158  0.31815  0.38013  1.0000
  Fe  Fe83      1.0  0.80020  0.37897  0.40132  1.0000
  H   H745      1.0  0.53715  0.31672  0.60521  1.0000
  S   S168      1.0  0.86999  0.44462  0.41519  1.0000
  S   S169      1.0  0.70087  0.24839  0.66014  1.0000
  H   H746      1.0  0.74104  0.30287  0.54420  1.0000
  H   H747      1.0  0.50823  0.30008  0.40443  1.0000
  C   C628      1.0  0.51943  0.15579  0.61245  1.0000
  H   H748      1.0  0.50127  0.34367  0.34969  1.0000
  Fe  Fe84      1.0  0.82685  0.44854  0.39387  1.0000
  H   H749      1.0  0.59654  0.09986  0.39322  1.0000
  H   H750      1.0  0.96775  0.45021  0.34100  1.0000
  H   H751      1.0  0.55534  0.12144  0.62271  1.0000
  C   C629      1.0  0.59430  0.32498  0.64247  1.0000
  Fe  Fe85      1.0  0.87773  0.39584  0.40211  1.0000
  H   H752      1.0  0.54387  0.05680  0.59395  1.0000
  C   C630      1.0  0.51896  0.21803  0.37182  1.0000
  C   C631      1.0  0.85890  0.29637  0.39908  1.0000
  H   H753      1.0  0.54841  0.08077  0.64433  1.0000
  H   H754      1.0  0.53378  0.23795  0.34477  1.0000
  Fe  Fe86      1.0  0.62821  0.14523  0.65270  1.0000
  C   C632      1.0  0.59696  0.03006  0.66712  1.0000
  H   H755      1.0  0.57255  0.06805  0.34502  1.0000
  C   C633      1.0  0.50401  0.06172  0.37082  1.0000
  H   H756      1.0  0.58349  0.34744  0.58873  1.0000
  C   C634      1.0  0.82579  0.25750  0.35351  1.0000
  H   H757      1.0  0.59656  0.01888  0.65276  1.0000
  H   H758      1.0  0.63911  0.25575  0.36582  1.0000
  C   C635      1.0  0.51421  0.23723  0.35578  1.0000
  C   C636      1.0  0.78153  0.21836  0.36164  1.0000
  C   C637      1.0  0.62082  0.30545  0.34743  1.0000
  C   C638      1.0  0.59738  0.08938  0.37871  1.0000
  Fe  Fe87      1.0  0.81951  0.46346  0.60044  1.0000
  S   S170      1.0  0.81556  0.43281  0.46466  1.0000
  C   C639      1.0  0.81042  0.24871  0.38646  1.0000
  C   C640      1.0  0.62017  0.34278  0.63257  1.0000
  C   C641      1.0  0.80116  0.23447  0.34802  1.0000
  Fe  Fe88      1.0  0.84707  0.40914  0.57539  1.0000
  S   S171      1.0  0.83643  0.40098  0.37984  1.0000
  C   C642      1.0  0.57510  0.05046  0.35679  1.0000
  C   C643      1.0  0.51883  0.24052  0.62282  1.0000
  C   C644      1.0  0.52069  0.30738  0.39131  1.0000
  H   H759      1.0  0.84030  0.26932  0.34238  1.0000
  H   H760      1.0  0.98586  0.47786  0.39658  1.0000
  H   H761      1.0  0.83343  0.30500  0.40461  1.0000
  C   C645      1.0  0.56409  0.31588  0.63203  1.0000
  C   C646      1.0  0.61367  0.26467  0.37107  1.0000
  H   H762      1.0  0.84860  0.31937  0.35329  1.0000
  S   S172      1.0  0.52313  0.21939  0.65994  1.0000
  H   H763      1.0  0.81190  0.25355  0.40150  1.0000
  H   H764      1.0  0.79143  0.44701  0.50212  1.0000
  C   C647      1.0  0.81483  0.43303  0.50368  1.0000
  H   H765      1.0  0.81291  0.43359  0.53438  1.0000
  C   C648      1.0  0.52941  0.12465  0.61705  1.0000
  H   H766      1.0  0.96381  0.47411  0.63061  1.0000
  H   H767      1.0  0.60163  0.04028  0.35593  1.0000
  C   C649      1.0  0.52762  0.11196  0.38237  1.0000
  H   H768      1.0  0.56951  0.28781  0.39906  1.0000
  H   H769      1.0  0.54291  0.30235  0.63826  1.0000
  C   C650      1.0  0.67491  0.02686  0.35443  1.0000
  H   H770      1.0  0.65962  0.31289  0.37772  1.0000
  H   H771      1.0  0.94376  0.47092  0.58674  1.0000
  C   C651      1.0  0.96699  0.48353  0.59268  1.0000
  C   C652      1.0  0.89228  0.28001  0.37207  1.0000
  H   H772      1.0  0.49941  0.01639  0.62091  1.0000
  N   N42       1.0  0.59915  0.31702  0.66279  1.0000
  C   C653      1.0  0.98912  0.40576  0.61991  1.0000
  H   H773      1.0  0.50527  0.22866  0.51504  1.0000
  H   H774      1.0  0.98078  0.49531  0.58064  1.0000
  C   C654      1.0  0.63209  0.29926  0.66530  1.0000
  C   C655      1.0  0.49993  0.25124  0.60697  1.0000
  H   H775      1.0  0.98573  0.37181  0.36493  1.0000
  H   H776      1.0  0.63254  0.27752  0.65613  1.0000
  H   H777      1.0  0.64811  0.29736  0.34513  1.0000
  H   H778      1.0  0.98378  0.46414  0.59822  1.0000
  H   H779      1.0  0.65553  0.31378  0.66172  1.0000
  H   H780      1.0  0.50621  0.03700  0.36649  1.0000
  C   C656      1.0  0.50113  0.23085  0.63922  1.0000
  C   C657      1.0  0.49426  0.23978  0.48637  1.0000
  C   C658      1.0  0.63387  0.05799  0.70115  1.0000
  H   H781      1.0  0.96609  0.35175  0.74285  1.0000
  C   C659      1.0  0.71297  0.07246  0.91224  1.0000
  Fe  Fe89      1.0  0.96485  0.45972  0.80556  1.0000
  Fe  Fe90      1.0  0.91276  0.44403  0.83747  1.0000
  S   S173      1.0  0.86318  0.41474  0.84239  1.0000
  S   S174      1.0  0.90984  0.47501  0.81129  1.0000
  Fe  Fe91      1.0  0.78718  0.25512  0.89076  1.0000
  S   S175      1.0  0.74310  0.26595  0.91092  1.0000
  S   S176      1.0  0.83694  0.28546  0.88888  1.0000
  Fe  Fe92      1.0  0.75714  0.18832  0.88100  1.0000
  S   S177      1.0  0.71206  0.19443  0.90065  1.0000
  S   S178      1.0  0.76596  0.14163  0.86527  1.0000
  Fe  Fe93      1.0  0.70912  0.24365  0.88815  1.0000
  S   S179      1.0  0.65842  0.26425  0.87739  1.0000
  Fe  Fe94      1.0  0.74971  0.21553  0.92159  1.0000
  S   S180      1.0  0.75079  0.19321  0.95115  1.0000
  S   S181      1.0  0.75275  0.23663  0.86725  1.0000
  S   S182      1.0  0.79550  0.20566  0.90274  1.0000
  S   S183      1.0  0.61215  0.22193  0.68314  1.0000
  S   S184      1.0  0.53522  0.16571  0.86248  1.0000
  H   H782      1.0  0.75459  0.07975  0.94395  1.0000
  H   H783      1.0  0.88086  0.28514  0.74620  1.0000
  C   C660      1.0  0.75012  0.19597  0.99014  1.0000
  H   H784      1.0  0.56239  0.04022  0.84696  1.0000
  S   S185      1.0  0.96662  0.42631  0.83071  1.0000
  Fe  Fe95      1.0  0.61795  0.17166  0.69346  1.0000
  S   S186      1.0  0.60879  0.15589  0.72412  1.0000
  S   S187      1.0  0.63501  0.05591  0.84249  1.0000
  H   H785      1.0  0.65212  0.03574  0.88355  1.0000
  C   C661      1.0  0.55210  0.19472  0.73196  1.0000
  C   C662      1.0  0.57200  0.16841  0.73748  1.0000
  C   C663      1.0  0.56289  0.15195  0.75420  1.0000
  C   C664      1.0  0.53460  0.16198  0.76546  1.0000
  H   H786      1.0  0.55874  0.20763  0.71915  1.0000
  H   H787      1.0  0.57763  0.13118  0.75842  1.0000
  H   H788      1.0  0.52761  0.14884  0.77812  1.0000
  C   C665      1.0  0.74761  0.21362  0.97320  1.0000
  Fe  Fe96      1.0  0.63507  0.00224  0.83684  1.0000
  C   C666      1.0  0.74350  0.24681  0.97425  1.0000
  H   H789      1.0  0.75323  0.17027  0.98949  1.0000
  H   H790      1.0  0.74103  0.26061  0.96137  1.0000
  C   C667      1.0  0.73434  0.08623  0.85265  1.0000
  C   C668      1.0  0.72941  0.11739  0.85967  1.0000
  C   C669      1.0  0.69555  0.12877  0.86197  1.0000
  H   H791      1.0  0.50418  0.18608  0.69732  1.0000
  H   H792      1.0  0.69143  0.15279  0.86720  1.0000
  C   C670      1.0  0.62426  0.23694  0.87250  1.0000
  C   C671      1.0  0.62803  0.20432  0.87623  1.0000
  C   C672      1.0  0.60043  0.18294  0.87307  1.0000
  C   C673      1.0  0.56894  0.19381  0.86566  1.0000
  C   C674      1.0  0.56519  0.22625  0.86120  1.0000
  C   C675      1.0  0.59278  0.24785  0.86479  1.0000
  H   H793      1.0  0.65203  0.19546  0.88175  1.0000
  H   H794      1.0  0.60353  0.15787  0.87647  1.0000
  H   H795      1.0  0.54086  0.23481  0.85548  1.0000
  H   H796      1.0  0.58967  0.27307  0.86177  1.0000
  C   C676      1.0  0.85667  0.37885  0.85550  1.0000
  C   C677      1.0  0.82329  0.36476  0.85577  1.0000
  C   C678      1.0  0.81684  0.33605  0.86574  1.0000
  C   C679      1.0  0.84376  0.32115  0.87563  1.0000
  C   C680      1.0  0.87720  0.33516  0.87529  1.0000
  C   C681      1.0  0.88370  0.36379  0.86523  1.0000
  H   H797      1.0  0.80218  0.37619  0.84829  1.0000
  H   H798      1.0  0.79098  0.32560  0.86589  1.0000
  H   H799      1.0  0.89823  0.32380  0.88287  1.0000
  H   H800      1.0  0.90951  0.37430  0.86514  1.0000
  H   H801      1.0  0.64647  0.09793  0.71933  1.0000
  H   H802      1.0  0.64087  0.11856  0.85854  1.0000
  H   H803      1.0  0.75446  0.14248  0.92326  1.0000
  H   H804      1.0  0.70974  0.04292  0.84212  1.0000
  C   C682      1.0  0.66693  0.10938  0.85696  1.0000
  C   C683      1.0  0.62984  0.15534  0.79824  1.0000
  H   H805      1.0  0.61772  0.07462  0.74758  1.0000
  H   H806      1.0  0.60380  0.34187  0.68955  1.0000
  C   C684      1.0  0.67186  0.07842  0.84967  1.0000
  H   H807      1.0  0.63380  0.12237  0.82214  1.0000
  H   H808      1.0  0.77313  0.10650  0.91428  1.0000
  C   C685      1.0  0.51292  0.08440  0.84867  1.0000
  H   H809      1.0  0.58939  0.22776  0.80610  1.0000
  H   H810      1.0  0.70921  0.07746  0.95010  1.0000
  C   C686      1.0  0.73920  0.04891  0.91024  1.0000
  C   C687      1.0  0.70566  0.06673  0.84771  1.0000
  C   C688      1.0  0.65507  0.13361  0.76889  1.0000
  H   H811      1.0  0.69503  0.14493  0.93380  1.0000
  H   H812      1.0  0.75446  0.00402  0.89757  1.0000
  H   H813      1.0  0.50261  0.10779  0.85344  1.0000
  H   H814      1.0  0.62351  0.21220  0.83282  1.0000
  H   H815      1.0  0.93305  0.30574  0.72955  1.0000
  H   H816      1.0  0.53395  0.08962  0.83822  1.0000
  C   C689      1.0  0.70250  0.01668  0.88971  1.0000
  C   C690      1.0  0.60138  0.01471  0.71589  1.0000
  C   C691      1.0  0.60178  0.03156  0.73308  1.0000
  C   C692      1.0  0.61799  0.06143  0.73432  1.0000
  H   H817      1.0  0.66004  0.08367  0.90247  1.0000
  H   H818      1.0  0.56279  0.15686  0.80637  1.0000
  C   C693      1.0  0.60288  0.20918  0.79749  1.0000
  C   C694      1.0  0.72956  0.09282  0.94340  1.0000
  N   N43       1.0  0.61218  0.18085  0.80914  1.0000
  C   C695      1.0  0.68121  0.06687  0.90233  1.0000
  H   H819      1.0  0.51215  0.00864  0.76264  1.0000
  C   C696      1.0  0.55477  0.08238  0.87426  1.0000
  H   H820      1.0  0.58425  0.14967  0.82861  1.0000
  H   H821      1.0  0.54517  0.30922  0.67036  1.0000
  C   C697      1.0  0.61771  0.02742  0.69936  1.0000
  C   C698      1.0  0.52392  0.20481  0.74327  1.0000
  H   H822      1.0  0.50900  0.22546  0.73899  1.0000
  C   C699      1.0  0.57949  0.16800  0.81749  1.0000
  N   N44       1.0  0.83489  0.28669  0.94841  1.0000
  C   C700      1.0  0.86868  0.29993  0.94177  1.0000
  C   C701      1.0  0.83107  0.25400  0.94030  1.0000
  C   C702      1.0  0.80644  0.30647  0.94049  1.0000
  C   C703      1.0  0.83356  0.28735  0.96942  1.0000
  C   C704      1.0  0.83534  0.31699  0.97931  1.0000
  C   C705      1.0  0.83025  0.25916  0.98064  1.0000
  H   H823      1.0  0.83806  0.33937  0.97176  1.0000
  H   H824      1.0  0.54725  0.10645  0.87939  1.0000
  N   N45       1.0  0.71960  0.10164  0.92375  1.0000
  H   H825      1.0  0.89081  0.28614  0.94772  1.0000
  H   H826      1.0  0.87080  0.29906  0.92597  1.0000
  H   H827      1.0  0.87235  0.32543  0.94586  1.0000
  H   H828      1.0  0.85232  0.23792  0.94501  1.0000
  H   H829      1.0  0.83232  0.25435  0.92453  1.0000
  H   H830      1.0  0.80554  0.24297  0.94415  1.0000
  H   H831      1.0  0.80926  0.33224  0.94408  1.0000
  H   H832      1.0  0.80575  0.30530  0.92468  1.0000
  H   H833      1.0  0.78064  0.29821  0.94583  1.0000
  C   C706      1.0  0.57069  0.29683  0.67075  1.0000
  H   H834      1.0  0.82790  0.23552  0.97452  1.0000
  H   H835      1.0  0.68120  0.13218  0.91085  1.0000
  C   C707      1.0  0.65317  0.00720  0.67340  1.0000
  H   H836      1.0  0.56960  0.03267  0.67201  1.0000
  C   C708      1.0  0.74855  0.12021  0.91514  1.0000
  H   H837      1.0  0.64601  0.06963  0.68911  1.0000
  H   H838      1.0  0.57548  0.29041  0.68587  1.0000
  H   H839      1.0  0.73322  0.11450  0.95252  1.0000
  H   H840      1.0  0.62640  0.22095  0.79137  1.0000
  N   N46       1.0  0.61721  0.01077  0.68078  1.0000
  C   C709      1.0  0.73393  0.02149  0.89913  1.0000
  H   H841      1.0  0.66083  0.13631  0.75389  1.0000
  H   H842      1.0  0.58930  0.02139  0.74551  1.0000
  H   H843      1.0  0.76429  0.05184  0.91694  1.0000
  H   H844      1.0  0.76047  0.07725  0.85087  1.0000
  C   C710      1.0  0.63821  0.15825  0.77863  1.0000
  H   H845      1.0  0.50868  0.15148  0.67033  1.0000
  H   H846      1.0  0.55080  0.01942  0.86817  1.0000
  C   C711      1.0  0.65636  0.10197  0.79748  1.0000
  C   C712      1.0  0.66422  0.10558  0.77830  1.0000
  C   C713      1.0  0.63939  0.12638  0.80731  1.0000
  N   N47       1.0  0.52570  0.06502  0.86477  1.0000
  C   C714      1.0  0.63411  0.07454  0.71840  1.0000
  H   H847      1.0  0.66345  0.08015  0.80486  1.0000
  H   H848      1.0  0.67739  0.08659  0.77073  1.0000
  H   H849      1.0  0.98813  0.48700  0.71116  1.0000
  N   N48       1.0  0.89087  0.36278  0.79443  1.0000
  C   C715      1.0  0.91847  0.36023  0.80905  1.0000
  C   C716      1.0  0.88470  0.39715  0.79036  1.0000
  C   C717      1.0  0.85830  0.34932  0.80269  1.0000
  C   C718      1.0  0.90219  0.34640  0.77685  1.0000
  C   C719      1.0  0.88402  0.31973  0.76894  1.0000
  C   C720      1.0  0.93227  0.35727  0.76699  1.0000
  C   C721      1.0  0.89520  0.30533  0.75207  1.0000
  C   C722      1.0  0.94318  0.34274  0.75015  1.0000
  C   C723      1.0  0.92463  0.31687  0.74267  1.0000
  H   H850      1.0  0.92452  0.33475  0.81217  1.0000
  H   H851      1.0  0.94307  0.37226  0.80464  1.0000
  H   H852      1.0  0.91051  0.37165  0.82268  1.0000
  H   H853      1.0  0.87394  0.40990  0.80291  1.0000
  H   H854      1.0  0.86588  0.40007  0.77850  1.0000
  H   H855      1.0  0.90897  0.41025  0.78647  1.0000
  H   H856      1.0  0.86153  0.32392  0.80712  1.0000
  H   H857      1.0  0.85034  0.36252  0.81573  1.0000
  H   H858      1.0  0.83611  0.35111  0.79262  1.0000
  H   H859      1.0  0.86104  0.30955  0.77545  1.0000
  H   H860      1.0  0.94755  0.37729  0.77221  1.0000
  H   H861      1.0  0.74031  0.28798  0.99276  1.0000
  H   H862      1.0  0.52086  0.02137  0.84835  1.0000
  H   H863      1.0  0.66082  0.20051  0.81916  1.0000
  C   C724      1.0  0.74277  0.26222  0.99208  1.0000
  H   H864      1.0  0.58472  0.20253  0.78576  1.0000
  C   C725      1.0  0.63525  0.19206  0.82473  1.0000
  H   H865      1.0  0.66645  0.11098  0.93182  1.0000
  C   C726      1.0  0.68910  0.12320  0.92509  1.0000
  H   H866      1.0  0.64062  0.17295  0.83530  1.0000
  S   S188      1.0  0.93135  0.48485  0.85594  1.0000
  H   H867      1.0  0.56399  0.18710  0.82449  1.0000
  H   H868      1.0  0.63162  0.17909  0.77034  1.0000
  C   C727      1.0  0.54037  0.03512  0.85679  1.0000
  C   C728      1.0  0.67621  0.03926  0.89134  1.0000
  H   H869      1.0  0.74182  0.12738  0.90045  1.0000
  C   C729      1.0  0.51518  0.18875  0.76018  1.0000
  Fe  Fe97      1.0  0.98495  0.46977  0.84700  1.0000
  S   S189      1.0  0.97831  0.44072  0.77603  1.0000
  H   H870      1.0  0.56457  0.06865  0.88665  1.0000
  C   C730      1.0  0.99239  0.49280  0.69588  1.0000
  H   H871      1.0  0.57709  0.08643  0.86441  1.0000
  S   S190      1.0  0.66542  0.16249  0.67526  1.0000
  H   H872      1.0  0.97922  0.47353  0.68754  1.0000
  H   H873      1.0  0.63600  0.29126  0.68021  1.0000
  S   S191      1.0  0.58198  0.15077  0.67183  1.0000
  H   H874      1.0  0.57713  0.36150  0.67211  1.0000
  C   C731      1.0  0.60102  0.34695  0.67410  1.0000
  C   C732      1.0  0.83282  0.31839  0.99911  1.0000
  C   C733      1.0  0.49673  0.05965  0.87830  1.0000
  H   H875      1.0  0.95001  0.42275  0.66957  1.0000
  C   C734      1.0  0.82822  0.26086  0.00044  1.0000
  H   H876      1.0  0.55645  0.09793  0.72165  1.0000
  H   H877      1.0  0.53240  0.14280  0.70439  1.0000
  C   C735      1.0  0.50952  0.06960  0.72053  1.0000
  C   C736      1.0  0.52963  0.09678  0.71690  1.0000
  H   H878      1.0  0.52053  0.04944  0.72807  1.0000
  C   C737      1.0  0.51539  0.12266  0.70711  1.0000
  H   H879      1.0  0.62370  0.36217  0.67003  1.0000
  H   H880      1.0  0.66586  0.03060  0.67033  1.0000
  Fe  Fe98      1.0  0.83221  0.69235  0.10312  1.0000
  S   S192      1.0  0.88293  0.71281  0.09311  1.0000
  S   S193      1.0  0.82834  0.63802  0.10246  1.0000
  Fe  Fe99      1.0  0.79943  0.75934  0.10753  1.0000
  S   S194      1.0  0.84867  0.78417  0.09818  1.0000
  S   S195      1.0  0.74713  0.78462  0.11152  1.0000
  Fe  Fe100     1.0  0.85112  0.74630  0.07539  1.0000
  S   S196      1.0  0.86930  0.75896  0.04554  1.0000
  Fe  Fe101     1.0  0.87616  0.74828  0.11661  1.0000
  S   S197      1.0  0.92007  0.75986  0.13703  1.0000
  S   S198      1.0  0.80056  0.72323  0.08350  1.0000
  S   S199      1.0  0.82664  0.72599  0.12786  1.0000
  C   C738      1.0  0.95140  0.62554  0.18621  1.0000
  S   S200      1.0  0.98973  0.63691  0.31958  1.0000
  H   H881      1.0  0.87617  0.53944  0.12995  1.0000
  Fe  Fe102     1.0  0.61266  0.96788  0.19453  1.0000
  S   S201      1.0  0.60483  0.92899  0.17259  1.0000
  H   H882      1.0  0.87830  0.68067  0.01926  1.0000
  Fe  Fe103     1.0  0.65749  0.94390  0.16081  1.0000
  S   S202      1.0  0.70619  0.91366  0.15501  1.0000
  Fe  Fe104     1.0  0.58456  0.96895  0.15401  1.0000
  C   C739      1.0  0.67690  0.88155  0.20491  1.0000
  N   N49       1.0  0.95598  0.49656  0.32922  1.0000
  C   C740      1.0  0.60843  0.96188  0.31494  1.0000
  H   H883      1.0  0.70968  0.77939  0.18546  1.0000
  C   C741      1.0  0.64554  0.88724  0.23445  1.0000
  S   S203      1.0  0.90942  0.65591  0.31437  1.0000
  C   C742      1.0  0.81041  0.62909  0.01035  1.0000
  C   C743      1.0  0.66266  0.83456  0.22355  1.0000
  H   H884      1.0  0.54150  0.90825  0.13337  1.0000
  C   C744      1.0  0.56407  0.96314  0.23906  1.0000
  H   H885      1.0  0.94299  0.55974  0.13061  1.0000
  H   H886      1.0  0.86615  0.60195  0.04292  1.0000
  H   H887      1.0  0.60793  0.93629  0.31716  1.0000
  C   C745      1.0  0.64646  0.85416  0.23702  1.0000
  C   C746      1.0  0.53338  0.95335  0.23001  1.0000
  S   S204      1.0  0.53407  0.97764  0.13856  1.0000
  S   S205      1.0  0.66666  0.98010  0.18424  1.0000
  H   H888      1.0  0.53382  0.94746  0.21505  1.0000
  H   H889      1.0  0.71230  0.78997  0.21008  1.0000
  H   H890      1.0  0.79173  0.67724  0.04494  1.0000
  H   H891      1.0  0.84768  0.57159  0.10472  1.0000
  H   H892      1.0  0.68391  0.81620  0.16254  1.0000
  H   H893      1.0  0.69830  0.91896  0.07832  1.0000
  C   C747      1.0  0.50113  0.95771  0.25996  1.0000
  C   C748      1.0  0.84828  0.61561  0.12076  1.0000
  C   C749      1.0  0.87257  0.61132  0.15251  1.0000
  C   C750      1.0  0.85734  0.62980  0.13808  1.0000
  H   H894      1.0  0.87845  0.62223  0.16605  1.0000
  H   H895      1.0  0.85191  0.65486  0.14051  1.0000
  C   C751      1.0  0.96132  0.74406  0.13166  1.0000
  H   H896      1.0  0.93241  0.65277  0.15322  1.0000
  C   C752      1.0  0.72995  0.83942  0.18760  1.0000
  H   H897      1.0  0.94440  0.69307  0.15948  1.0000
  H   H898      1.0  0.85536  0.69008  0.04936  1.0000
  C   C753      1.0  0.96874  0.73212  0.11358  1.0000
  H   H899      1.0  0.82034  0.59313  0.04288  1.0000
  C   C754      1.0  0.88007  0.57882  0.14961  1.0000
  H   H900      1.0  0.65908  0.91885  0.32684  1.0000
  H   H901      1.0  0.94978  0.73404  0.10238  1.0000
  C   C755      1.0  0.73669  0.82142  0.12291  1.0000
  C   C756      1.0  0.70226  0.83265  0.12206  1.0000
  C   C757      1.0  0.69256  0.86134  0.13123  1.0000
  C   C758      1.0  0.71721  0.87904  0.14153  1.0000
  C   C759      1.0  0.75177  0.86808  0.14207  1.0000
  C   C760      1.0  0.76149  0.83949  0.13284  1.0000
  H   H902      1.0  0.68289  0.81899  0.11430  1.0000
  H   H903      1.0  0.66591  0.86944  0.13059  1.0000
  H   H904      1.0  0.77113  0.88163  0.14991  1.0000
  H   H905      1.0  0.78809  0.83128  0.13359  1.0000
  C   C761      1.0  0.81452  0.73662  0.02334  1.0000
  C   C762      1.0  0.84808  0.74974  0.02385  1.0000
  H   H906      1.0  0.73039  0.86408  0.18171  1.0000
  H   H907      1.0  0.80085  0.73176  0.03643  1.0000
  H   H908      1.0  0.70214  0.90795  0.04385  1.0000
  H   H909      1.0  0.77787  0.63615  0.04503  1.0000
  H   H910      1.0  0.63241  0.90244  0.24466  1.0000
  H   H911      1.0  0.67057  0.78220  0.19886  1.0000
  H   H912      1.0  0.64567  0.82140  0.17704  1.0000
  C   C763      1.0  0.67388  0.94128  0.29318  1.0000
  H   H913      1.0  0.74289  0.82431  0.17665  1.0000
  H   H914      1.0  0.76439  0.81779  0.02625  1.0000
  Fe  Fe105     1.0  0.92386  0.70503  0.32580  1.0000
  C   C764      1.0  0.64010  0.97861  0.31148  1.0000
  H   H915      1.0  0.74651  0.83954  0.20056  1.0000
  S   S206      1.0  0.90211  0.55765  0.16773  1.0000
  C   C765      1.0  0.67267  0.83023  0.17451  1.0000
  C   C766      1.0  0.66105  0.90086  0.21852  1.0000
  H   H916      1.0  0.73579  0.88974  0.10076  1.0000
  N   N50       1.0  0.69416  0.82785  0.19190  1.0000
  C   C767      1.0  0.85969  0.66427  0.05243  1.0000
  C   C768      1.0  0.67837  0.84778  0.20699  1.0000
  H   H917      1.0  0.63418  0.84367  0.24942  1.0000
  H   H918      1.0  0.68743  0.89343  0.19253  1.0000
  C   C769      1.0  0.56308  0.97019  0.25861  1.0000
  N   N51       1.0  0.67347  0.96112  0.31063  1.0000
  C   C770      1.0  0.93667  0.66935  0.16539  1.0000
  H   H919      1.0  0.66216  0.80916  0.22637  1.0000
  H   H920      1.0  0.67044  0.85538  0.16951  1.0000
  C   C771      1.0  0.50682  0.94775  0.12878  1.0000
  C   C772      1.0  0.69671  0.79338  0.19692  1.0000
  C   C773      1.0  0.85488  0.58286  0.11800  1.0000
  N   N52       1.0  0.96325  0.65706  0.17867  1.0000
  C   C774      1.0  0.83465  0.64639  0.02170  1.0000
  H   H921      1.0  0.97479  0.65304  0.11176  1.0000
  H   H922      1.0  0.92110  0.66728  0.20998  1.0000
  H   H923      1.0  0.95174  0.60648  0.17514  1.0000
  H   H924      1.0  0.96333  0.56797  0.26531  1.0000
  H   H925      1.0  0.65218  0.92346  0.29302  1.0000
  H   H926      1.0  0.69857  0.92766  0.29185  1.0000
  C   C775      1.0  0.51644  0.91552  0.12796  1.0000
  H   H927      1.0  0.66028  0.92658  0.21650  1.0000
  C   C776      1.0  0.87095  0.56456  0.13230  1.0000
  H   H928      1.0  0.79768  0.65275  0.06563  1.0000
  C   C777      1.0  0.85920  0.66609  0.01196  1.0000
  C   C778      1.0  0.79874  0.65281  0.04980  1.0000
  H   H929      1.0  0.70355  0.92930  0.32857  1.0000
  C   C779      1.0  0.96240  0.55360  0.27813  1.0000
  S   S207      1.0  0.87669  0.73835  0.32751  1.0000
  H   H930      1.0  0.93397  0.55837  0.32343  1.0000
  C   C780      1.0  0.97595  0.72626  0.22387  1.0000
  Fe  Fe106     1.0  0.92283  0.50691  0.16480  1.0000
  S   S208      1.0  0.97051  0.71026  0.30620  1.0000
  Fe  Fe107     1.0  0.95853  0.66010  0.29680  1.0000
  N   N53       1.0  0.78936  0.83085  0.05267  1.0000
  C   C781      1.0  0.82503  0.84027  0.05866  1.0000
  C   C782      1.0  0.78054  0.79939  0.06120  1.0000
  C   C783      1.0  0.78994  0.82654  0.03171  1.0000
  C   C784      1.0  0.76420  0.85512  0.05931  1.0000
  C   C785      1.0  0.76104  0.86203  0.07899  1.0000
  C   C786      1.0  0.74223  0.87237  0.04675  1.0000
  C   C787      1.0  0.73769  0.88493  0.08565  1.0000
  C   C788      1.0  0.71879  0.89513  0.05362  1.0000
  C   C789      1.0  0.71656  0.90140  0.07302  1.0000
  H   H931      1.0  0.84486  0.82295  0.05351  1.0000
  H   H932      1.0  0.83221  0.86433  0.05305  1.0000
  H   H933      1.0  0.82788  0.84113  0.07435  1.0000
  H   H934      1.0  0.78242  0.79971  0.07691  1.0000
  H   H935      1.0  0.79847  0.78036  0.05624  1.0000
  H   H936      1.0  0.75346  0.79189  0.05761  1.0000
  H   H937      1.0  0.79723  0.84912  0.02430  1.0000
  H   H938      1.0  0.80949  0.80837  0.02730  1.0000
  C   C790      1.0  0.95506  0.60758  0.12132  1.0000
  H   H939      1.0  0.81553  0.77728  0.32888  1.0000
  H   H940      1.0  0.74250  0.86864  0.03159  1.0000
  H   H941      1.0  0.92404  0.62572  0.19129  1.0000
  H   H942      1.0  0.84058  0.60731  0.06410  1.0000
  H   H943      1.0  0.72927  0.96885  0.31071  1.0000
  H   H944      1.0  0.92813  0.61515  0.12126  1.0000
  C   C791      1.0  0.96803  0.68072  0.19417  1.0000
  H   H945      1.0  0.55280  0.96454  0.31852  1.0000
  C   C792      1.0  0.67707  0.93976  0.32737  1.0000
  N   N54       1.0  0.83362  0.64361  0.04267  1.0000
  S   S209      1.0  0.63627  0.98121  0.14070  1.0000
  H   H946      1.0  0.92985  0.70512  0.23584  1.0000
  C   C793      1.0  0.94776  0.56611  0.29459  1.0000
  H   H947      1.0  0.93745  0.59023  0.29443  1.0000
  C   C794      1.0  0.84045  0.61004  0.04833  1.0000
  H   H948      1.0  0.67093  0.95640  0.28025  1.0000
  H   H949      1.0  0.85827  0.66153  0.06811  1.0000
  H   H950      1.0  0.53113  0.97370  0.28387  1.0000
  C   C795      1.0  0.97435  0.50401  0.29466  1.0000
  C   C796      1.0  0.70454  0.98257  0.31026  1.0000
  C   C797      1.0  0.94599  0.54763  0.31110  1.0000
  C   C798      1.0  0.95906  0.51589  0.31165  1.0000
  C   C799      1.0  0.94796  0.70491  0.22402  1.0000
  C   C800      1.0  0.94362  0.68281  0.20927  1.0000
  H   H951      1.0  0.77640  0.84952  0.08945  1.0000
  H   H952      1.0  0.58663  0.97775  0.26580  1.0000
  S   S210      1.0  0.97639  0.49755  0.17640  1.0000
  S   S211      1.0  0.96802  0.64085  0.26688  1.0000
  C   C801      1.0  0.57659  0.97779  0.31557  1.0000
  S   S212      1.0  0.60435  0.96629  0.22675  1.0000
  H   H953      1.0  0.91116  0.67282  0.17256  1.0000
  H   H954      1.0  0.88676  0.65801  0.04835  1.0000
  H   H955      1.0  0.79111  0.61353  0.01671  1.0000
  H   H956      1.0  0.96825  0.61751  0.19811  1.0000
  C   C802      1.0  0.96339  0.57643  0.12655  1.0000
  C   C803      1.0  0.97567  0.52266  0.27818  1.0000
  C   C804      1.0  0.53172  0.96784  0.26895  1.0000
  H   H957      1.0  0.97967  0.74285  0.23555  1.0000
  H   H958      1.0  0.50144  0.86796  0.11875  1.0000
  C   C805      1.0  0.79843  0.73004  0.00578  1.0000
  C   C806      1.0  0.98703  0.74293  0.14580  1.0000
  H   H959      1.0  0.77252  0.71975  0.00548  1.0000
  C   C807      1.0  0.50224  0.95024  0.24049  1.0000
  C   C808      1.0  0.86523  0.75641  0.00666  1.0000
  H   H960      1.0  0.98159  0.75246  0.15978  1.0000
  C   C809      1.0  0.98137  0.62883  0.11595  1.0000
  H   H961      1.0  0.89114  0.76672  0.00690  1.0000
  H   H962      1.0  0.98672  0.51293  0.26526  1.0000
  H   H963      1.0  0.99270  0.63114  0.15749  1.0000
  H   H964      1.0  0.49447  0.97846  0.18500  1.0000
  S   S213      1.0  0.63160  0.87406  0.59624  1.0000
  H   H965      1.0  0.58146  0.86485  0.39003  1.0000
  C   C810      1.0  0.81590  0.92679  0.62525  1.0000
  Fe  Fe108     1.0  0.76232  0.88259  0.59029  1.0000
  H   H966      1.0  0.84208  0.93457  0.62026  1.0000
  S   S214      1.0  0.74000  0.98961  0.62262  1.0000
  H   H967      1.0  0.82226  0.71143  0.35604  1.0000
  C   C811      1.0  0.80673  0.60766  0.65593  1.0000
  S   S215      1.0  0.81651  0.51785  0.60107  1.0000
  S   S216      1.0  0.77841  0.91523  0.41175  1.0000
  Fe  Fe109     1.0  0.90908  0.71867  0.65744  1.0000
  H   H968      1.0  0.86203  0.88373  0.62458  1.0000
  H   H969      1.0  0.84976  0.68048  0.60656  1.0000
  C   C812      1.0  0.51195  0.91249  0.41780  1.0000
  S   S217      1.0  0.92431  0.68117  0.63594  1.0000
  C   C813      1.0  0.92870  0.52688  0.59959  1.0000
  Fe  Fe110     1.0  0.73059  0.92588  0.55947  1.0000
  S   S218      1.0  0.80998  0.84984  0.59170  1.0000
  S   S219      1.0  0.72150  0.87455  0.56776  1.0000
  S   S220      1.0  0.72403  0.89880  0.61242  1.0000
  C   C814      1.0  0.70128  0.88730  0.48870  1.0000
  H   H970      1.0  0.75534  0.58821  0.38084  1.0000
  S   S221      1.0  0.86255  0.75278  0.65576  1.0000
  H   H971      1.0  0.58675  0.88355  0.45447  1.0000
  H   H972      1.0  0.68372  0.86698  0.48788  1.0000
  H   H973      1.0  0.85525  0.57562  0.40636  1.0000
  C   C815      1.0  0.83890  0.89549  0.65233  1.0000
  H   H974      1.0  0.80942  0.58665  0.66483  1.0000
  H   H975      1.0  0.52452  0.87292  0.37635  1.0000
  H   H976      1.0  0.54886  0.91821  0.44005  1.0000
  S   S222      1.0  0.54289  0.97486  0.64233  1.0000
  H   H977      1.0  0.85947  0.64756  0.34780  1.0000
  S   S223      1.0  0.93718  0.59698  0.35959  1.0000
  S   S224      1.0  0.95546  0.68592  0.35029  1.0000
  C   C816      1.0  0.73865  0.92606  0.47320  1.0000
  S   S225      1.0  0.65476  0.87983  0.36055  1.0000
  S   S226      1.0  0.82552  0.84599  0.38614  1.0000
  S   S227      1.0  0.72583  0.85688  0.39877  1.0000
  H   H978      1.0  0.61233  0.97552  0.62906  1.0000
  H   H979      1.0  0.75719  0.71093  0.63479  1.0000
  C   C817      1.0  0.87060  0.79991  0.37288  1.0000
  C   C818      1.0  0.83881  0.81570  0.36980  1.0000
  C   C819      1.0  0.81893  0.80709  0.35392  1.0000
  C   C820      1.0  0.86299  0.76795  0.34416  1.0000
  H   H980      1.0  0.79764  0.94608  0.62098  1.0000
  H   H981      1.0  0.93768  0.54142  0.58726  1.0000
  H   H982      1.0  0.79447  0.81893  0.35132  1.0000
  S   S228      1.0  0.77338  0.93315  0.58087  1.0000
  C   C821      1.0  0.85193  0.52115  0.37061  1.0000
  C   C822      1.0  0.84643  0.54533  0.35704  1.0000
  C   C823      1.0  0.87214  0.56887  0.35342  1.0000
  C   C824      1.0  0.90347  0.56854  0.36351  1.0000
  C   C825      1.0  0.90897  0.54434  0.37701  1.0000
  C   C826      1.0  0.88349  0.52067  0.38046  1.0000
  H   H983      1.0  0.80791  0.90488  0.61731  1.0000
  C   C827      1.0  0.71586  0.89988  0.47194  1.0000
  H   H984      1.0  0.93314  0.54380  0.38488  1.0000
  C   C828      1.0  0.77885  0.91297  0.65134  1.0000
  C   C829      1.0  0.55985  0.94550  0.36174  1.0000
  C   C830      1.0  0.59000  0.95361  0.37184  1.0000
  C   C831      1.0  0.61938  0.93409  0.37105  1.0000
  C   C832      1.0  0.61866  0.90569  0.36059  1.0000
  C   C833      1.0  0.58870  0.89773  0.35013  1.0000
  C   C834      1.0  0.55938  0.91777  0.35055  1.0000
  H   H985      1.0  0.88627  0.80641  0.38507  1.0000
  H   H986      1.0  0.64250  0.94115  0.37857  1.0000
  C   C835      1.0  0.83601  0.70043  0.61381  1.0000
  C   C836      1.0  0.60254  0.87014  0.44397  1.0000
  H   H987      1.0  0.75021  0.93587  0.46044  1.0000
  C   C837      1.0  0.78760  0.60583  0.63917  1.0000
  C   C838      1.0  0.84812  0.77911  0.63754  1.0000
  C   C839      1.0  0.81749  0.79678  0.64045  1.0000
  C   C840      1.0  0.80505  0.81809  0.62650  1.0000
  C   C841      1.0  0.82326  0.82213  0.60946  1.0000
  C   C842      1.0  0.85367  0.80418  0.60647  1.0000
  C   C843      1.0  0.86600  0.78274  0.62038  1.0000
  H   H988      1.0  0.80344  0.79421  0.65368  1.0000
  H   H989      1.0  0.78164  0.83164  0.62903  1.0000
  H   H990      1.0  0.86803  0.80713  0.59337  1.0000
  H   H991      1.0  0.88960  0.76940  0.61791  1.0000
  H   H992      1.0  0.78250  0.73957  0.62138  1.0000
  H   H993      1.0  0.69784  0.89091  0.51932  1.0000
  H   H994      1.0  0.85945  0.71565  0.38244  1.0000
  S   S229      1.0  0.68985  0.94597  0.57906  1.0000
  C   C844      1.0  0.78400  0.71739  0.63012  1.0000
  H   H995      1.0  0.59022  0.84615  0.44196  1.0000
  C   C845      1.0  0.98808  0.52658  0.61334  1.0000
  H   H996      1.0  0.75229  0.67922  0.60508  1.0000
  C   C846      1.0  0.84296  0.53879  0.61757  1.0000
  C   C847      1.0  0.85631  0.52346  0.63360  1.0000
  C   C848      1.0  0.87651  0.54075  0.64681  1.0000
  C   C849      1.0  0.88426  0.57331  0.64396  1.0000
  C   C850      1.0  0.87157  0.58857  0.62772  1.0000
  C   C851      1.0  0.85068  0.57141  0.61468  1.0000
  C   C852      1.0  0.54453  0.90788  0.42617  1.0000
  C   C853      1.0  0.70933  0.90073  0.50655  1.0000
  H   H997      1.0  0.87726  0.61367  0.62540  1.0000
  H   H998      1.0  0.84045  0.58342  0.60231  1.0000
  C   C854      1.0  0.56667  0.94528  0.63035  1.0000
  C   C855      1.0  0.60107  0.95256  0.62532  1.0000
  C   C856      1.0  0.62115  0.93037  0.61534  1.0000
  C   C857      1.0  0.60677  0.90095  0.60986  1.0000
  C   C858      1.0  0.57239  0.89339  0.61507  1.0000
  C   C859      1.0  0.55235  0.91550  0.62544  1.0000
  C   C860      1.0  0.97434  0.51305  0.34500  1.0000
  H   H999      1.0  0.64774  0.93618  0.61179  1.0000
  H   H1000     1.0  0.56122  0.87056  0.61096  1.0000
  H   H1001     1.0  0.52580  0.90973  0.62931  1.0000
  H   H1002     1.0  0.77048  0.62904  0.61432  1.0000
  Fe  Fe111     1.0  0.77678  0.87740  0.38861  1.0000
  C   C861      1.0  0.80199  0.66196  0.63185  1.0000
  C   C862      1.0  0.83099  0.78341  0.34121  1.0000
  C   C863      1.0  0.73194  0.92707  0.50780  1.0000
  H   H1003     1.0  0.87759  0.68644  0.35281  1.0000
  C   C864      1.0  0.85100  0.69179  0.38800  1.0000
  H   H1004     1.0  0.90637  0.51181  0.59464  1.0000
  H   H1005     1.0  0.88810  0.50231  0.39095  1.0000
  C   C865      1.0  0.88262  0.77616  0.36020  1.0000
  H   H1006     1.0  0.87471  0.62751  0.39436  1.0000
  S   S230      1.0  0.75141  0.91051  0.36739  1.0000
  Fe  Fe112     1.0  0.68420  0.89511  0.58920  1.0000
  C   C866      1.0  0.86120  0.87883  0.63963  1.0000
  H   H1007     1.0  0.80256  0.67464  0.34905  1.0000
  S   S231      1.0  0.74317  0.94484  0.52989  1.0000
  H   H1008     1.0  0.78901  0.69457  0.37077  1.0000
  H   H1009     1.0  0.83016  0.69600  0.39868  1.0000
  C   C867      1.0  0.74654  0.93960  0.49104  1.0000
  N   N55       1.0  0.82217  0.87504  0.52329  1.0000
  C   C868      1.0  0.85174  0.85621  0.53074  1.0000
  C   C869      1.0  0.82896  0.90957  0.52690  1.0000
  C   C870      1.0  0.79082  0.86564  0.53437  1.0000
  C   C871      1.0  0.81852  0.86958  0.50258  1.0000
  C   C872      1.0  0.84600  0.87819  0.49004  1.0000
  C   C873      1.0  0.78797  0.85628  0.49421  1.0000
  C   C874      1.0  0.84287  0.87420  0.47038  1.0000
  C   C875      1.0  0.78527  0.85218  0.47454  1.0000
  C   C876      1.0  0.81249  0.86134  0.46264  1.0000
  H   H1010     1.0  0.87700  0.86363  0.52439  1.0000
  H   H1011     1.0  0.85445  0.85903  0.54643  1.0000
  H   H1012     1.0  0.84800  0.83022  0.52772  1.0000
  H   H1013     1.0  0.85496  0.91750  0.52182  1.0000
  H   H1014     1.0  0.82758  0.91560  0.54230  1.0000
  H   H1015     1.0  0.80938  0.92465  0.51954  1.0000
  H   H1016     1.0  0.78468  0.83970  0.53284  1.0000
  H   H1017     1.0  0.79438  0.87012  0.54986  1.0000
  H   H1018     1.0  0.76772  0.87971  0.53002  1.0000
  H   H1019     1.0  0.86993  0.88857  0.49534  1.0000
  H   H1020     1.0  0.76539  0.84954  0.50243  1.0000
  H   H1021     1.0  0.86390  0.88145  0.46102  1.0000
  H   H1022     1.0  0.76144  0.84268  0.46838  1.0000
  H   H1023     1.0  0.80981  0.85879  0.44737  1.0000
  N   N56       1.0  0.83842  0.67046  0.37254  1.0000
  H   H1024     1.0  0.62255  0.93364  0.41583  1.0000
  C   C877      1.0  0.81169  0.68835  0.36169  1.0000
  H   H1025     1.0  0.88600  0.52875  0.65936  1.0000
  C   C878      1.0  0.82565  0.63971  0.38051  1.0000
  C   C879      1.0  0.84815  0.62028  0.39151  1.0000
  C   C880      1.0  0.79159  0.62749  0.37701  1.0000
  C   C881      1.0  0.83732  0.59048  0.39846  1.0000
  C   C882      1.0  0.78113  0.59752  0.38397  1.0000
  C   C883      1.0  0.80397  0.57903  0.39459  1.0000
  H   H1026     1.0  0.80796  0.97186  0.65066  1.0000
  C   C884      1.0  0.88255  0.85409  0.64601  1.0000
  S   S232      1.0  0.96412  0.73329  0.66496  1.0000
  S   S233      1.0  0.98128  0.65589  0.66781  1.0000
  H   H1027     1.0  0.77125  0.88912  0.64549  1.0000
  S   S234      1.0  0.69683  0.93023  0.40218  1.0000
  N   N57       1.0  0.81521  0.92125  0.64607  1.0000
  C   C885      1.0  0.82112  0.66297  0.64910  1.0000
  H   H1028     1.0  0.67184  0.95286  0.34082  1.0000
  H   H1029     1.0  0.79889  0.72408  0.64307  1.0000
  H   H1030     1.0  0.77268  0.64034  0.36872  1.0000
  Fe  Fe113     1.0  0.73163  0.94890  0.60126  1.0000
  C   C886      1.0  0.88210  0.84491  0.66499  1.0000
  H   H1031     1.0  0.79614  0.55537  0.39946  1.0000
  Fe  Fe114     1.0  0.70062  0.89277  0.37949  1.0000
  N   N58       1.0  0.95735  0.50728  0.60750  1.0000
  H   H1032     1.0  0.85223  0.70775  0.62612  1.0000
  C   C887      1.0  0.57118  0.89072  0.41670  1.0000
  H   H1033     1.0  0.90597  0.51592  0.33714  1.0000
  H   H1034     1.0  0.65665  0.86685  0.42078  1.0000
  H   H1035     1.0  0.77916  0.70770  0.59301  1.0000
  Fe  Fe115     1.0  0.74866  0.94644  0.39121  1.0000
  Fe  Fe116     1.0  0.97909  0.69333  0.64506  1.0000
  H   H1036     1.0  0.76408  0.95995  0.49185  1.0000
  C   C888      1.0  0.86767  0.66400  0.35943  1.0000
  H   H1037     1.0  0.87386  0.68186  0.39556  1.0000
  H   H1038     1.0  0.64798  0.91787  0.43509  1.0000
  H   H1039     1.0  0.82205  0.54592  0.34938  1.0000
  H   H1040     1.0  0.91748  0.54311  0.61041  1.0000
  H   H1041     1.0  0.77549  0.58325  0.63512  1.0000
  H   H1042     1.0  0.63586  0.88137  0.39997  1.0000
  H   H1043     1.0  0.76004  0.93095  0.64582  1.0000
  N   N59       1.0  0.80032  0.69066  0.61953  1.0000
  Fe  Fe117     1.0  0.92548  0.64633  0.66015  1.0000
  C   C889      1.0  0.82496  0.95184  0.65545  1.0000
  H   H1044     1.0  0.90730  0.76464  0.36269  1.0000
  C   C890      1.0  0.98689  0.56044  0.61578  1.0000
  H   H1045     1.0  0.60601  0.93348  0.43968  1.0000
  H   H1046     1.0  0.65361  0.99379  0.65969  1.0000
  H   H1047     1.0  0.77477  0.91216  0.66693  1.0000
  H   H1048     1.0  0.60230  0.96602  0.66746  1.0000
  H   H1049     1.0  0.89014  0.65278  0.36670  1.0000
  C   C891      1.0  0.53012  0.88244  0.39036  1.0000
  H   H1050     1.0  0.83586  0.72147  0.60410  1.0000
  C   C892      1.0  0.56291  0.87794  0.39849  1.0000
  C   C893      1.0  0.62114  0.91945  0.42919  1.0000
  Fe  Fe118     1.0  0.72617  0.89615  0.42075  1.0000
  N   N60       1.0  0.60586  0.88726  0.42561  1.0000
  H   H1051     1.0  0.62848  0.86645  0.45073  1.0000
  S   S235      1.0  0.70527  0.88163  0.44990  1.0000
  H   H1052     1.0  0.62162  0.84430  0.41084  1.0000
  H   H1053     1.0  0.93513  0.50690  0.63545  1.0000
  S   S236      1.0  0.52331  0.97030  0.36414  1.0000
  H   H1054     1.0  0.96382  0.53716  0.34792  1.0000
  C   C894      1.0  0.63089  0.86914  0.41372  1.0000
  C   C895      1.0  0.78521  0.63246  0.62721  1.0000
  H   H1055     1.0  0.85236  0.95863  0.65213  1.0000
  C   C896      1.0  0.77985  0.68561  0.60187  1.0000
  H   H1056     1.0  0.59071  0.97503  0.38041  1.0000
  H   H1057     1.0  0.96348  0.57406  0.61354  1.0000
  H   H1058     1.0  0.79138  0.66647  0.59287  1.0000
  H   H1059     1.0  0.89872  0.84118  0.63601  1.0000
  S   S237      1.0  0.90993  0.59359  0.66109  1.0000
  H   H1060     1.0  0.69364  0.98305  0.36713  1.0000
  H   H1061     1.0  0.58802  0.87586  0.34187  1.0000
  H   H1062     1.0  0.86761  0.58719  0.34289  1.0000
  C   C897      1.0  0.50483  0.89993  0.39989  1.0000
  H   H1063     1.0  0.97273  0.55290  0.66540  1.0000
  H   H1064     1.0  0.97466  0.51062  0.66180  1.0000
  H   H1065     1.0  0.83470  0.68449  0.65357  1.0000
  Fe  Fe119     1.0  0.94258  0.63745  0.33813  1.0000
  H   H1066     1.0  0.53617  0.91133  0.34269  1.0000
  C   C898      1.0  0.82350  0.63614  0.66087  1.0000
  H   H1067     1.0  0.85047  0.49838  0.63600  1.0000
  H   H1068     1.0  0.97193  0.49954  0.35856  1.0000
  Fe  Fe120     1.0  0.79579  0.74939  0.89645  1.0000
  S   S238      1.0  0.82547  0.77505  0.91956  1.0000
  S   S239      1.0  0.75480  0.76722  0.87546  1.0000
  Fe  Fe121     1.0  0.83459  0.68561  0.90364  1.0000
  S   S240      1.0  0.86669  0.70637  0.92733  1.0000
  S   S241      1.0  0.83725  0.63250  0.89680  1.0000
  Fe  Fe122     1.0  0.81761  0.73035  0.93712  1.0000
  S   S242      1.0  0.79453  0.72704  0.96690  1.0000
  Fe  Fe123     1.0  0.87202  0.74875  0.90788  1.0000
  S   S243      1.0  0.92411  0.77131  0.90123  1.0000
  S   S244      1.0  0.78475  0.70630  0.91469  1.0000
  S   S245      1.0  0.84297  0.72642  0.88358  1.0000
  Fe  Fe124     1.0  0.58291  0.94993  0.84779  1.0000
  H   H1069     1.0  0.57308  0.97918  0.68530  1.0000
  S   S246      1.0  0.53326  0.95326  0.86459  1.0000
  Fe  Fe125     1.0  0.66025  0.93334  0.84451  1.0000
  S   S247      1.0  0.66806  0.96791  0.82004  1.0000
  S   S248      1.0  0.70608  0.91148  0.86075  1.0000
  H   H1070     1.0  0.61490  0.96253  0.69179  1.0000
  C   C899      1.0  0.83502  0.84176  0.84830  1.0000
  Fe  Fe126     1.0  0.61710  0.94773  0.80893  1.0000
  S   S249      1.0  0.60658  0.93366  0.77806  1.0000
  S   S250      1.0  0.63065  0.96955  0.86181  1.0000
  S   S251      1.0  0.61135  0.91088  0.83236  1.0000
  C   C900      1.0  0.52687  0.98813  0.75794  1.0000
  H   H1071     1.0  0.70469  0.79422  0.84982  1.0000
  H   H1072     1.0  0.90867  0.63336  0.83846  1.0000
  Fe  Fe127     1.0  0.96214  0.69443  0.68726  1.0000
  C   C901      1.0  0.98405  0.58344  0.69992  1.0000
  H   H1073     1.0  0.53152  0.88474  0.85598  1.0000
  C   C902      1.0  0.57342  0.95016  0.76356  1.0000
  C   C903      1.0  0.56558  0.93577  0.74597  1.0000
  C   C904      1.0  0.53791  0.94698  0.73465  1.0000
  H   H1074     1.0  0.96556  0.55748  0.79463  1.0000
  H   H1075     1.0  0.52349  0.92822  0.82377  1.0000
  C   C905      1.0  0.96224  0.57554  0.78322  1.0000
  H   H1076     1.0  0.58040  0.91527  0.74131  1.0000
  C   C906      1.0  0.96022  0.65093  0.90803  1.0000
  H   H1077     1.0  0.94637  0.66808  0.91673  1.0000
  H   H1078     1.0  0.96312  0.58939  0.69032  1.0000
  C   C907      1.0  0.98090  0.75660  0.87909  1.0000
  H   H1079     1.0  0.53138  0.93497  0.72148  1.0000
  C   C908      1.0  0.60122  0.97825  0.68152  1.0000
  H   H1080     1.0  0.94872  0.62585  0.80626  1.0000
  C   C909      1.0  0.81571  0.73643  0.98857  1.0000
  H   H1081     1.0  0.87723  0.68428  0.98501  1.0000
  C   C910      1.0  0.84919  0.74975  0.98909  1.0000
  H   H1082     1.0  0.93401  0.58142  0.78333  1.0000
  H   H1083     1.0  0.86272  0.75485  0.97595  1.0000
  C   C911      1.0  0.86170  0.61523  0.87815  1.0000
  C   C912      1.0  0.87844  0.63381  0.86431  1.0000
  C   C913      1.0  0.86352  0.58171  0.87697  1.0000
  H   H1084     1.0  0.87747  0.65966  0.86515  1.0000
  S   S252      1.0  0.90600  0.68242  0.68117  1.0000
  C   C914      1.0  0.94883  0.74614  0.88646  1.0000
  H   H1085     1.0  0.86361  0.80053  0.88662  1.0000
  H   H1086     1.0  0.83905  0.63722  0.67371  1.0000
  C   C915      1.0  0.97635  0.61824  0.80513  1.0000
  C   C916      1.0  0.86458  0.79004  0.84904  1.0000
  C   C917      1.0  0.98559  0.70757  0.86068  1.0000
  H   H1087     1.0  0.91204  0.70706  0.88748  1.0000
  C   C918      1.0  0.87244  0.72946  0.83117  1.0000
  C   C919      1.0  0.94073  0.52439  0.69453  1.0000
  N   N61       1.0  0.98429  0.60445  0.78621  1.0000
  C   C920      1.0  0.74059  0.80737  0.87209  1.0000
  C   C921      1.0  0.75415  0.83297  0.88267  1.0000
  C   C922      1.0  0.74320  0.86454  0.87898  1.0000
  C   C923      1.0  0.71798  0.87096  0.86502  1.0000
  C   C924      1.0  0.70402  0.84531  0.85464  1.0000
  C   C925      1.0  0.71546  0.81376  0.85808  1.0000
  H   H1088     1.0  0.77283  0.82850  0.89380  1.0000
  H   H1089     1.0  0.75402  0.88416  0.88718  1.0000
  H   H1090     1.0  0.68473  0.84984  0.84381  1.0000
  N   N62       1.0  0.75087  0.65298  0.86225  1.0000
  C   C926      1.0  0.72010  0.66540  0.85199  1.0000
  C   C927      1.0  0.74186  0.64937  0.88264  1.0000
  C   C928      1.0  0.77878  0.67768  0.86094  1.0000
  C   C929      1.0  0.76094  0.62155  0.85424  1.0000
  C   C930      1.0  0.73745  0.59514  0.85497  1.0000
  C   C931      1.0  0.79377  0.61608  0.84552  1.0000
  C   C932      1.0  0.74660  0.56503  0.84789  1.0000
  C   C933      1.0  0.80257  0.58591  0.83842  1.0000
  C   C934      1.0  0.77918  0.56040  0.83973  1.0000
  H   H1091     1.0  0.69679  0.64981  0.85385  1.0000
  H   H1092     1.0  0.71276  0.68972  0.85717  1.0000
  H   H1093     1.0  0.72539  0.66729  0.83649  1.0000
  H   H1094     1.0  0.71913  0.63333  0.88498  1.0000
  H   H1095     1.0  0.73512  0.67277  0.88924  1.0000
  H   H1096     1.0  0.76410  0.63926  0.89077  1.0000
  H   H1097     1.0  0.78575  0.68300  0.84595  1.0000
  H   H1098     1.0  0.77073  0.70080  0.86744  1.0000
  H   H1099     1.0  0.80258  0.67004  0.86865  1.0000
  H   H1100     1.0  0.71193  0.59750  0.86121  1.0000
  H   H1101     1.0  0.81349  0.63449  0.84432  1.0000
  H   H1102     1.0  0.72848  0.54506  0.84889  1.0000
  H   H1103     1.0  0.82803  0.58212  0.83216  1.0000
  H   H1104     1.0  0.78647  0.53695  0.83449  1.0000
  H   H1105     1.0  0.92113  0.78581  0.85313  1.0000
  H   H1106     1.0  0.88210  0.54093  0.86118  1.0000
  H   H1107     1.0  0.82397  0.89790  0.68221  1.0000
  H   H1108     1.0  0.91079  0.82748  0.87136  1.0000
  H   H1109     1.0  0.83364  0.86635  0.85441  1.0000
  H   H1110     1.0  0.87556  0.70630  0.82445  1.0000
  C   C935      1.0  0.89610  0.61883  0.84919  1.0000
  H   H1111     1.0  0.94586  0.63401  0.77241  1.0000
  H   H1112     1.0  0.80773  0.83267  0.84892  1.0000
  C   C936      1.0  0.51799  0.97291  0.74078  1.0000
  H   H1113     1.0  0.88814  0.86364  0.86752  1.0000
  H   H1114     1.0  0.69872  0.99561  0.88087  1.0000
  H   H1115     1.0  0.83991  0.83740  0.88584  1.0000
  C   C937      1.0  0.83953  0.74288  0.83299  1.0000
  H   H1116     1.0  0.84267  0.84397  0.83312  1.0000
  S   S253      1.0  0.97516  0.69923  0.71888  1.0000
  C   C938      1.0  0.98522  0.53058  0.67058  1.0000
  C   C939      1.0  0.88153  0.56677  0.86204  1.0000
  H   H1117     1.0  0.82049  0.80100  0.87718  1.0000
  H   H1118     1.0  0.56013  0.98842  0.78266  1.0000
  C   C940      1.0  0.85898  0.66843  0.99215  1.0000
  H   H1119     1.0  0.80923  0.78110  0.84381  1.0000
  C   C941      1.0  0.50538  0.89284  0.85891  1.0000
  C   C942      1.0  0.95395  0.69701  0.86832  1.0000
  C   C943      1.0  0.94357  0.62301  0.90198  1.0000
  N   N63       1.0  0.85971  0.82110  0.85888  1.0000
  N   N64       1.0  0.97885  0.52508  0.69109  1.0000
  Fe  Fe128     1.0  0.93240  0.51425  0.82942  1.0000
  H   H1120     1.0  0.92764  0.54645  0.68947  1.0000
  C   C944      1.0  0.84524  0.81484  0.87796  1.0000
  H   H1121     1.0  0.96844  0.56370  0.76947  1.0000
  C   C945      1.0  0.89769  0.77529  0.84731  1.0000
  C   C946      1.0  0.93594  0.71596  0.88139  1.0000
  H   H1122     1.0  0.94608  0.58046  0.88581  1.0000
  C   C947      1.0  0.83549  0.77251  0.84198  1.0000
  H   H1123     1.0  0.93489  0.52186  0.70994  1.0000
  H   H1124     1.0  0.90619  0.84292  0.84745  1.0000
  H   H1125     1.0  0.94342  0.67392  0.86422  1.0000
  H   H1126     1.0  0.54163  0.93564  0.80072  1.0000
  H   H1127     1.0  0.91681  0.61844  0.90617  1.0000
  C   C948      1.0  0.52352  0.91990  0.80881  1.0000
  H   H1128     1.0  0.50770  0.91595  0.77148  1.0000
  H   H1129     1.0  0.50558  0.85470  0.92152  1.0000
  C   C949      1.0  0.97413  0.62846  0.77173  1.0000
  C   C950      1.0  0.55415  0.97671  0.76935  1.0000
  H   H1130     1.0  0.53522  0.89560  0.80910  1.0000
  C   C951      1.0  0.89270  0.83951  0.86129  1.0000
  H   H1131     1.0  0.86073  0.85374  0.69261  1.0000
  H   H1132     1.0  0.85059  0.56715  0.88757  1.0000
  S   S254      1.0  0.91805  0.56700  0.82820  1.0000
  H   H1133     1.0  0.98029  0.60068  0.81671  1.0000
  C   C952      1.0  0.90140  0.74560  0.83836  1.0000
  C   C953      1.0  0.86100  0.86105  0.67785  1.0000
  H   H1134     1.0  0.83346  0.65471  0.96620  1.0000
  C   C954      1.0  0.83430  0.65175  0.98150  1.0000
  S   S255      1.0  0.58524  0.98464  0.82368  1.0000
  H   H1135     1.0  0.66980  0.99418  0.68370  1.0000
  C   C955      1.0  0.89757  0.58523  0.84795  1.0000
  C   C956      1.0  0.96083  0.60132  0.89018  1.0000
  H   H1136     1.0  0.79090  0.61922  0.98217  1.0000
  H   H1137     1.0  0.92694  0.73480  0.83730  1.0000
  H   H1138     1.0  0.81691  0.73014  0.82765  1.0000
  H   H1139     1.0  0.82244  0.95057  0.67115  1.0000
  H   H1140     1.0  0.99097  0.63303  0.70789  1.0000
  S   S256      1.0  0.98724  0.50160  0.82138  1.0000
  H   H1141     1.0  0.98791  0.70746  0.75843  1.0000
  H   H1142     1.0  0.97951  0.61990  0.75705  1.0000
  H   H1143     1.0  0.98674  0.54158  0.87769  1.0000
  H   H1144     1.0  0.96958  0.56372  0.85768  1.0000
  C   C957      1.0  0.49943  0.92512  0.86307  1.0000
  H   H1145     1.0  0.50292  0.87839  0.78341  1.0000
  H   H1146     1.0  0.92775  0.50414  0.68693  1.0000
  H   H1147     1.0  0.58793  0.99190  0.71595  1.0000
  H   H1148     1.0  0.89776  0.82488  0.66966  1.0000
  C   C958      1.0  0.83991  0.88615  0.67171  1.0000
  H   H1149     1.0  0.98799  0.65161  0.77405  1.0000
  H   H1150     1.0  0.49952  0.85616  0.94677  1.0000
  C   C959      1.0  0.81018  0.63197  0.99056  1.0000
  H   H1151     1.0  0.99310  0.63952  0.80825  1.0000
  H   H1152     1.0  0.99113  0.77986  0.88306  1.0000
  C   C960      1.0  0.99373  0.55684  0.86528  1.0000
