data_image0
_chemical_formula_structural       H4CFeHSHCHC2SCHC3HC6H4CHC2HC4HC3HCSHCHNSHCHSH2CHCH2SHSHS2CHFeSFeH2C2H2C4H2C3HC3HCHFeH2C3H3NHCH2CH3CHS2H4CFeS2FeS2FeSHS2HFeSHFeSFeCFe2HFeS2FeS2FeSFeS3FeSCFeS2FeSFeS3C2HC6H4C6H4C6H3CHC5H4CH3C2HCH4CH2C6HCH2C6H4C2HNCHCHC5HSH2CHCH2NC9H14C2H4CHC2H5C2H7CNHCHCH2CH3CHCH3SCHC4H2CHCHCH2C3H3CSHC2H3SC2HSCH2CH5CH3C2SH2CNHC3H6NHNH3CH2CHSHFeH2CNC3HFeSC4H3CSH4NHNHCHC2H2CH2SC2HC2HC4HCH3CHCH2C2H4CSCHCSHCHC3H6C3FeS2HSFeHFeSHSCSHNH3CHFeS2FeS2FeSFeS3HFeSHFeS2FeSFeS3CHC3H2C6H4C6H5C4H3C2H2CHC4H3SHC4HC6H4C2HC3HCH2NH3C7H3C2H10C3H2CH4C2HSCHC2HCH2NH2NC8H2CHSH3CH3C5HNCFeCFeH2C2HCH2CH2CHFeCH2C3H3FeNC9H11SHCH3NHC2H2CHC2HCH6SC4HNCH2CSHSC3HC4HSHCNCH4C6H4CHCH2NHCH5CH5CHC3H2SHNFeS2FeS2FeSFeS3HC4H2C5H2C6H7CH4FeH2CH4SHC2H2CH2C3H5NC8H10CNHC6H4FeH4C4H2C2HNC3HCH4C3H2CHCHNH3CSHFeSCHCSCFeS2FeS2FeSFeS3C6H4CHC4SH3CH2NC2SH2C6H7CNHCH5C3HC3H3SHC3HCH2CNCH2C2H7SHCH3CH2CSC4SHCH5C3HCH4CHNCH4C3H2FeH8C2FeS2FeS2FeCFeS3CHCFeSCFeSHSHCNHFeS2FeS2FeSFeS3HCHCHCHNHNC3H3CHC7H4C6H4C4HC3HC2H3C7H4C2H6C6H5C2H2C2SH4C3H2C2H10CSHCHC3H2CHNH2CHC2HC3HNHNHC2H4CHNH2C2SCH2CH10CH2CHC2H4SH4CH2CHCHFeH3C2FeS2FeS2FeSFeS3HCFeS2H8SCFeS2FeS2FeSFeS3CH3C4H3C6H6C3H2FeH5C3NH2CH3CNC8H4C6H4C3HCHCHNHCH2N2C3HCH11C3HC3NC6H11CH3C2H2C2HCHCHCH5CHCH4C3H2CHCH5SCH2CH2C3HCHSC2HCHCH4FeS2FeS2FeSFeS6FeSFeSFeS2FeS2FeSFeS4CSHC3SC2H2CHC6H7C7H4C2H2C6H4C6H4C6H3C2HC3NC9H12CHSHC3HCNH2FeH2CH2SHCH4FeH4CHCH2NC7HCH11CH2NC9H7CH4CFeHSHCHC2NCHCHCHNH2C2H2CHC6H4FeNHC6H3CSH6CHCHNSCH2CHCHCHSNH2SCH3CH6CHCH2FeHCH2C4HFeH2Fe2S2FeS2FeSFeS4FeS2FeS2FeSFeS4CHS2HCFeS2C6HCHC6H2SHC6H5CHSC6H4C6H4CH2FeSH3C4H4CHFeHCH3FeC3HC3H2CH2CH4C2HCHCH2CH2C2HCHC4H2CH2CN2HCNC9H15CH6CH4FeHCHSCNHCH3CHC2H3CH3C2H4SHFeCH4SCNHCHC3HSH5CH3CHCHCHCHSHFeS2FeS2FeSFeS3FeSHSHFeS3FeS2FeS2FeSFeS3CHCSHCHC7H4C3HC4HC5H2C2HNH2CH3C2H2NH3CHC6H4C6H2C2H2C3H2NH2SH2SCH5NC6H12C2H3C2N2C3HC2H2CH4CHC3HCNC5HFeCH10CH2CHSC2HSNHC3HCSCHCHCH5CHFeH3CH2C3HCH2CFeHCSH3CHCH2C4NCH5C3H3CHFeC2H2C9H2CH2CH2C2H6CSC2H6C3H2FeS2FeS2FeSFeS4FeSHSFeHFeS2FeS2FeS2FeSFeS3C4NHC6H4C2H3C7H2C4H2CH2CHC6H4C6H4C2HC3H2CSH3NC8SH9CH2NCNC9H5CH7CNC9H13CFeC2HC5HNH2CH2CH4CHC2HCH2C3HC2HCH2CHNH4C2HCH6CHCH3C2H2CHSHCH2CH3FeHCH2C2H3CH2C2HFeH5CHCH2CH2C3HCH2CHSCS2HFeSC2FeS2FeS2FeSFeS3HSCHFeS2FeS2FeSFeHS2Fe2S4C6H4C4H3C6H4C6H4C4HCHC2HC3H4CH2NC7H12FeCS2CHFeCH4SCHSNC9H14CHCHC2H2C3NSHC2H2SHC2FeNC9H15CH6CHCHSHCHCHCH4C2HC2SCHCH4C2HS2C2SCHNCHCH2CFeC3H2CFeH2SC2HC2H3CFeC3H4CHCH2C2H3CHCH2SC2HCH2CHCHCH3SFeS2FeS2FeHFeS4FeS2FeS2FeHFeSCSFe2S2FeHS2HCHC6H5C6H4C6H5C5HCHC3HCH2CHNC4H3FeH4NHC2H4CS2C2HC2HSC2H8CH3CH5S2HC2H3CHSH3NC2NH3FeC5SHNC2H2CFeH3NHC2H2SH2CSH3NC9H14C2HS2H3C2HS2H3CFeCHFeHSHNC9H7CH8NCHCSH2C3HFeH2CH2CFeC3HC2HCHCFeS2FeS2FeSFeS3CH4CNHSHCFeSCHCHFeS2FeS2FeSFeS3FeSNFeS2FeSFeS2C6H4CFeC8H5CHC6H4SCH2CHCH3C7H3SH2C4H2SC2HCHC6H6C6H4CH2CH6CNHC2H2CH4C2HC2H2CNC9H13CHCHSCHC2HC3H2FeC2SHCH3CHNC3H10C2HSH3CH3C2H5C3HCHCSH2NHC2HC4HCHSCH5CHSHC3H3C2H2CHC2H2C2SNSHFeS2FeSCFeSFe2S2H2CH3CHCHFeS3CFeSCSFeS2FeS2FeSFeS3FeS2FeS2FeHFeHS2C6H5C4H3C7H5C5NH3C2FeC6H6C2HCNC6H4CHCHCH2NHC3H2CHCHC2HCHC4NC9H14NC9H14NC7H12CHSCHCH2C2HSH3SH3CHCHCH3CHS2H2CHCH3C2HCH4SH2SHSC2H2CH2SCS2H3S2HCFeS2FeS2FeSFeS3FeS2FeSHFeSFeS2FeSFeS2FeSFeS3HNH5C3H2C7H5CHC6H6C3HCH2CH4FeH3CH3CHCHCHCHC6H8C2HCHNC2H2C2HC4H5CH3CHCH2C2HC2H5CHNHCH4CHC2HCNC2H6NH10C2HC5H2CNC9H5CHCHC2HCH2CHC3H2C2HFeNHC2H3CH4C3H2CFeCSH3SCHFeSFeS2FeHS2FeS2FeS2FeSFeS4FeS2FeS2FeSFeS3HC2H2CHCH2FeC5HC6H2C3SHC4H3C7H4C6H5C5HCH3C5HCHNC6H4N2C9H14NC9H14NCH2CH2C2HCH4CH4CFeCHCH4C2NH3CH2C2H3NC3H3NC4HFeC2HCH2C3SHC2SC2H2C2H3CH2CH4CH4C2H5CHC2HCH11CH3C2HSH2C2H2CH3CH2CHC3H4NHCH2CHC2HCHC3HSFeSCFeSCFeSFeS3CHCFeS2FeSHFeSFeCS2FeSNFeS2FeSFeS2CHC2HC2H2C3H2CH9C3H2C7H4C6H6CHCHC3HC2HCHC2HNC9H13CHCHC2HCH2NHCSHC2H3CH3SHSHCSCH2CSCH2CHNC3H2SHCNCHCH3SC3HC2H4NCH2CHCH2CHCH3CH8CFeHCH4CSH2SCFeSFeSH3FeS2FeSFeSFeS3CH2FeH2FeS2CH3C2H4C2NCHC6H4C4H4C6H4CH4NH2SH2CHCHCHSHCFeCHC2SCHSH3CSHSHSNCHSHCH3SHC2HCHCH4C2H2CHCHCNHC3HCH2CHCHCH2NHC2SH2C4HC2H2C3HC2HC3H2CHC3H2CHC2H4CH2NHCHCFeCHCHC2HC2HC3H2CHFeC2FeCH11CHFeS2FeHSNCFeS2FeHFeS2FeS2FeS2FeSFeHS3H2FeSHFeS2FeS2FeSFeS3CHSCH3C2HFeHC3H2CH4C6H4C6H4C2H2C2H4C6H4C2H2C2NH2SH2FeC3H2SC2H4C2HCH3CH5CH2CH3CH2C2SCNHNC9H7CH6NCHC5HCHCH2CH2C2H3CNHCFeH2CHC2H2NHCHCH2C3HC3H3SHCSC2Fe2HSH3CSHC2H3C5H2CNCHCH2C2H3C2FeS2H2FeHFeHS2CSCHSHFeSHCSHFeS2FeS2FeSFeCS2CSFeSFeS2FeSFeS3CSC7HSH2C6H5SC7H5C2HCH5CHC4H3CSC2HC7H4C4H7CHNC9H16CHFeCH2SH2NC9H10CHCNC2HSFeCH3NCHCHFeHC2H2CHC3HC2H7C2SCHNSH5FeHCNH3C2HCHCHSFeSC3H2NCH2CH3CH8C2HCNH4CH5C2HC3HC2H5C4H2CHCH4CFeHCH3CH2FeCH3C2HSC2H3FeSH2CHC4HCH2CH2C2HC5SH3SHCH2S2H2CHCH4SHC2HCH2SC2H
_chemical_formula_sum              "H2592 C2160 Fe288 S576 N144"
_cell_length_a       75.2743
_cell_length_b       75.011
_cell_length_c       61.4564
_cell_angle_alpha    82.3013
_cell_angle_beta     82.0602
_cell_angle_gamma    104.521

_space_group_name_H-M_alt    "P 1"
_space_group_IT_number       1

loop_
  _space_group_symop_operation_xyz
  'x, y, z'

loop_
  _atom_site_type_symbol
  _atom_site_label
  _atom_site_symmetry_multiplicity
  _atom_site_fract_x
  _atom_site_fract_y
  _atom_site_fract_z
  _atom_site_occupancy
  H   H1        1.0  0.05641  0.30914  0.13174  1.0000
  H   H2        1.0  0.01646  0.27562  0.01932  1.0000
  H   H3        1.0  0.02178  0.25885  0.11874  1.0000
  H   H4        1.0  0.08003  0.32252  0.02406  1.0000
  C   C1        1.0  0.00627  0.27830  0.12974  1.0000
  Fe  Fe1       1.0  0.08993  0.31092  0.07721  1.0000
  H   H5        1.0  0.08306  0.26558  0.03087  1.0000
  S   S1        1.0  0.07650  0.28023  0.07765  1.0000
  H   H6        1.0  0.16016  0.31836  0.09881  1.0000
  C   C2        1.0  0.02601  0.33047  0.05715  1.0000
  H   H7        1.0  0.06957  0.30062  0.99873  1.0000
  C   C3        1.0  0.09184  0.27428  0.01574  1.0000
  C   C4        1.0  0.02241  0.27206  0.12422  1.0000
  S   S2        1.0  0.10670  0.32200  0.10279  1.0000
  C   C5        1.0  0.00798  0.31856  0.06127  1.0000
  H   H8        1.0  0.23470  0.26565  0.13674  1.0000
  C   C6        1.0  0.00917  0.29629  0.13589  1.0000
  C   C7        1.0  0.01077  0.23862  0.99696  1.0000
  C   C8        1.0  0.01851  0.24988  0.06507  1.0000
  H   H9        1.0  0.23251  0.28403  0.15142  1.0000
  C   C9        1.0  0.05408  0.26960  0.07213  1.0000
  C   C10       1.0  0.04996  0.25055  0.07099  1.0000
  C   C11       1.0  0.03249  0.24087  0.06726  1.0000
  C   C12       1.0  0.18909  0.32268  0.10249  1.0000
  C   C13       1.0  0.02244  0.26906  0.06614  1.0000
  C   C14       1.0  0.04030  0.27899  0.06945  1.0000
  H   H10       1.0  0.06041  0.24313  0.07304  1.0000
  H   H11       1.0  0.11039  0.29069  0.03352  1.0000
  H   H12       1.0  0.02974  0.22613  0.06637  1.0000
  H   H13       1.0  0.04332  0.29375  0.07022  1.0000
  C   C15       1.0  0.00155  0.30842  0.04505  1.0000
  H   H14       1.0  0.13018  0.31113  0.99993  1.0000
  C   C16       1.0  0.01298  0.31001  0.02407  1.0000
  C   C17       1.0  0.17422  0.32737  0.09355  1.0000
  H   H15       1.0  0.01192  0.27628  0.06408  1.0000
  C   C18       1.0  0.03753  0.33250  0.03670  1.0000
  C   C19       1.0  0.04021  0.28309  0.12507  1.0000
  C   C20       1.0  0.04254  0.30059  0.13131  1.0000
  C   C21       1.0  0.02705  0.30715  0.13678  1.0000
  H   H16       1.0  0.05236  0.27815  0.12050  1.0000
  C   C22       1.0  0.08761  0.27138  0.99491  1.0000
  C   C23       1.0  0.03119  0.32253  0.02031  1.0000
  C   C24       1.0  0.00313  0.27859  0.01637  1.0000
  H   H17       1.0  0.18631  0.31006  0.11472  1.0000
  C   C25       1.0  0.07997  0.32792  0.00686  1.0000
  S   S3        1.0  0.11245  0.32704  0.04832  1.0000
  H   H18       1.0  0.99895  0.31720  0.07710  1.0000
  C   C26       1.0  0.10728  0.28855  0.01719  1.0000
  H   H19       1.0  0.02902  0.32076  0.14164  1.0000
  N   N1        1.0  0.00602  0.29866  0.00745  1.0000
  S   S4        1.0  0.22568  0.32831  0.10821  1.0000
  H   H20       1.0  0.01264  0.23262  0.01331  1.0000
  C   C27       1.0  0.24157  0.27469  0.14779  1.0000
  H   H21       1.0  0.04088  0.32493  0.00486  1.0000
  S   S5        1.0  0.07363  0.33204  0.07683  1.0000
  H   H22       1.0  0.21870  0.32080  0.99479  1.0000
  H   H23       1.0  0.24134  0.26556  0.16374  1.0000
  C   C28       1.0  0.11849  0.30012  0.99784  1.0000
  H   H24       1.0  0.07550  0.26034  0.99387  1.0000
  C   C29       1.0  0.07397  0.31551  0.99250  1.0000
  H   H25       1.0  0.99762  0.30216  0.13982  1.0000
  H   H26       1.0  0.99714  0.26952  0.00479  1.0000
  S   S6        1.0  0.99695  0.23612  0.06028  1.0000
  H   H27       1.0  0.14659  0.29424  0.95510  1.0000
  S   S7        1.0  0.13843  0.31359  0.87393  1.0000
  H   H28       1.0  0.20944  0.31460  0.95743  1.0000
  S   S8        1.0  0.08449  0.29719  0.89520  1.0000
  S   S9        1.0  0.06664  0.30649  0.95244  1.0000
  C   C30       1.0  0.07372  0.32232  0.97022  1.0000
  H   H29       1.0  0.15239  0.31404  0.96892  1.0000
  Fe  Fe2       1.0  0.06931  0.30950  0.87064  1.0000
  S   S10       1.0  0.04664  0.29729  0.85134  1.0000
  Fe  Fe3       1.0  0.07786  0.31793  0.91590  1.0000
  H   H30       1.0  0.12109  0.29146  0.93244  1.0000
  H   H31       1.0  0.12967  0.31554  0.92009  1.0000
  C   C31       1.0  0.02579  0.27953  0.86354  1.0000
  C   C32       1.0  0.01904  0.30319  0.98571  1.0000
  H   H32       1.0  0.03859  0.25719  0.98860  1.0000
  H   H33       1.0  0.09432  0.28007  0.95992  1.0000
  C   C33       1.0  0.02178  0.33097  0.85218  1.0000
  C   C34       1.0  0.02465  0.26718  0.88316  1.0000
  C   C35       1.0  0.16095  0.32530  0.87880  1.0000
  C   C36       1.0  0.09869  0.28287  0.97542  1.0000
  H   H34       1.0  0.01867  0.32003  0.84160  1.0000
  H   H35       1.0  0.03661  0.26853  0.89140  1.0000
  C   C37       1.0  0.01023  0.27728  0.85276  1.0000
  C   C38       1.0  0.11453  0.29769  0.97631  1.0000
  C   C39       1.0  0.02537  0.25245  0.98312  1.0000
  H   H36       1.0  0.10614  0.30692  0.93442  1.0000
  C   C40       1.0  0.00837  0.25240  0.89148  1.0000
  C   C41       1.0  0.12053  0.30575  0.93495  1.0000
  C   C42       1.0  0.17606  0.31786  0.87318  1.0000
  H   H37       1.0  0.20562  0.32082  0.87189  1.0000
  C   C43       1.0  0.99906  0.33167  0.73411  1.0000
  H   H38       1.0  0.23400  0.32365  0.94628  1.0000
  Fe  Fe4       1.0  0.11034  0.32062  0.87935  1.0000
  H   H39       1.0  0.17380  0.30531  0.86588  1.0000
  H   H40       1.0  0.03459  0.27059  0.95121  1.0000
  C   C44       1.0  0.22071  0.32760  0.95008  1.0000
  C   C45       1.0  0.19417  0.32664  0.87658  1.0000
  C   C46       1.0  0.02303  0.26006  0.96212  1.0000
  H   H41       1.0  0.03253  0.30004  0.98751  1.0000
  H   H42       1.0  0.00808  0.24242  0.90601  1.0000
  H   H43       1.0  0.24211  0.32980  0.98017  1.0000
  N   N2        1.0  0.12656  0.31023  0.95607  1.0000
  H   H44       1.0  0.01106  0.28650  0.83733  1.0000
  C   C47       1.0  0.00602  0.25398  0.95492  1.0000
  H   H45       1.0  0.01329  0.29478  0.97341  1.0000
  H   H46       1.0  0.15523  0.31752  0.93918  1.0000
  C   C48       1.0  0.14602  0.30896  0.95485  1.0000
  H   H47       1.0  0.00847  0.32338  0.72799  1.0000
  H   H48       1.0  0.00535  0.26005  0.93821  1.0000
  H   H49       1.0  0.02370  0.32997  0.75815  1.0000
  C   C49       1.0  0.12640  0.32986  0.95698  1.0000
  H   H50       1.0  0.02205  0.31819  0.97804  1.0000
  S   S11       1.0  0.06111  0.32867  0.89260  1.0000
  S   S12       1.0  0.09581  0.33082  0.85228  1.0000
  H   H51       1.0  0.02857  0.32508  0.86535  1.0000
  H   H52       1.0  0.11201  0.33132  0.95798  1.0000
  H   H53       1.0  0.21788  0.33306  0.93356  1.0000
  H   H54       1.0  0.00848  0.33269  0.86080  1.0000
  C   C50       1.0  0.22901  0.33373  0.98513  1.0000
  Fe  Fe5       1.0  0.19927  0.49994  0.32462  1.0000
  S   S13       1.0  0.21260  0.53070  0.31365  1.0000
  S   S14       1.0  0.19714  0.48198  0.29792  1.0000
  Fe  Fe6       1.0  0.19400  0.50311  0.37387  1.0000
  S   S15       1.0  0.20634  0.53413  0.36691  1.0000
  S   S16       1.0  0.18520  0.48634  0.40872  1.0000
  Fe  Fe7       1.0  0.18988  0.53362  0.33923  1.0000
  S   S17       1.0  0.17421  0.55458  0.33132  1.0000
  H   H55       1.0  0.07521  0.36496  0.17411  1.0000
  S   S18       1.0  0.17525  0.50303  0.34837  1.0000
  S   S19       1.0  0.21692  0.49716  0.35084  1.0000
  H   H56       1.0  0.17716  0.52218  0.41000  1.0000
  Fe  Fe8       1.0  0.20607  0.64551  0.35999  1.0000
  S   S20       1.0  0.17958  0.62771  0.38184  1.0000
  H   H57       1.0  0.02683  0.64854  0.01345  1.0000
  Fe  Fe9       1.0  0.16767  0.65091  0.36927  1.0000
  S   S21       1.0  0.13975  0.64132  0.35866  1.0000
  Fe  Fe10      1.0  0.18823  0.64456  0.40782  1.0000
  C   C51       1.0  0.00549  0.48635  0.18837  1.0000
  Fe  Fe11      1.0  0.12776  0.34029  0.07354  1.0000
  Fe  Fe12      1.0  0.09706  0.34885  0.04946  1.0000
  H   H58       1.0  0.20167  0.57326  0.37506  1.0000
  Fe  Fe13      1.0  0.11125  0.47607  0.20076  1.0000
  S   S22       1.0  0.09310  0.46516  0.23430  1.0000
  S   S23       1.0  0.11860  0.50616  0.18357  1.0000
  Fe  Fe14      1.0  0.11276  0.43704  0.19296  1.0000
  S   S24       1.0  0.09475  0.42292  0.22625  1.0000
  S   S25       1.0  0.12478  0.42371  0.16542  1.0000
  Fe  Fe15      1.0  0.07742  0.44255  0.21829  1.0000
  S   S26       1.0  0.04621  0.43742  0.22216  1.0000
  Fe  Fe16      1.0  0.11207  0.44682  0.23963  1.0000
  S   S27       1.0  0.11867  0.44382  0.27459  1.0000
  S   S28       1.0  0.09409  0.45488  0.18415  1.0000
  S   S29       1.0  0.13163  0.45946  0.20700  1.0000
  Fe  Fe17      1.0  0.11653  0.63316  0.24003  1.0000
  S   S30       1.0  0.13022  0.62087  0.21315  1.0000
  C   C52       1.0  0.00519  0.39180  0.21935  1.0000
  Fe  Fe18      1.0  0.07761  0.61045  0.23726  1.0000
  S   S31       1.0  0.08799  0.59582  0.21091  1.0000
  S   S32       1.0  0.04690  0.60532  0.24876  1.0000
  Fe  Fe19      1.0  0.11021  0.59365  0.23112  1.0000
  S   S33       1.0  0.11835  0.56783  0.24389  1.0000
  Fe  Fe20      1.0  0.10667  0.62441  0.19546  1.0000
  S   S34       1.0  0.10645  0.63403  0.15916  1.0000
  S   S35       1.0  0.09804  0.60580  0.25907  1.0000
  S   S36       1.0  0.09481  0.63918  0.22069  1.0000
  C   C53       1.0  0.08025  0.64554  0.31568  1.0000
  C   C54       1.0  0.17911  0.51674  0.42643  1.0000
  H   H59       1.0  0.13158  0.34949  0.13108  1.0000
  C   C55       1.0  0.01818  0.54513  0.24349  1.0000
  C   C56       1.0  0.00820  0.55856  0.24267  1.0000
  C   C57       1.0  0.01693  0.57706  0.24460  1.0000
  C   C58       1.0  0.03570  0.58213  0.24699  1.0000
  C   C59       1.0  0.04566  0.56870  0.24762  1.0000
  C   C60       1.0  0.03690  0.55023  0.24597  1.0000
  H   H60       1.0  0.19245  0.59857  0.28892  1.0000
  H   H61       1.0  0.00916  0.58739  0.24415  1.0000
  H   H62       1.0  0.06006  0.57243  0.24980  1.0000
  H   H63       1.0  0.04465  0.53988  0.24673  1.0000
  C   C61       1.0  0.11665  0.52288  0.20059  1.0000
  C   C62       1.0  0.11378  0.51812  0.22383  1.0000
  C   C63       1.0  0.11329  0.53190  0.23705  1.0000
  C   C64       1.0  0.11579  0.55048  0.22713  1.0000
  C   C65       1.0  0.11786  0.55514  0.20395  1.0000
  C   C66       1.0  0.11835  0.54134  0.19069  1.0000
  H   H64       1.0  0.11272  0.50401  0.23159  1.0000
  H   H65       1.0  0.11149  0.52827  0.25497  1.0000
  H   H66       1.0  0.11978  0.56949  0.19619  1.0000
  H   H67       1.0  0.12047  0.54506  0.17270  1.0000
  C   C67       1.0  0.11072  0.40478  0.15590  1.0000
  C   C68       1.0  0.11527  0.40245  0.13372  1.0000
  C   C69       1.0  0.10532  0.38674  0.12601  1.0000
  C   C70       1.0  0.09098  0.37302  0.14055  1.0000
  C   C71       1.0  0.08623  0.37548  0.16267  1.0000
  C   C72       1.0  0.09598  0.39136  0.17029  1.0000
  H   H68       1.0  0.12655  0.41287  0.12245  1.0000
  H   H69       1.0  0.10866  0.38533  0.10878  1.0000
  H   H70       1.0  0.09241  0.39299  0.18745  1.0000
  C   C73       1.0  0.01313  0.37710  0.22430  1.0000
  H   H71       1.0  0.99878  0.36149  0.15934  1.0000
  C   C74       1.0  0.01560  0.41031  0.21839  1.0000
  C   C75       1.0  0.03380  0.41416  0.22279  1.0000
  C   C76       1.0  0.04173  0.39947  0.22774  1.0000
  C   C77       1.0  0.03140  0.38095  0.22848  1.0000
  C   C78       1.0  0.15327  0.38311  0.10987  1.0000
  H   H72       1.0  0.00961  0.42169  0.21407  1.0000
  H   H73       1.0  0.05576  0.40233  0.23119  1.0000
  H   H74       1.0  0.03763  0.36962  0.23222  1.0000
  H   H75       1.0  0.18849  0.47913  0.45496  1.0000
  C   C79       1.0  0.13943  0.64422  0.32979  1.0000
  H   H76       1.0  0.13234  0.41043  0.30387  1.0000
  H   H77       1.0  0.04372  0.59758  0.18901  1.0000
  H   H78       1.0  0.15539  0.60330  0.48235  1.0000
  C   C80       1.0  0.12444  0.63447  0.29894  1.0000
  C   C81       1.0  0.12585  0.63164  0.32164  1.0000
  H   H79       1.0  0.18674  0.46124  0.37564  1.0000
  C   C82       1.0  0.13848  0.41608  0.31733  1.0000
  H   H80       1.0  0.11390  0.62479  0.29291  1.0000
  H   H81       1.0  0.11623  0.61984  0.33303  1.0000
  H   H82       1.0  0.00266  0.64733  0.02219  1.0000
  H   H83       1.0  0.04757  0.52546  0.20481  1.0000
  C   C83       1.0  0.20140  0.57648  0.24614  1.0000
  H   H84       1.0  0.03219  0.64560  0.14028  1.0000
  H   H85       1.0  0.20963  0.56720  0.24131  1.0000
  C   C84       1.0  0.18856  0.57673  0.33176  1.0000
  C   C85       1.0  0.20794  0.57991  0.32904  1.0000
  C   C86       1.0  0.21929  0.59757  0.33027  1.0000
  C   C87       1.0  0.21122  0.61198  0.33428  1.0000
  C   C88       1.0  0.19193  0.60895  0.33610  1.0000
  C   C89       1.0  0.18058  0.59128  0.33512  1.0000
  H   H86       1.0  0.21421  0.56872  0.32637  1.0000
  C   C90       1.0  0.19048  0.64443  0.48175  1.0000
  H   H87       1.0  0.18569  0.62022  0.33837  1.0000
  H   H88       1.0  0.16559  0.58880  0.33735  1.0000
  C   C91       1.0  0.17520  0.47299  0.29063  1.0000
  C   C92       1.0  0.15869  0.47126  0.30531  1.0000
  C   C93       1.0  0.14141  0.46249  0.30005  1.0000
  C   C94       1.0  0.14045  0.45617  0.27965  1.0000
  C   C95       1.0  0.15692  0.45857  0.26455  1.0000
  C   C96       1.0  0.17427  0.46670  0.27020  1.0000
  H   H89       1.0  0.15924  0.47590  0.32111  1.0000
  H   H90       1.0  0.12872  0.46039  0.31192  1.0000
  H   H91       1.0  0.15631  0.45351  0.24890  1.0000
  H   H92       1.0  0.18700  0.46798  0.25877  1.0000
  C   C97       1.0  0.18326  0.49953  0.43029  1.0000
  C   C98       1.0  0.07767  0.64422  0.27611  1.0000
  H   H93       1.0  0.08068  0.61320  0.30326  1.0000
  N   N3        1.0  0.15566  0.37249  0.13091  1.0000
  C   C99       1.0  0.19533  0.34464  0.99346  1.0000
  H   H94       1.0  0.23243  0.34415  0.99631  1.0000
  C   C100      1.0  0.17579  0.37685  0.13201  1.0000
  H   H95       1.0  0.03109  0.33822  0.06974  1.0000
  C   C101      1.0  0.18583  0.39527  0.13349  1.0000
  C   C102      1.0  0.00479  0.62853  0.14268  1.0000
  C   C103      1.0  0.20493  0.39985  0.13412  1.0000
  C   C104      1.0  0.15171  0.65956  0.31503  1.0000
  C   C105      1.0  0.16844  0.65314  0.46025  1.0000
  H   H96       1.0  0.18708  0.57417  0.48531  1.0000
  S   S37       1.0  0.17378  0.66632  0.39770  1.0000
  H   H97       1.0  0.23422  0.59987  0.32879  1.0000
  H   H98       1.0  0.16379  0.57505  0.48404  1.0000
  C   C106      1.0  0.17765  0.34375  0.07788  1.0000
  H   H99       1.0  0.23059  0.60776  0.40262  1.0000
  C   C107      1.0  0.19572  0.58795  0.42468  1.0000
  H   H100      1.0  0.18482  0.57523  0.43392  1.0000
  H   H101      1.0  0.02654  0.37242  0.11735  1.0000
  N   N4        1.0  0.15389  0.52735  0.27672  1.0000
  C   C108      1.0  0.15061  0.54535  0.28124  1.0000
  C   C109      1.0  0.13738  0.51217  0.28883  1.0000
  C   C110      1.0  0.17050  0.52520  0.28613  1.0000
  C   C111      1.0  0.15691  0.52612  0.25269  1.0000
  C   C112      1.0  0.15747  0.54110  0.23555  1.0000
  C   C113      1.0  0.15930  0.50940  0.24583  1.0000
  C   C114      1.0  0.15983  0.53918  0.21308  1.0000
  C   C115      1.0  0.16144  0.50755  0.22336  1.0000
  C   C116      1.0  0.16158  0.52238  0.20702  1.0000
  H   H102      1.0  0.13804  0.54768  0.27492  1.0000
  H   H103      1.0  0.14826  0.54573  0.29947  1.0000
  H   H104      1.0  0.16284  0.55739  0.27362  1.0000
  H   H105      1.0  0.13437  0.51302  0.30687  1.0000
  H   H106      1.0  0.13925  0.49807  0.28809  1.0000
  H   H107      1.0  0.12473  0.51279  0.28164  1.0000
  H   H108      1.0  0.18322  0.53642  0.27762  1.0000
  H   H109      1.0  0.16871  0.52592  0.30424  1.0000
  H   H110      1.0  0.17340  0.51157  0.28452  1.0000
  H   H111      1.0  0.15524  0.55416  0.23908  1.0000
  H   H112      1.0  0.15920  0.49748  0.25785  1.0000
  H   H113      1.0  0.15930  0.55044  0.20034  1.0000
  H   H114      1.0  0.16260  0.49440  0.21865  1.0000
  H   H115      1.0  0.16249  0.52065  0.18969  1.0000
  C   C117      1.0  0.18538  0.49246  0.45181  1.0000
  C   C118      1.0  0.16542  0.43292  0.33088  1.0000
  H   H116      1.0  0.06932  0.63695  0.26467  1.0000
  H   H117      1.0  0.21219  0.61261  0.38916  1.0000
  H   H118      1.0  0.18019  0.43983  0.32682  1.0000
  H   H119      1.0  0.06634  0.61334  0.18041  1.0000
  C   C119      1.0  0.02073  0.49510  0.19737  1.0000
  H   H120      1.0  0.14345  0.59089  0.27717  1.0000
  C   C120      1.0  0.02601  0.62148  0.16757  1.0000
  C   C121      1.0  0.21981  0.60193  0.39284  1.0000
  H   H121      1.0  0.14856  0.37187  0.16624  1.0000
  H   H122      1.0  0.00855  0.38576  0.14701  1.0000
  H   H123      1.0  0.05154  0.34191  0.03349  1.0000
  H   H124      1.0  0.03113  0.61794  0.21052  1.0000
  H   H125      1.0  0.22493  0.35952  0.07469  1.0000
  C   C122      1.0  0.19128  0.59441  0.27294  1.0000
  C   C123      1.0  0.17685  0.52662  0.44405  1.0000
  H   H126      1.0  0.00875  0.37755  0.17584  1.0000
  H   H127      1.0  0.06162  0.64017  0.14418  1.0000
  H   H128      1.0  0.18541  0.49705  0.48573  1.0000
  H   H129      1.0  0.06144  0.52219  0.18008  1.0000
  H   H130      1.0  0.20158  0.63787  0.48336  1.0000
  H   H131      1.0  0.00752  0.46062  0.25412  1.0000
  H   H132      1.0  0.04890  0.46738  0.18361  1.0000
  C   C124      1.0  0.19412  0.57586  0.39062  1.0000
  N   N5        1.0  0.05280  0.49815  0.20642  1.0000
  H   H133      1.0  0.08480  0.43401  0.14407  1.0000
  C   C125      1.0  0.13495  0.42345  0.35457  1.0000
  H   H134      1.0  0.21021  0.57755  0.27792  1.0000
  C   C126      1.0  0.18159  0.45372  0.36228  1.0000
  H   H135      1.0  0.18305  0.59621  0.47595  1.0000
  H   H136      1.0  0.11236  0.40877  0.33991  1.0000
  C   C127      1.0  0.10175  0.66098  0.34659  1.0000
  H   H137      1.0  0.08113  0.49865  0.20928  1.0000
  H   H138      1.0  0.15753  0.39848  0.10939  1.0000
  H   H139      1.0  0.21285  0.35768  0.13050  1.0000
  C   C128      1.0  0.17925  0.51969  0.46551  1.0000
  H   H140      1.0  0.11045  0.66633  0.35825  1.0000
  C   C129      1.0  0.21570  0.56073  0.43339  1.0000
  H   H141      1.0  0.04514  0.35316  0.16491  1.0000
  H   H142      1.0  0.19886  0.36788  0.05898  1.0000
  H   H143      1.0  0.18811  0.59834  0.41952  1.0000
  S   S38       1.0  0.07871  0.35282  0.13145  1.0000
  C   C130      1.0  0.18361  0.50260  0.46929  1.0000
  H   H144      1.0  0.08327  0.41615  0.11311  1.0000
  C   C131      1.0  0.22538  0.54745  0.43827  1.0000
  C   C132      1.0  0.07332  0.42162  0.14528  1.0000
  C   C133      1.0  0.16093  0.42810  0.38891  1.0000
  C   C134      1.0  0.21089  0.35047  0.07996  1.0000
  H   H145      1.0  0.16189  0.65267  0.44568  1.0000
  H   H146      1.0  0.17234  0.34886  0.01545  1.0000
  C   C135      1.0  0.07242  0.41152  0.12783  1.0000
  H   H147      1.0  0.20615  0.56257  0.44718  1.0000
  C   C136      1.0  0.19605  0.35518  0.07108  1.0000
  H   H148      1.0  0.12564  0.42247  0.36999  1.0000
  C   C137      1.0  0.15073  0.45510  0.37629  1.0000
  H   H149      1.0  0.15722  0.46383  0.38796  1.0000
  H   H150      1.0  0.23270  0.57290  0.37729  1.0000
  C   C138      1.0  0.14683  0.35235  0.13127  1.0000
  C   C139      1.0  0.05984  0.41539  0.16459  1.0000
  C   C140      1.0  0.20174  0.58233  0.26669  1.0000
  H   H151      1.0  0.03243  0.36196  0.18582  1.0000
  H   H152      1.0  0.14937  0.46476  0.36162  1.0000
  H   H153      1.0  0.14637  0.41971  0.39599  1.0000
  C   C141      1.0  0.02824  0.36237  0.13145  1.0000
  S   S39       1.0  0.00772  0.52180  0.24167  1.0000
  H   H154      1.0  0.02025  0.34359  0.17333  1.0000
  C   C142      1.0  0.05814  0.39504  0.12966  1.0000
  C   C143      1.0  0.17859  0.34947  0.99821  1.0000
  H   H155      1.0  0.05878  0.38757  0.11587  1.0000
  H   H156      1.0  0.02213  0.45254  0.16845  1.0000
  H   H157      1.0  0.16695  0.64139  0.25303  1.0000
  S   S40       1.0  0.11382  0.36365  0.07247  1.0000
  C   C144      1.0  0.05842  0.51874  0.19864  1.0000
  C   C145      1.0  0.01056  0.37410  0.15879  1.0000
  H   H158      1.0  0.19113  0.44493  0.35852  1.0000
  S   S41       1.0  0.00079  0.35397  0.22414  1.0000
  C   C146      1.0  0.04410  0.38832  0.14914  1.0000
  H   H159      1.0  0.07124  0.52577  0.20471  1.0000
  H   H160      1.0  0.14873  0.39342  0.14932  1.0000
  C   C147      1.0  0.14852  0.60436  0.26517  1.0000
  H   H161      1.0  0.16619  0.42549  0.29812  1.0000
  H   H162      1.0  0.13645  0.44749  0.38531  1.0000
  H   H163      1.0  0.17323  0.53968  0.44104  1.0000
  H   H164      1.0  0.01100  0.48820  0.27213  1.0000
  H   H165      1.0  0.03454  0.64205  0.19900  1.0000
  C   C148      1.0  0.04077  0.63009  0.19859  1.0000
  H   H166      1.0  0.07167  0.64527  0.16802  1.0000
  H   H167      1.0  0.09196  0.64243  0.27228  1.0000
  H   H168      1.0  0.15277  0.34758  0.11622  1.0000
  C   C149      1.0  0.04547  0.39901  0.16652  1.0000
  C   C150      1.0  0.15001  0.66261  0.29243  1.0000
  S   S42       1.0  0.22492  0.63320  0.33898  1.0000
  H   H169      1.0  0.05329  0.60526  0.15969  1.0000
  H   H170      1.0  0.05801  0.60887  0.31986  1.0000
  C   C151      1.0  0.05208  0.60981  0.17621  1.0000
  N   N6        1.0  0.04401  0.62599  0.17567  1.0000
  H   H171      1.0  0.19031  0.57810  0.21576  1.0000
  C   C152      1.0  0.05825  0.64245  0.16164  1.0000
  C   C153      1.0  0.03182  0.35675  0.16974  1.0000
  C   C154      1.0  0.21791  0.57055  0.41127  1.0000
  H   H172      1.0  0.22295  0.53968  0.45513  1.0000
  H   H173      1.0  0.05397  0.63359  0.20534  1.0000
  H   H174      1.0  0.06073  0.42304  0.17836  1.0000
  H   H175      1.0  0.03565  0.39456  0.18199  1.0000
  H   H176      1.0  0.05372  0.65549  0.16148  1.0000
  H   H177      1.0  0.13952  0.61346  0.26988  1.0000
  N   N7        1.0  0.06913  0.63672  0.29991  1.0000
  H   H178      1.0  0.04106  0.35792  0.12642  1.0000
  N   N8        1.0  0.02899  0.37071  0.15203  1.0000
  H   H179      1.0  0.16672  0.43472  0.40258  1.0000
  H   H180      1.0  0.14584  0.60124  0.24860  1.0000
  H   H181      1.0  0.24195  0.49233  0.29762  1.0000
  C   C155      1.0  0.18234  0.64403  0.46264  1.0000
  H   H182      1.0  0.18452  0.62608  0.28831  1.0000
  H   H183      1.0  0.17897  0.40631  0.13395  1.0000
  C   C156      1.0  0.18611  0.36339  0.13095  1.0000
  H   H184      1.0  0.14842  0.34345  0.14648  1.0000
  S   S43       1.0  0.13428  0.65484  0.25603  1.0000
  H   H185      1.0  0.17144  0.59875  0.22640  1.0000
  Fe  Fe21      1.0  0.22806  0.52835  0.34216  1.0000
  H   H186      1.0  0.17160  0.62873  0.23148  1.0000
  H   H187      1.0  0.04262  0.47893  0.23747  1.0000
  C   C157      1.0  0.02179  0.46453  0.17643  1.0000
  N   N9        1.0  0.16847  0.61347  0.26496  1.0000
  C   C158      1.0  0.17980  0.59450  0.23803  1.0000
  C   C159      1.0  0.17447  0.63105  0.24830  1.0000
  C   C160      1.0  0.02215  0.63298  0.14945  1.0000
  H   H188      1.0  0.21230  0.41402  0.13525  1.0000
  Fe  Fe22      1.0  0.09190  0.34466  0.10007  1.0000
  S   S44       1.0  0.09218  0.36301  0.01710  1.0000
  C   C161      1.0  0.05036  0.63989  0.30359  1.0000
  C   C162      1.0  0.17984  0.60078  0.25883  1.0000
  C   C163      1.0  0.24033  0.55324  0.39972  1.0000
  C   C164      1.0  0.16996  0.61861  0.28730  1.0000
  H   H189      1.0  0.16132  0.62816  0.29139  1.0000
  H   H190      1.0  0.16484  0.60609  0.30073  1.0000
  H   H191      1.0  0.18966  0.63778  0.24668  1.0000
  C   C165      1.0  0.19053  0.58263  0.23179  1.0000
  S   S45       1.0  0.18907  0.63130  0.44253  1.0000
  H   H192      1.0  0.16905  0.41819  0.38437  1.0000
  H   H193      1.0  0.03477  0.49978  0.23619  1.0000
  H   H194      1.0  0.20464  0.59404  0.43634  1.0000
  H   H195      1.0  0.18567  0.58540  0.38542  1.0000
  N   N10       1.0  0.16186  0.44236  0.36930  1.0000
  H   H196      1.0  0.01950  0.50671  0.20553  1.0000
  N   N11       1.0  0.20705  0.58384  0.40516  1.0000
  H   H197      1.0  0.18435  0.56218  0.39920  1.0000
  C   C166      1.0  0.14539  0.37799  0.15020  1.0000
  H   H198      1.0  0.18326  0.46451  0.34726  1.0000
  C   C167      1.0  0.15422  0.43297  0.35152  1.0000
  C   C168      1.0  0.03719  0.47329  0.18527  1.0000
  H   H199      1.0  0.20127  0.34045  0.00768  1.0000
  H   H200      1.0  0.22708  0.60071  0.37633  1.0000
  C   C169      1.0  0.11029  0.66604  0.12923  1.0000
  H   H201      1.0  0.13852  0.37931  0.10746  1.0000
  H   H202      1.0  0.05823  0.50091  0.23953  1.0000
  S   S46       1.0  0.17690  0.53282  0.48707  1.0000
  C   C170      1.0  0.00601  0.47111  0.17789  1.0000
  C   C171      1.0  0.23764  0.54371  0.42148  1.0000
  H   H203      1.0  0.13001  0.37317  0.15122  1.0000
  C   C172      1.0  0.21461  0.38631  0.13313  1.0000
  C   C173      1.0  0.15755  0.42461  0.31411  1.0000
  H   H204      1.0  0.06684  0.47635  0.20795  1.0000
  C   C174      1.0  0.06962  0.49149  0.20132  1.0000
  C   C175      1.0  0.12722  0.41534  0.33759  1.0000
  C   C176      1.0  0.04682  0.49427  0.23099  1.0000
  C   C177      1.0  0.03712  0.48895  0.19603  1.0000
  H   H205      1.0  0.07508  0.49413  0.18305  1.0000
  C   C178      1.0  0.08578  0.64613  0.35412  1.0000
  H   H206      1.0  0.01317  0.59617  0.19258  1.0000
  H   H207      1.0  0.10162  0.66730  0.29129  1.0000
  H   H208      1.0  0.17983  0.34913  0.12938  1.0000
  C   C179      1.0  0.17722  0.58287  0.48812  1.0000
  H   H209      1.0  0.06017  0.60941  0.29069  1.0000
  C   C180      1.0  0.13630  0.65016  0.28434  1.0000
  H   H210      1.0  0.01843  0.65081  0.04146  1.0000
  H   H211      1.0  0.16172  0.38011  0.09512  1.0000
  C   C181      1.0  0.20521  0.36814  0.13154  1.0000
  C   C182      1.0  0.23059  0.56642  0.39461  1.0000
  H   H212      1.0  0.12466  0.66471  0.17938  1.0000
  H   H213      1.0  0.00408  0.42977  0.25515  1.0000
  H   H214      1.0  0.22945  0.38989  0.13346  1.0000
  H   H215      1.0  0.01626  0.34964  0.13386  1.0000
  C   C183      1.0  0.08534  0.34724  0.99909  1.0000
  S   S47       1.0  0.21605  0.66006  0.38714  1.0000
  C   C184      1.0  0.06693  0.61623  0.30364  1.0000
  H   H216      1.0  0.08196  0.64020  0.37175  1.0000
  C   C185      1.0  0.01142  0.60541  0.17841  1.0000
  S   S48       1.0  0.15960  0.35094  0.06648  1.0000
  H   H217      1.0  0.06276  0.62711  0.34566  1.0000
  C   C186      1.0  0.07503  0.63861  0.33898  1.0000
  H   H218      1.0  0.04164  0.63351  0.29185  1.0000
  C   C187      1.0  0.16234  0.66215  0.47726  1.0000
  C   C188      1.0  0.11342  0.65846  0.15006  1.0000
  C   C189      1.0  0.01721  0.65457  0.02368  1.0000
  H   H219      1.0  0.10361  0.65682  0.11885  1.0000
  H   H220      1.0  0.07853  0.65931  0.27153  1.0000
  H   H221      1.0  0.00201  0.63760  0.12897  1.0000
  H   H222      1.0  0.04257  0.63365  0.32077  1.0000
  H   H223      1.0  0.05137  0.65512  0.30107  1.0000
  H   H224      1.0  0.24488  0.53320  0.42525  1.0000
  C   C190      1.0  0.09637  0.66107  0.30863  1.0000
  C   C191      1.0  0.99758  0.47786  0.27489  1.0000
  C   C192      1.0  0.20748  0.33423  0.09581  1.0000
  Fe  Fe23      1.0  0.19069  0.53705  0.56339  1.0000
  S   S49       1.0  0.16435  0.52218  0.55301  1.0000
  S   S50       1.0  0.18747  0.55856  0.58464  1.0000
  H   H225      1.0  0.14213  0.40106  0.80947  1.0000
  S   S51       1.0  0.18726  0.49436  0.53350  1.0000
  Fe  Fe24      1.0  0.18288  0.52220  0.52092  1.0000
  H   H226      1.0  0.12489  0.53788  0.68378  1.0000
  Fe  Fe25      1.0  0.17142  0.49613  0.56664  1.0000
  S   S52       1.0  0.15051  0.47191  0.59018  1.0000
  H   H227      1.0  0.04483  0.35571  0.86858  1.0000
  S   S53       1.0  0.19675  0.51102  0.57885  1.0000
  C   C193      1.0  0.01353  0.35754  0.70429  1.0000
  S   S54       1.0  0.18066  0.64409  0.56298  1.0000
  H   H228      1.0  0.20351  0.58749  0.51313  1.0000
  N   N12       1.0  0.17478  0.58630  0.51146  1.0000
  H   H229      1.0  0.02778  0.58399  0.70210  1.0000
  H   H230      1.0  0.00938  0.52500  0.68315  1.0000
  H   H231      1.0  0.11201  0.53742  0.64909  1.0000
  C   C194      1.0  0.04430  0.64460  0.81029  1.0000
  H   H232      1.0  0.17196  0.36180  0.94535  1.0000
  Fe  Fe26      1.0  0.10420  0.47330  0.71255  1.0000
  S   S55       1.0  0.11304  0.46616  0.74539  1.0000
  S   S56       1.0  0.12571  0.49280  0.68431  1.0000
  Fe  Fe27      1.0  0.06290  0.45703  0.73263  1.0000
  S   S57       1.0  0.06845  0.44872  0.76689  1.0000
  S   S58       1.0  0.03303  0.45497  0.73008  1.0000
  Fe  Fe28      1.0  0.08959  0.47670  0.76018  1.0000
  S   S59       1.0  0.09084  0.49548  0.78599  1.0000
  Fe  Fe29      1.0  0.09113  0.43877  0.74911  1.0000
  S   S60       1.0  0.09597  0.41076  0.76089  1.0000
  S   S61       1.0  0.08224  0.48582  0.72736  1.0000
  S   S62       1.0  0.08403  0.44497  0.71486  1.0000
  H   H233      1.0  0.13825  0.42253  0.77736  1.0000
  Fe  Fe30      1.0  0.10367  0.64197  0.73142  1.0000
  S   S63       1.0  0.12266  0.63099  0.75141  1.0000
  H   H234      1.0  0.23627  0.47137  0.57521  1.0000
  Fe  Fe31      1.0  0.06845  0.61621  0.76138  1.0000
  S   S64       1.0  0.08468  0.60276  0.78324  1.0000
  S   S65       1.0  0.03712  0.60719  0.77194  1.0000
  Fe  Fe32      1.0  0.10237  0.63227  0.78141  1.0000
  S   S66       1.0  0.10842  0.64123  0.81421  1.0000
  Fe  Fe33      1.0  0.10320  0.60278  0.75131  1.0000
  S   S67       1.0  0.11350  0.57992  0.73777  1.0000
  S   S68       1.0  0.08490  0.64564  0.76136  1.0000
  S   S69       1.0  0.08542  0.61383  0.72955  1.0000
  C   C195      1.0  0.03133  0.34456  0.75350  1.0000
  H   H235      1.0  0.00305  0.38272  0.77699  1.0000
  C   C196      1.0  0.02396  0.59557  0.75397  1.0000
  C   C197      1.0  0.03213  0.59472  0.73239  1.0000
  C   C198      1.0  0.02148  0.58448  0.71884  1.0000
  H   H236      1.0  0.15353  0.56051  0.52484  1.0000
  H   H237      1.0  0.04659  0.60207  0.72605  1.0000
  C   C199      1.0  0.09792  0.51918  0.77337  1.0000
  C   C200      1.0  0.09368  0.53285  0.78508  1.0000
  C   C201      1.0  0.09828  0.55166  0.77440  1.0000
  C   C202      1.0  0.10761  0.55680  0.75223  1.0000
  C   C203      1.0  0.11240  0.54319  0.74091  1.0000
  C   C204      1.0  0.10743  0.52443  0.75135  1.0000
  H   H238      1.0  0.08655  0.52884  0.80225  1.0000
  H   H239      1.0  0.09489  0.56220  0.78333  1.0000
  H   H240      1.0  0.11998  0.54713  0.72398  1.0000
  H   H241      1.0  0.11120  0.51407  0.74238  1.0000
  C   C205      1.0  0.09286  0.40185  0.78962  1.0000
  C   C206      1.0  0.08490  0.41038  0.80578  1.0000
  C   C207      1.0  0.08313  0.40325  0.82858  1.0000
  C   C208      1.0  0.08912  0.38744  0.83536  1.0000
  C   C209      1.0  0.09681  0.37874  0.81918  1.0000
  C   C210      1.0  0.09859  0.38588  0.79639  1.0000
  H   H242      1.0  0.08012  0.42244  0.80068  1.0000
  H   H243      1.0  0.07698  0.40988  0.84105  1.0000
  H   H244      1.0  0.10168  0.36671  0.82415  1.0000
  H   H245      1.0  0.10481  0.37923  0.78397  1.0000
  H   H246      1.0  0.18582  0.44126  0.62016  1.0000
  C   C211      1.0  0.01823  0.41351  0.69430  1.0000
  C   C212      1.0  0.02910  0.42776  0.70351  1.0000
  C   C213      1.0  0.02053  0.43572  0.71987  1.0000
  C   C214      1.0  0.19950  0.46302  0.58076  1.0000
  H   H247      1.0  0.14356  0.61668  0.55901  1.0000
  H   H248      1.0  0.02480  0.40773  0.68122  1.0000
  H   H249      1.0  0.04397  0.43302  0.69740  1.0000
  C   C215      1.0  0.22517  0.65061  0.64090  1.0000
  C   C216      1.0  0.00442  0.51571  0.69973  1.0000
  H   H250      1.0  0.13405  0.40662  0.84783  1.0000
  H   H251      1.0  0.03277  0.38718  0.72413  1.0000
  C   C217      1.0  0.15186  0.64606  0.64656  1.0000
  H   H252      1.0  0.12689  0.44940  0.78306  1.0000
  C   C218      1.0  0.02499  0.49696  0.69043  1.0000
  C   C219      1.0  0.11359  0.66507  0.81689  1.0000
  C   C220      1.0  0.13531  0.64117  0.68476  1.0000
  C   C221      1.0  0.14699  0.63597  0.66840  1.0000
  H   H253      1.0  0.18658  0.59290  0.59887  1.0000
  H   H254      1.0  0.13144  0.63308  0.70146  1.0000
  H   H255      1.0  0.15207  0.62390  0.67266  1.0000
  S   S70       1.0  0.08647  0.37886  0.86415  1.0000
  H   H256      1.0  0.14544  0.53257  0.67232  1.0000
  C   C222      1.0  0.16415  0.34154  0.88826  1.0000
  C   C223      1.0  0.11626  0.59077  0.67435  1.0000
  C   C224      1.0  0.22679  0.60387  0.54805  1.0000
  C   C225      1.0  0.13917  0.54440  0.67389  1.0000
  H   H257      1.0  0.19807  0.45164  0.57069  1.0000
  C   C226      1.0  0.14352  0.47738  0.61652  1.0000
  C   C227      1.0  0.12969  0.46425  0.63262  1.0000
  C   C228      1.0  0.12409  0.46863  0.65365  1.0000
  C   C229      1.0  0.13253  0.48608  0.65870  1.0000
  C   C230      1.0  0.14665  0.49894  0.64277  1.0000
  C   C231      1.0  0.15190  0.49476  0.62167  1.0000
  H   H258      1.0  0.12315  0.45076  0.62874  1.0000
  H   H259      1.0  0.11322  0.45858  0.66586  1.0000
  H   H260      1.0  0.15360  0.51226  0.64667  1.0000
  H   H261      1.0  0.16248  0.50503  0.60944  1.0000
  C   C232      1.0  0.20197  0.58127  0.57495  1.0000
  C   C233      1.0  0.00764  0.34885  0.81700  1.0000
  H   H262      1.0  0.02076  0.48771  0.73513  1.0000
  C   C234      1.0  0.02634  0.64472  0.84612  1.0000
  C   C235      1.0  0.20774  0.61439  0.57588  1.0000
  C   C236      1.0  0.19781  0.59585  0.58474  1.0000
  H   H263      1.0  0.00581  0.50233  0.74158  1.0000
  C   C237      1.0  0.11703  0.60283  0.65473  1.0000
  H   H264      1.0  0.20432  0.62554  0.58353  1.0000
  H   H265      1.0  0.12311  0.43339  0.85462  1.0000
  N   N13       1.0  0.01930  0.50791  0.70722  1.0000
  H   H266      1.0  0.19285  0.59867  0.53302  1.0000
  H   H267      1.0  0.02052  0.47178  0.77884  1.0000
  H   H268      1.0  0.18514  0.46342  0.58745  1.0000
  C   C238      1.0  0.03587  0.52235  0.71015  1.0000
  C   C239      1.0  0.05121  0.51701  0.71734  1.0000
  C   C240      1.0  0.03763  0.54189  0.70542  1.0000
  C   C241      1.0  0.06735  0.53031  0.71940  1.0000
  C   C242      1.0  0.05396  0.55509  0.70730  1.0000
  C   C243      1.0  0.06880  0.54932  0.71423  1.0000
  C   C244      1.0  0.00277  0.57473  0.72703  1.0000
  H   H269      1.0  0.04584  0.64270  0.79309  1.0000
  H   H270      1.0  0.20114  0.35361  0.93647  1.0000
  H   H271      1.0  0.07892  0.34697  0.94522  1.0000
  C   C245      1.0  0.00825  0.49379  0.78633  1.0000
  C   C246      1.0  0.02994  0.52490  0.78376  1.0000
  H   H272      1.0  0.01002  0.61071  0.81302  1.0000
  H   H273      1.0  0.05874  0.33954  0.84111  1.0000
  H   H274      1.0  0.00128  0.35293  0.69604  1.0000
  H   H275      1.0  0.05086  0.50241  0.72128  1.0000
  H   H276      1.0  0.20040  0.43012  0.60506  1.0000
  H   H277      1.0  0.07887  0.52583  0.72490  1.0000
  H   H278      1.0  0.05512  0.56993  0.70346  1.0000
  H   H279      1.0  0.08141  0.55959  0.71576  1.0000
  H   H280      1.0  0.99883  0.48346  0.72670  1.0000
  H   H281      1.0  0.99930  0.51743  0.79270  1.0000
  C   C247      1.0  0.14603  0.61327  0.54246  1.0000
  C   C248      1.0  0.05971  0.64947  0.84192  1.0000
  C   C249      1.0  0.22978  0.50387  0.62342  1.0000
  H   H282      1.0  0.06134  0.39628  0.73946  1.0000
  H   H283      1.0  0.15276  0.34754  0.89256  1.0000
  C   C250      1.0  0.02553  0.35757  0.82151  1.0000
  H   H284      1.0  0.08893  0.36899  0.97083  1.0000
  H   H285      1.0  0.16816  0.56888  0.54428  1.0000
  H   H286      1.0  0.07231  0.65156  0.84904  1.0000
  H   H287      1.0  0.01345  0.64321  0.85735  1.0000
  C   C251      1.0  0.23648  0.35889  0.95394  1.0000
  C   C252      1.0  0.06052  0.64786  0.81954  1.0000
  H   H288      1.0  0.00313  0.66390  0.82343  1.0000
  S   S71       1.0  0.11433  0.66362  0.70002  1.0000
  C   C253      1.0  0.00043  0.61864  0.81971  1.0000
  H   H289      1.0  0.16393  0.59670  0.55135  1.0000
  C   C254      1.0  0.02669  0.64330  0.82323  1.0000
  C   C255      1.0  0.18224  0.35028  0.89172  1.0000
  H   H290      1.0  0.19929  0.60970  0.50453  1.0000
  C   C256      1.0  0.04129  0.49802  0.77575  1.0000
  H   H291      1.0  0.03455  0.48884  0.69610  1.0000
  H   H292      1.0  0.13132  0.52897  0.63924  1.0000
  N   N14       1.0  0.03408  0.34893  0.83894  1.0000
  H   H293      1.0  0.20634  0.47643  0.56909  1.0000
  H   H294      1.0  0.00052  0.37725  0.73368  1.0000
  N   N15       1.0  0.03408  0.54484  0.78625  1.0000
  C   C257      1.0  0.00506  0.58637  0.76182  1.0000
  C   C258      1.0  0.19743  0.34301  0.88574  1.0000
  C   C259      1.0  0.02311  0.48643  0.78033  1.0000
  C   C260      1.0  0.05286  0.38183  0.74336  1.0000
  C   C261      1.0  0.17832  0.35672  0.95883  1.0000
  C   C262      1.0  0.05846  0.36871  0.75705  1.0000
  C   C263      1.0  0.17014  0.35556  0.98095  1.0000
  C   C264      1.0  0.18435  0.65333  0.49878  1.0000
  H   H295      1.0  0.04950  0.37507  0.84687  1.0000
  H   H296      1.0  0.01848  0.37296  0.69879  1.0000
  C   C265      1.0  0.19554  0.47837  0.62397  1.0000
  H   H297      1.0  0.05214  0.34001  0.77286  1.0000
  S   S72       1.0  0.21998  0.35490  0.89033  1.0000
  H   H298      1.0  0.00899  0.54308  0.80929  1.0000
  H   H299      1.0  0.05287  0.49228  0.77102  1.0000
  H   H300      1.0  0.02663  0.54739  0.70016  1.0000
  C   C266      1.0  0.04767  0.35016  0.76222  1.0000
  H   H301      1.0  0.23781  0.60699  0.53365  1.0000
  H   H302      1.0  0.20764  0.44038  0.62841  1.0000
  H   H303      1.0  0.24151  0.53096  0.56692  1.0000
  C   C267      1.0  0.04442  0.55695  0.76487  1.0000
  C   C268      1.0  0.04468  0.51696  0.77733  1.0000
  C   C269      1.0  0.20067  0.44226  0.61375  1.0000
  C   C270      1.0  0.19505  0.35193  0.95390  1.0000
  C   C271      1.0  0.05142  0.34520  0.82840  1.0000
  H   H304      1.0  0.13509  0.33967  0.94186  1.0000
  N   N16       1.0  0.00923  0.63907  0.81400  1.0000
  C   C272      1.0  0.14526  0.66166  0.64118  1.0000
  Fe  Fe34      1.0  0.21144  0.65744  0.55630  1.0000
  C   C273      1.0  0.00929  0.37563  0.78913  1.0000
  Fe  Fe35      1.0  0.18044  0.65734  0.59361  1.0000
  H   H305      1.0  0.18459  0.36300  0.89869  1.0000
  H   H306      1.0  0.01279  0.48638  0.68715  1.0000
  C   C274      1.0  0.14132  0.61670  0.50430  1.0000
  C   C275      1.0  0.22876  0.45876  0.58799  1.0000
  H   H307      1.0  0.04900  0.38264  0.81046  1.0000
  C   C276      1.0  0.24439  0.65856  0.63722  1.0000
  H   H308      1.0  0.23779  0.45687  0.60053  1.0000
  H   H309      1.0  0.19051  0.65321  0.51363  1.0000
  C   C277      1.0  0.03653  0.37643  0.73460  1.0000
  H   H310      1.0  0.99946  0.33512  0.82562  1.0000
  H   H311      1.0  0.07376  0.64868  0.80940  1.0000
  C   C278      1.0  0.22176  0.61848  0.55706  1.0000
  H   H312      1.0  0.14761  0.55356  0.68373  1.0000
  Fe  Fe36      1.0  0.21213  0.51150  0.54484  1.0000
  C   C279      1.0  0.21683  0.58519  0.55700  1.0000
  H   H313      1.0  0.11064  0.59379  0.69026  1.0000
  H   H314      1.0  0.11205  0.61516  0.65541  1.0000
  C   C280      1.0  0.01090  0.49490  0.72859  1.0000
  C   C281      1.0  0.01247  0.64459  0.78931  1.0000
  C   C282      1.0  0.07918  0.34161  0.96238  1.0000
  H   H315      1.0  0.12955  0.63023  0.52907  1.0000
  H   H316      1.0  0.03225  0.50623  0.67432  1.0000
  H   H317      1.0  0.99922  0.52376  0.71199  1.0000
  Fe  Fe37      1.0  0.08812  0.34937  0.87553  1.0000
  N   N17       1.0  0.11745  0.46122  0.82264  1.0000
  C   C283      1.0  0.11759  0.46574  0.84546  1.0000
  C   C284      1.0  0.12853  0.47834  0.80660  1.0000
  C   C285      1.0  0.09793  0.45684  0.81892  1.0000
  C   C286      1.0  0.12486  0.44505  0.81930  1.0000
  C   C287      1.0  0.12680  0.43213  0.83742  1.0000
  C   C288      1.0  0.12910  0.44103  0.79757  1.0000
  C   C289      1.0  0.13316  0.41659  0.83377  1.0000
  C   C290      1.0  0.13558  0.42554  0.79411  1.0000
  C   C291      1.0  0.13766  0.41338  0.81217  1.0000
  H   H318      1.0  0.13180  0.46795  0.84973  1.0000
  H   H319      1.0  0.11323  0.47872  0.84707  1.0000
  H   H320      1.0  0.10756  0.45454  0.85833  1.0000
  H   H321      1.0  0.12676  0.47749  0.78909  1.0000
  H   H322      1.0  0.14366  0.48116  0.80729  1.0000
  H   H323      1.0  0.12402  0.49094  0.80993  1.0000
  H   H324      1.0  0.08920  0.44378  0.83010  1.0000
  H   H325      1.0  0.09142  0.46825  0.82211  1.0000
  H   H326      1.0  0.09701  0.45492  0.80142  1.0000
  H   H327      1.0  0.05815  0.55439  0.75953  1.0000
  H   H328      1.0  0.04196  0.64874  0.87275  1.0000
  S   S73       1.0  0.16642  0.63881  0.62665  1.0000
  H   H329      1.0  0.02076  0.56608  0.79447  1.0000
  C   C292      1.0  0.19651  0.49298  0.63608  1.0000
  H   H330      1.0  0.13784  0.58195  0.61724  1.0000
  H   H331      1.0  0.15892  0.56625  0.62094  1.0000
  H   H332      1.0  0.02086  0.65939  0.78392  1.0000
  N   N18       1.0  0.21037  0.46031  0.59867  1.0000
  H   H333      1.0  0.04884  0.56291  0.80634  1.0000
  C   C293      1.0  0.12330  0.57524  0.67370  1.0000
  C   C294      1.0  0.12494  0.59949  0.63435  1.0000
  H   H334      1.0  0.12240  0.56669  0.68959  1.0000
  H   H335      1.0  0.12614  0.60934  0.61924  1.0000
  C   C295      1.0  0.03512  0.37539  0.80850  1.0000
  H   H336      1.0  0.15742  0.35971  0.98479  1.0000
  C   C296      1.0  0.21358  0.50574  0.63574  1.0000
  C   C297      1.0  0.17011  0.66203  0.49669  1.0000
  H   H337      1.0  0.22035  0.57392  0.54970  1.0000
  C   C298      1.0  0.99969  0.35786  0.80106  1.0000
  H   H338      1.0  0.16730  0.57178  0.64588  1.0000
  H   H339      1.0  0.12693  0.54829  0.62270  1.0000
  H   H340      1.0  0.06155  0.35798  0.81831  1.0000
  H   H341      1.0  0.24211  0.48887  0.60197  1.0000
  H   H342      1.0  0.07123  0.37297  0.76361  1.0000
  H   H343      1.0  0.22728  0.44670  0.57898  1.0000
  S   S74       1.0  0.20884  0.53933  0.53031  1.0000
  C   C299      1.0  0.12877  0.65680  0.67951  1.0000
  C   C300      1.0  0.13148  0.57140  0.65315  1.0000
  C   C301      1.0  0.13192  0.58394  0.63347  1.0000
  C   C302      1.0  0.15813  0.56074  0.63885  1.0000
  H   H344      1.0  0.16448  0.54882  0.63878  1.0000
  N   N19       1.0  0.13877  0.55489  0.65173  1.0000
  C   C303      1.0  0.12674  0.54189  0.64016  1.0000
  H   H345      1.0  0.05902  0.52531  0.77360  1.0000
  H   H346      1.0  0.21424  0.51726  0.64481  1.0000
  C   C304      1.0  0.15301  0.60537  0.49945  1.0000
  S   S75       1.0  0.10428  0.34069  0.90151  1.0000
  H   H347      1.0  0.01964  0.63556  0.78060  1.0000
  S   S76       1.0  0.23136  0.64179  0.54366  1.0000
  C   C305      1.0  0.99887  0.40698  0.70179  1.0000
  C   C306      1.0  0.16172  0.59773  0.51611  1.0000
  C   C307      1.0  0.08486  0.35405  0.97687  1.0000
  H   H348      1.0  0.18183  0.46931  0.62408  1.0000
  C   C308      1.0  0.21180  0.47592  0.61137  1.0000
  C   C309      1.0  0.13801  0.62081  0.52566  1.0000
  C   C310      1.0  0.01150  0.51273  0.78802  1.0000
  C   C311      1.0  0.02540  0.35754  0.73910  1.0000
  H   H349      1.0  0.14268  0.65493  0.87622  1.0000
  S   S77       1.0  0.23828  0.50216  0.53919  1.0000
  H   H350      1.0  0.04756  0.57206  0.76617  1.0000
  C   C312      1.0  0.01714  0.55103  0.79283  1.0000
  N   N20       1.0  0.22220  0.34147  0.96535  1.0000
  C   C313      1.0  0.20408  0.34569  0.97106  1.0000
  H   H351      1.0  0.03463  0.39799  0.78311  1.0000
  H   H352      1.0  0.13165  0.33484  0.97171  1.0000
  H   H353      1.0  0.99912  0.64288  0.78287  1.0000
  H   H354      1.0  0.03614  0.55483  0.75130  1.0000
  C   C314      1.0  0.02702  0.38430  0.79271  1.0000
  C   C315      1.0  0.04581  0.54812  0.80362  1.0000
  C   C316      1.0  0.00129  0.42900  0.72748  1.0000
  C   C317      1.0  0.15770  0.60188  0.53785  1.0000
  C   C318      1.0  0.16799  0.56782  0.52642  1.0000
  C   C319      1.0  0.21294  0.66162  0.64462  1.0000
  H   H355      1.0  0.05957  0.54540  0.79902  1.0000
  H   H356      1.0  0.99858  0.58709  0.77842  1.0000
  H   H357      1.0  0.02627  0.36566  0.86252  1.0000
  H   H358      1.0  0.23327  0.36459  0.93770  1.0000
  C   C320      1.0  0.22901  0.48922  0.61139  1.0000
  H   H359      1.0  0.18387  0.49461  0.64542  1.0000
  C   C321      1.0  0.03879  0.36189  0.85485  1.0000
  H   H360      1.0  0.03881  0.53889  0.81985  1.0000
  H   H361      1.0  0.23769  0.36999  0.96443  1.0000
  N   N21       1.0  0.00852  0.35207  0.72896  1.0000
  H   H362      1.0  0.02468  0.35145  0.69740  1.0000
  C   C322      1.0  0.04265  0.64785  0.85521  1.0000
  H   H363      1.0  0.14699  0.65422  0.91092  1.0000
  H   H364      1.0  0.10676  0.65880  0.85280  1.0000
  H   H365      1.0  0.17691  0.55849  0.52233  1.0000
  H   H366      1.0  0.19824  0.65447  0.64723  1.0000
  H   H367      1.0  0.00791  0.54952  0.78011  1.0000
  C   C323      1.0  0.19340  0.59592  0.51568  1.0000
  H   H368      1.0  0.24305  0.51398  0.62292  1.0000
  H   H369      1.0  0.12076  0.66589  0.90166  1.0000
  H   H370      1.0  0.21965  0.63582  0.64067  1.0000
  H   H371      1.0  0.15059  0.65695  0.83602  1.0000
  H   H372      1.0  0.04840  0.33467  0.81729  1.0000
  C   C324      1.0  0.13386  0.66711  0.65771  1.0000
  H   H373      1.0  0.13531  0.62288  0.49118  1.0000
  C   C325      1.0  0.15073  0.76390  0.16620  1.0000
  C   C326      1.0  0.01507  0.70590  0.07388  1.0000
  C   C327      1.0  0.00840  0.68222  0.03096  1.0000
  H   H374      1.0  0.22687  0.89089  0.00633  1.0000
  H   H375      1.0  0.11072  0.75508  0.01065  1.0000
  S   S78       1.0  0.20801  0.87173  0.10422  1.0000
  H   H376      1.0  0.19926  0.71787  0.44100  1.0000
  N   N22       1.0  0.21228  0.71547  0.47014  1.0000
  Fe  Fe38      1.0  0.12981  0.77838  0.08123  1.0000
  S   S79       1.0  0.14953  0.76105  0.07508  1.0000
  S   S80       1.0  0.13820  0.80736  0.09090  1.0000
  Fe  Fe39      1.0  0.09639  0.74753  0.07159  1.0000
  S   S81       1.0  0.11438  0.72823  0.06524  1.0000
  S   S82       1.0  0.06722  0.74204  0.06256  1.0000
  Fe  Fe40      1.0  0.12618  0.73705  0.09527  1.0000
  S   S83       1.0  0.13337  0.72183  0.12574  1.0000
  Fe  Fe41      1.0  0.13569  0.75424  0.04596  1.0000
  S   S84       1.0  0.15237  0.76014  0.01108  1.0000
  S   S85       1.0  0.10681  0.75478  0.10285  1.0000
  S   S86       1.0  0.11731  0.77317  0.05074  1.0000
  H   H377      1.0  0.13102  0.72130  0.01539  1.0000
  C   C328      1.0  0.04761  0.72253  0.07389  1.0000
  C   C329      1.0  0.03102  0.72105  0.06525  1.0000
  C   C330      1.0  0.03214  0.69345  0.09981  1.0000
  C   C331      1.0  0.04810  0.70859  0.09119  1.0000
  H   H378      1.0  0.03038  0.73188  0.05211  1.0000
  H   H379      1.0  0.06070  0.70959  0.09812  1.0000
  C   C332      1.0  0.13338  0.72792  0.99809  1.0000
  C   C333      1.0  0.12800  0.68982  0.15569  1.0000
  C   C334      1.0  0.12501  0.69743  0.13483  1.0000
  C   C335      1.0  0.11597  0.68552  0.12166  1.0000
  C   C336      1.0  0.01555  0.69196  0.09119  1.0000
  H   H380      1.0  0.13503  0.69895  0.16592  1.0000
  H   H381      1.0  0.11368  0.69127  0.10552  1.0000
  C   C337      1.0  0.18973  0.85237  0.10094  1.0000
  C   C338      1.0  0.19242  0.83604  0.09365  1.0000
  C   C339      1.0  0.17692  0.82174  0.09070  1.0000
  C   C340      1.0  0.15872  0.82382  0.09487  1.0000
  C   C341      1.0  0.15630  0.84005  0.10225  1.0000
  C   C342      1.0  0.17155  0.85407  0.10528  1.0000
  H   H382      1.0  0.20634  0.83435  0.09044  1.0000
  H   H383      1.0  0.17912  0.80938  0.08480  1.0000
  H   H384      1.0  0.14244  0.84191  0.10554  1.0000
  H   H385      1.0  0.16919  0.86651  0.11086  1.0000
  H   H386      1.0  0.00299  0.67254  0.99235  1.0000
  H   H387      1.0  0.14252  0.74941  0.16548  1.0000
  H   H388      1.0  0.21107  0.73980  0.44803  1.0000
  C   C343      1.0  0.22817  0.72625  0.47906  1.0000
  H   H389      1.0  0.15963  0.76289  0.17909  1.0000
  H   H390      1.0  0.03261  0.68288  0.11338  1.0000
  H   H391      1.0  0.20138  0.78886  0.13644  1.0000
  H   H392      1.0  0.20568  0.80636  0.01393  1.0000
  Fe  Fe42      1.0  0.20127  0.68095  0.37538  1.0000
  H   H393      1.0  0.16201  0.66950  0.32121  1.0000
  H   H394      1.0  0.00225  0.70525  0.06755  1.0000
  C   C344      1.0  0.21459  0.69665  0.46825  1.0000
  H   H395      1.0  0.23913  0.69089  0.35202  1.0000
  H   H396      1.0  0.20164  0.84324  0.14945  1.0000
  H   H397      1.0  0.22560  0.69028  0.40919  1.0000
  H   H398      1.0  0.22340  0.85878  0.05958  1.0000
  S   S87       1.0  0.21537  0.71169  0.37236  1.0000
  H   H399      1.0  0.09270  0.70583  0.02515  1.0000
  C   C345      1.0  0.05784  0.74391  0.99899  1.0000
  C   C346      1.0  0.23633  0.70330  0.40360  1.0000
  H   H400      1.0  0.15923  0.67480  0.28124  1.0000
  H   H401      1.0  0.17326  0.84940  0.04590  1.0000
  C   C347      1.0  0.21888  0.87606  0.00731  1.0000
  H   H402      1.0  0.11958  0.67988  0.31814  1.0000
  H   H403      1.0  0.15131  0.66885  0.47557  1.0000
  C   C348      1.0  0.09759  0.74886  0.00476  1.0000
  C   C349      1.0  0.08748  0.77687  0.00541  1.0000
  C   C350      1.0  0.07389  0.69970  0.00202  1.0000
  H   H404      1.0  0.24452  0.71321  0.33457  1.0000
  H   H405      1.0  0.01259  0.69775  0.02829  1.0000
  H   H406      1.0  0.15592  0.81806  0.04362  1.0000
  H   H407      1.0  0.08723  0.74149  0.01998  1.0000
  H   H408      1.0  0.10035  0.78469  0.01069  1.0000
  N   N23       1.0  0.16222  0.77345  0.14417  1.0000
  C   C351      1.0  0.17376  0.76123  0.13663  1.0000
  C   C352      1.0  0.14959  0.77497  0.12796  1.0000
  C   C353      1.0  0.17334  0.79238  0.14590  1.0000
  C   C354      1.0  0.16428  0.80591  0.15210  1.0000
  C   C355      1.0  0.19320  0.79803  0.14146  1.0000
  C   C356      1.0  0.17442  0.82395  0.15353  1.0000
  C   C357      1.0  0.20320  0.81612  0.14302  1.0000
  C   C358      1.0  0.19383  0.82905  0.14900  1.0000
  H   H409      1.0  0.18308  0.75870  0.14854  1.0000
  H   H410      1.0  0.16496  0.74718  0.13532  1.0000
  H   H411      1.0  0.18223  0.76727  0.11970  1.0000
  H   H412      1.0  0.14043  0.77133  0.17209  1.0000
  H   H413      1.0  0.15763  0.78252  0.11133  1.0000
  H   H414      1.0  0.14134  0.76099  0.12580  1.0000
  H   H415      1.0  0.13923  0.78257  0.13306  1.0000
  H   H416      1.0  0.14924  0.80277  0.15542  1.0000
  H   H417      1.0  0.16721  0.83425  0.15752  1.0000
  H   H418      1.0  0.21832  0.82034  0.13911  1.0000
  C   C359      1.0  0.14361  0.74670  0.99157  1.0000
  N   N24       1.0  0.21183  0.86640  0.03069  1.0000
  H   H419      1.0  0.18215  0.70493  0.47721  1.0000
  C   C360      1.0  0.20115  0.87780  0.04199  1.0000
  C   C361      1.0  0.07844  0.69979  0.02323  1.0000
  C   C362      1.0  0.20066  0.84707  0.03072  1.0000
  C   C363      1.0  0.18105  0.84078  0.03843  1.0000
  C   C364      1.0  0.20922  0.83417  0.02164  1.0000
  C   C365      1.0  0.17082  0.82268  0.03725  1.0000
  H   H420      1.0  0.22401  0.83804  0.01510  1.0000
  H   H421      1.0  0.06821  0.69228  0.05854  1.0000
  H   H422      1.0  0.17168  0.79623  0.02787  1.0000
  H   H423      1.0  0.08159  0.78725  0.99635  1.0000
  Fe  Fe43      1.0  0.23954  0.88522  0.09967  1.0000
  H   H424      1.0  0.18966  0.88003  0.03331  1.0000
  H   H425      1.0  0.20728  0.87610  0.99792  1.0000
  H   H426      1.0  0.19514  0.87116  0.05960  1.0000
  H   H427      1.0  0.23796  0.85949  0.03346  1.0000
  C   C366      1.0  0.24649  0.73151  0.46634  1.0000
  C   C367      1.0  0.22802  0.86616  0.04198  1.0000
  C   C368      1.0  0.19886  0.81606  0.02070  1.0000
  C   C369      1.0  0.04625  0.68406  0.03975  1.0000
  H   H428      1.0  0.05772  0.74253  0.01678  1.0000
  H   H429      1.0  0.20295  0.68812  0.46146  1.0000
  C   C370      1.0  0.17969  0.81032  0.02851  1.0000
  C   C371      1.0  0.01790  0.67859  0.99328  1.0000
  H   H430      1.0  0.22849  0.86931  0.99831  1.0000
  N   N25       1.0  0.02152  0.67508  0.01643  1.0000
  C   C372      1.0  0.04136  0.73541  0.99199  1.0000
  C   C373      1.0  0.06464  0.69206  0.04203  1.0000
  C   C374      1.0  0.05549  0.69194  0.99953  1.0000
  H   H431      1.0  0.22392  0.72572  0.43496  1.0000
  C   C375      1.0  0.23448  0.71651  0.38633  1.0000
  H   H432      1.0  0.22770  0.69737  0.45697  1.0000
  H   H433      1.0  0.00740  0.67694  0.04901  1.0000
  H   H434      1.0  0.07742  0.76998  0.02111  1.0000
  H   H435      1.0  0.21018  0.89193  0.04259  1.0000
  C   C376      1.0  0.24417  0.69828  0.33449  1.0000
  C   C377      1.0  0.21164  0.72516  0.44763  1.0000
  C   C378      1.0  0.04104  0.68391  0.01843  1.0000
  H   H436      1.0  0.23647  0.88056  0.04233  1.0000
  H   H437      1.0  0.02904  0.72805  0.00428  1.0000
  C   C379      1.0  0.12211  0.67042  0.16337  1.0000
  H   H438      1.0  0.10023  0.73819  0.99479  1.0000
  C   C380      1.0  0.19388  0.71289  0.48438  1.0000
  H   H439      1.0  0.03614  0.67798  0.05490  1.0000
  N   N26       1.0  0.09133  0.76323  0.99128  1.0000
  H   H440      1.0  0.23342  0.69240  0.32468  1.0000
  H   H441      1.0  0.21483  0.68875  0.48483  1.0000
  H   H442      1.0  0.19119  0.72654  0.48651  1.0000
  C   C381      1.0  0.10689  0.66857  0.32395  1.0000
  S   S88       1.0  0.19385  0.66776  0.34582  1.0000
  H   H443      1.0  0.24674  0.74401  0.36664  1.0000
  Fe  Fe44      1.0  0.20707  0.69405  0.56877  1.0000
  S   S89       1.0  0.17576  0.68382  0.57667  1.0000
  C   C382      1.0  0.03827  0.70053  0.77743  1.0000
  H   H444      1.0  0.23969  0.74580  0.52454  1.0000
  C   C383      1.0  0.16238  0.68672  0.82938  1.0000
  S   S90       1.0  0.23231  0.85274  0.84717  1.0000
  C   C384      1.0  0.15377  0.68482  0.87627  1.0000
  Fe  Fe45      1.0  0.09144  0.74523  0.88411  1.0000
  S   S91       1.0  0.10105  0.71929  0.88473  1.0000
  S   S92       1.0  0.06056  0.74408  0.88671  1.0000
  Fe  Fe46      1.0  0.13213  0.77098  0.88056  1.0000
  S   S93       1.0  0.14416  0.74635  0.88074  1.0000
  S   S94       1.0  0.14831  0.80094  0.88301  1.0000
  Fe  Fe47      1.0  0.12436  0.73658  0.85759  1.0000
  S   S95       1.0  0.13190  0.72656  0.82527  1.0000
  Fe  Fe48      1.0  0.11956  0.73147  0.90786  1.0000
  S   S96       1.0  0.12030  0.71326  0.93988  1.0000
  S   S97       1.0  0.11385  0.76226  0.85538  1.0000
  S   S98       1.0  0.10845  0.75633  0.90924  1.0000
  C   C385      1.0  0.04258  0.72425  0.88431  1.0000
  C   C386      1.0  0.02437  0.72585  0.88401  1.0000
  C   C387      1.0  0.01008  0.71075  0.88060  1.0000
  C   C388      1.0  0.14980  0.66852  0.86637  1.0000
  C   C389      1.0  0.03203  0.69220  0.87815  1.0000
  C   C390      1.0  0.04621  0.70718  0.88184  1.0000
  H   H445      1.0  0.02138  0.73899  0.88594  1.0000
  H   H446      1.0  0.20340  0.84294  0.95165  1.0000
  H   H447      1.0  0.17222  0.70566  0.90370  1.0000
  H   H448      1.0  0.06004  0.70562  0.88234  1.0000
  C   C391      1.0  0.12654  0.71758  0.98207  1.0000
  H   H449      1.0  0.13143  0.70906  0.78657  1.0000
  C   C392      1.0  0.15424  0.66951  0.84330  1.0000
  C   C393      1.0  0.12416  0.70283  0.82248  1.0000
  C   C394      1.0  0.11680  0.68861  0.84109  1.0000
  C   C395      1.0  0.05641  0.74642  0.95356  1.0000
  S   S99       1.0  0.16202  0.67278  0.51822  1.0000
  H   H450      1.0  0.16988  0.67021  0.90737  1.0000
  H   H451      1.0  0.11565  0.69205  0.85764  1.0000
  H   H452      1.0  0.10429  0.73048  0.79992  1.0000
  C   C396      1.0  0.12947  0.72614  0.95964  1.0000
  H   H453      1.0  0.10379  0.78505  0.96255  1.0000
  H   H454      1.0  0.12323  0.67801  0.92488  1.0000
  N   N27       1.0  0.14850  0.68351  0.90070  1.0000
  C   C397      1.0  0.14690  0.75509  0.96906  1.0000
  C   C398      1.0  0.13963  0.74493  0.95318  1.0000
  S   S100      1.0  0.24503  0.90151  0.87379  1.0000
  H   H455      1.0  0.15490  0.76958  0.96391  1.0000
  H   H456      1.0  0.14208  0.75161  0.93589  1.0000
  C   C399      1.0  0.20903  0.83836  0.85800  1.0000
  C   C400      1.0  0.19580  0.84460  0.87097  1.0000
  C   C401      1.0  0.17743  0.83291  0.87857  1.0000
  C   C402      1.0  0.17191  0.81483  0.87331  1.0000
  C   C403      1.0  0.18517  0.80856  0.86041  1.0000
  C   C404      1.0  0.20353  0.82027  0.85276  1.0000
  H   H457      1.0  0.19952  0.85862  0.87462  1.0000
  H   H458      1.0  0.16728  0.83803  0.88830  1.0000
  H   H459      1.0  0.18120  0.79476  0.85612  1.0000
  H   H460      1.0  0.21348  0.81524  0.84264  1.0000
  H   H461      1.0  0.15349  0.69940  0.92730  1.0000
  H   H462      1.0  0.22594  0.71806  0.62580  1.0000
  H   H463      1.0  0.20198  0.71780  0.62958  1.0000
  C   C405      1.0  0.10712  0.77340  0.97293  1.0000
  N   N28       1.0  0.22207  0.86433  0.92567  1.0000
  H   H464      1.0  0.20308  0.88103  0.93239  1.0000
  C   C406      1.0  0.20648  0.87197  0.92041  1.0000
  H   H465      1.0  0.11103  0.76382  0.96192  1.0000
  H   H466      1.0  0.02786  0.73015  0.96384  1.0000
  H   H467      1.0  0.24153  0.69936  0.58906  1.0000
  H   H468      1.0  0.19344  0.86063  0.92134  1.0000
  H   H469      1.0  0.20979  0.88020  0.90319  1.0000
  C   C407      1.0  0.21680  0.85411  0.94900  1.0000
  C   C408      1.0  0.07290  0.75519  0.96039  1.0000
  C   C409      1.0  0.24154  0.74180  0.50821  1.0000
  H   H470      1.0  0.22892  0.90502  0.91844  1.0000
  C   C410      1.0  0.01393  0.69390  0.87728  1.0000
  C   C411      1.0  0.02178  0.69944  0.79166  1.0000
  C   C412      1.0  0.07518  0.73586  0.82320  1.0000
  H   H471      1.0  0.14889  0.66949  0.62434  1.0000
  H   H472      1.0  0.20745  0.69050  0.68293  1.0000
  H   H473      1.0  0.08925  0.74222  0.82684  1.0000
  S   S101      1.0  0.22206  0.72405  0.56870  1.0000
  H   H474      1.0  0.22836  0.85798  0.89294  1.0000
  C   C413      1.0  0.15677  0.70104  0.90876  1.0000
  C   C414      1.0  0.12572  0.69813  0.80106  1.0000
  C   C415      1.0  0.16183  0.70220  0.86153  1.0000
  H   H475      1.0  0.03926  0.71422  0.83579  1.0000
  C   C416      1.0  0.11174  0.66979  0.83830  1.0000
  H   H476      1.0  0.17801  0.69290  0.65264  1.0000
  H   H477      1.0  0.24628  0.67836  0.50891  1.0000
  C   C417      1.0  0.18714  0.68342  0.65041  1.0000
  N   N29       1.0  0.20723  0.69339  0.64773  1.0000
  C   C418      1.0  0.05671  0.71249  0.80506  1.0000
  H   H478      1.0  0.12876  0.67917  0.65356  1.0000
  H   H479      1.0  0.16456  0.71545  0.86726  1.0000
  C   C419      1.0  0.21971  0.68116  0.64440  1.0000
  C   C420      1.0  0.16610  0.70302  0.83846  1.0000
  H   H480      1.0  0.22757  0.84735  0.95386  1.0000
  H   H481      1.0  0.06573  0.73265  0.83965  1.0000
  H   H482      1.0  0.03518  0.67929  0.87555  1.0000
  H   H483      1.0  0.21082  0.83979  0.91178  1.0000
  H   H484      1.0  0.05584  0.74739  0.93586  1.0000
  H   H485      1.0  0.24333  0.82452  0.81335  1.0000
  H   H486      1.0  0.00961  0.70317  0.82399  1.0000
  S   S102      1.0  0.21162  0.66858  0.58825  1.0000
  H   H487      1.0  0.07838  0.69162  0.82164  1.0000
  C   C421      1.0  0.07413  0.75415  0.98340  1.0000
  H   H488      1.0  0.21294  0.72785  0.51175  1.0000
  H   H489      1.0  0.21016  0.70288  0.61257  1.0000
  H   H490      1.0  0.18247  0.67204  0.66531  1.0000
  C   C422      1.0  0.07692  0.70395  0.82929  1.0000
  H   H491      1.0  0.07133  0.74683  0.81226  1.0000
  H   H492      1.0  0.21523  0.86385  0.96083  1.0000
  C   C423      1.0  0.23988  0.87896  0.92324  1.0000
  S   S103      1.0  0.20978  0.68390  0.53619  1.0000
  C   C424      1.0  0.24100  0.89996  0.91988  1.0000
  C   C425      1.0  0.22413  0.85081  0.91063  1.0000
  C   C426      1.0  0.21156  0.70869  0.62818  1.0000
  C   C427      1.0  0.02245  0.70437  0.81264  1.0000
  S   S104      1.0  0.99778  0.67561  0.86878  1.0000
  H   H493      1.0  0.12278  0.69047  0.89810  1.0000
  C   C428      1.0  0.09109  0.72421  0.79418  1.0000
  H   H494      1.0  0.12180  0.67585  0.78168  1.0000
  H   H495      1.0  0.20041  0.71046  0.67148  1.0000
  H   H496      1.0  0.15093  0.71258  0.90259  1.0000
  H   H497      1.0  0.08442  0.76279  0.94727  1.0000
  H   H498      1.0  0.06772  0.70698  0.77234  1.0000
  C   C429      1.0  0.05552  0.70675  0.78402  1.0000
  C   C430      1.0  0.12793  0.67919  0.90660  1.0000
  C   C431      1.0  0.24455  0.72811  0.57528  1.0000
  H   H499      1.0  0.22444  0.71080  0.66648  1.0000
  C   C432      1.0  0.04066  0.73663  0.96931  1.0000
  H   H500      1.0  0.23463  0.84335  0.91443  1.0000
  H   H501      1.0  0.06473  0.69891  0.84314  1.0000
  H   H502      1.0  0.16510  0.68750  0.81144  1.0000
  H   H503      1.0  0.00843  0.69464  0.78654  1.0000
  C   C433      1.0  0.22618  0.73148  0.50051  1.0000
  H   H504      1.0  0.08946  0.70882  0.83691  1.0000
  N   N30       1.0  0.07471  0.71906  0.81262  1.0000
  C   C434      1.0  0.03960  0.71076  0.81928  1.0000
  H   H505      1.0  0.09343  0.71181  0.78734  1.0000
  H   H506      1.0  0.08962  0.73471  0.78044  1.0000
  H   H507      1.0  0.03773  0.69653  0.76116  1.0000
  H   H508      1.0  0.11995  0.77967  0.97945  1.0000
  C   C435      1.0  0.12024  0.67934  0.79824  1.0000
  C   C436      1.0  0.21004  0.70166  0.66801  1.0000
  C   C437      1.0  0.23938  0.68875  0.64081  1.0000
  H   H509      1.0  0.11888  0.70299  0.98710  1.0000
  H   H510      1.0  0.17161  0.71647  0.82745  1.0000
  Fe  Fe49      1.0  0.17891  0.67149  0.54543  1.0000
  H   H511      1.0  0.08468  0.70560  0.98734  1.0000
  H   H512      1.0  0.18411  0.67727  0.63536  1.0000
  H   H513      1.0  0.02129  0.69382  0.98668  1.0000
  H   H514      1.0  0.05304  0.69237  0.98260  1.0000
  H   H515      1.0  0.24560  0.70347  0.64043  1.0000
  H   H516      1.0  0.02583  0.67189  0.98178  1.0000
  H   H517      1.0  0.19278  0.70459  0.50116  1.0000
  H   H518      1.0  0.15236  0.66824  0.93135  1.0000
  C   C438      1.0  0.15472  0.66839  0.91300  1.0000
  C   C439      1.0  0.33368  0.25192  0.00288  1.0000
  Fe  Fe50      1.0  0.36136  0.04843  0.07394  1.0000
  S   S105      1.0  0.38753  0.05562  0.04799  1.0000
  S   S106      1.0  0.35039  0.01664  0.08422  1.0000
  Fe  Fe51      1.0  0.36631  0.09036  0.07728  1.0000
  S   S107      1.0  0.39262  0.09943  0.05197  1.0000
  S   S108      1.0  0.35635  0.11270  0.09355  1.0000
  Fe  Fe52      1.0  0.37716  0.07906  0.03295  1.0000
  C   C440      1.0  0.48683  0.26502  0.09920  1.0000
  Fe  Fe53      1.0  0.40016  0.07510  0.06995  1.0000
  S   S109      1.0  0.42984  0.07907  0.07599  1.0000
  S   S110      1.0  0.35011  0.07090  0.05731  1.0000
  S   S111      1.0  0.37472  0.06692  0.09673  1.0000
  C   C441      1.0  0.39504  0.01309  0.13421  1.0000
  H   H519      1.0  0.25443  0.28761  0.10408  1.0000
  C   C442      1.0  0.43074  0.04874  0.26157  1.0000
  Fe  Fe54      1.0  0.48442  0.03956  0.22172  1.0000
  S   S112      1.0  0.48818  0.04183  0.18463  1.0000
  C   C443      1.0  0.49182  0.24849  0.34522  1.0000
  Fe  Fe55      1.0  0.47370  0.06456  0.18534  1.0000
  S   S113      1.0  0.44606  0.06398  0.17442  1.0000
  H   H520      1.0  0.41805  0.13569  0.07040  1.0000
  S   S114      1.0  0.46833  0.06079  0.22271  1.0000
  H   H521      1.0  0.49328  0.27909  0.10300  1.0000
  C   C444      1.0  0.45683  0.24128  0.10032  1.0000
  N   N31       1.0  0.41913  0.12685  0.10505  1.0000
  H   H522      1.0  0.31388  0.26414  0.14415  1.0000
  Fe  Fe56      1.0  0.36375  0.25196  0.07581  1.0000
  S   S115      1.0  0.38676  0.27845  0.07105  1.0000
  S   S116      1.0  0.33424  0.25379  0.07522  1.0000
  Fe  Fe57      1.0  0.39081  0.22743  0.07029  1.0000
  S   S117      1.0  0.41588  0.25271  0.06463  1.0000
  S   S118      1.0  0.39772  0.20015  0.06461  1.0000
  Fe  Fe58      1.0  0.40048  0.26196  0.09327  1.0000
  S   S119      1.0  0.41195  0.27132  0.12383  1.0000
  Fe  Fe59      1.0  0.39986  0.26690  0.04304  1.0000
  S   S120      1.0  0.40884  0.28516  0.00899  1.0000
  S   S121      1.0  0.37622  0.23573  0.10030  1.0000
  S   S122      1.0  0.37614  0.24136  0.04655  1.0000
  H   H523      1.0  0.46756  0.26022  0.32236  1.0000
  C   C445      1.0  0.45513  0.11217  0.14927  1.0000
  H   H524      1.0  0.44031  0.14432  0.07797  1.0000
  C   C446      1.0  0.38329  0.32308  0.01947  1.0000
  H   H525      1.0  0.27493  0.30461  0.10726  1.0000
  C   C447      1.0  0.27281  0.27284  0.13387  1.0000
  H   H526      1.0  0.43049  0.19322  0.08621  1.0000
  N   N32       1.0  0.26092  0.28561  0.13745  1.0000
  H   H527      1.0  0.40389  0.14749  0.10002  1.0000
  N   N33       1.0  0.45280  0.04730  0.28940  1.0000
  C   C448      1.0  0.45726  0.06807  0.28548  1.0000
  C   C449      1.0  0.26754  0.29913  0.15216  1.0000
  C   C450      1.0  0.28973  0.27444  0.14226  1.0000
  H   H528      1.0  0.43151  0.04336  0.31815  1.0000
  H   H529      1.0  0.26819  0.29185  0.16891  1.0000
  H   H530      1.0  0.46415  0.25133  0.13933  1.0000
  C   C451      1.0  0.42788  0.21685  0.10126  1.0000
  H   H531      1.0  0.40838  0.24670  0.00698  1.0000
  C   C452      1.0  0.47059  0.04232  0.28391  1.0000
  C   C453      1.0  0.42957  0.29123  0.12679  1.0000
  C   C454      1.0  0.43934  0.30526  0.10870  1.0000
  C   C455      1.0  0.45436  0.31984  0.11159  1.0000
  C   C456      1.0  0.45964  0.32072  0.13261  1.0000
  C   C457      1.0  0.44951  0.30698  0.15081  1.0000
  C   C458      1.0  0.43457  0.29236  0.14790  1.0000
  H   H532      1.0  0.43559  0.30468  0.09238  1.0000
  H   H533      1.0  0.35355  0.32343  0.05567  1.0000
  H   H534      1.0  0.45342  0.30741  0.16707  1.0000
  H   H535      1.0  0.42710  0.28162  0.16204  1.0000
  C   C459      1.0  0.32008  0.30502  0.09796  1.0000
  C   C460      1.0  0.33509  0.29914  0.10457  1.0000
  C   C461      1.0  0.33982  0.28377  0.09713  1.0000
  C   C462      1.0  0.32930  0.27392  0.08335  1.0000
  C   C463      1.0  0.31447  0.27999  0.07632  1.0000
  C   C464      1.0  0.30998  0.29566  0.08341  1.0000
  H   H536      1.0  0.34292  0.30630  0.11586  1.0000
  H   H537      1.0  0.35118  0.27913  0.10274  1.0000
  H   H538      1.0  0.30629  0.27241  0.06564  1.0000
  H   H539      1.0  0.29848  0.30017  0.07806  1.0000
  C   C465      1.0  0.43396  0.01864  0.27753  1.0000
  C   C466      1.0  0.34939  0.02800  0.01972  1.0000
  C   C467      1.0  0.46033  0.27421  0.08930  1.0000
  C   C468      1.0  0.30075  0.26234  0.13817  1.0000
  H   H540      1.0  0.39410  0.10669  0.12430  1.0000
  C   C469      1.0  0.46180  0.11704  0.12639  1.0000
  C   C470      1.0  0.41277  0.14293  0.11148  1.0000
  C   C471      1.0  0.43696  0.11204  0.15772  1.0000
  H   H541      1.0  0.37750  0.29808  0.99245  1.0000
  C   C472      1.0  0.26056  0.29655  0.11567  1.0000
  C   C473      1.0  0.49118  0.25098  0.38479  1.0000
  H   H542      1.0  0.38345  0.32628  0.03660  1.0000
  H   H543      1.0  0.43392  0.06381  0.25912  1.0000
  H   H544      1.0  0.45195  0.01915  0.21318  1.0000
  C   C474      1.0  0.42145  0.00990  0.26485  1.0000
  C   C475      1.0  0.36706  0.13716  0.08455  1.0000
  C   C476      1.0  0.36110  0.15012  0.09629  1.0000
  C   C477      1.0  0.36986  0.16954  0.09007  1.0000
  C   C478      1.0  0.38487  0.17617  0.07218  1.0000
  C   C479      1.0  0.39077  0.16321  0.06047  1.0000
  C   C480      1.0  0.38180  0.14391  0.06639  1.0000
  H   H545      1.0  0.34967  0.14511  0.11032  1.0000
  H   H546      1.0  0.36519  0.17930  0.09934  1.0000
  H   H547      1.0  0.40229  0.16817  0.04654  1.0000
  H   H548      1.0  0.38632  0.13432  0.05683  1.0000
  C   C481      1.0  0.29545  0.24849  0.12551  1.0000
  C   C482      1.0  0.41848  0.03986  0.24867  1.0000
  H   H549      1.0  0.29514  0.28531  0.15140  1.0000
  H   H550      1.0  0.41946  0.33148  0.14327  1.0000
  H   H551      1.0  0.41290  0.04810  0.23688  1.0000
  H   H552      1.0  0.27288  0.32244  0.99750  1.0000
  H   H553      1.0  0.41135  0.11636  0.15066  1.0000
  H   H554      1.0  0.34822  0.02003  0.03676  1.0000
  C   C483      1.0  0.43418  0.07343  0.10327  1.0000
  C   C484      1.0  0.41970  0.06798  0.12172  1.0000
  C   C485      1.0  0.42361  0.06479  0.14335  1.0000
  C   C486      1.0  0.44200  0.06674  0.14675  1.0000
  C   C487      1.0  0.45649  0.07157  0.12831  1.0000
  C   C488      1.0  0.45258  0.07503  0.10661  1.0000
  H   H555      1.0  0.40549  0.06644  0.11944  1.0000
  H   H556      1.0  0.41235  0.06103  0.15756  1.0000
  H   H557      1.0  0.47070  0.07308  0.13079  1.0000
  H   H558      1.0  0.46385  0.07915  0.09240  1.0000
  H   H559      1.0  0.25214  0.30671  0.11759  1.0000
  C   C489      1.0  0.45032  0.12174  0.11180  1.0000
  C   C490      1.0  0.42789  0.13199  0.08105  1.0000
  H   H560      1.0  0.35534  0.04309  0.02019  1.0000
  H   H561      1.0  0.40407  0.13947  0.12842  1.0000
  C   C491      1.0  0.43175  0.12196  0.11990  1.0000
  C   C492      1.0  0.45726  0.21271  0.08497  1.0000
  S   S123      1.0  0.47586  0.01128  0.24382  1.0000
  H   H562      1.0  0.48558  0.21920  0.34008  1.0000
  H   H563      1.0  0.40998  0.32797  0.18531  1.0000
  H   H564      1.0  0.37968  0.00801  0.10767  1.0000
  H   H565      1.0  0.39446  0.31595  0.01614  1.0000
  C   C493      1.0  0.43789  0.20624  0.09059  1.0000
  C   C494      1.0  0.43713  0.23410  0.10601  1.0000
  C   C495      1.0  0.43918  0.03838  0.27612  1.0000
  H   H566      1.0  0.36071  0.29662  0.05098  1.0000
  H   H567      1.0  0.31174  0.01893  0.08936  1.0000
  C   C496      1.0  0.31905  0.03285  0.02699  1.0000
  C   C497      1.0  0.44522  0.04047  0.31351  1.0000
  H   H568      1.0  0.46707  0.28878  0.09130  1.0000
  H   H569      1.0  0.45480  0.04734  0.32411  1.0000
  H   H570      1.0  0.46746  0.07434  0.29577  1.0000
  H   H571      1.0  0.39312  0.11357  0.09581  1.0000
  H   H572      1.0  0.43167  0.10759  0.17547  1.0000
  H   H573      1.0  0.48303  0.32221  0.30344  1.0000
  H   H574      1.0  0.48173  0.20543  0.37877  1.0000
  H   H575      1.0  0.41276  0.21197  0.10512  1.0000
  H   H576      1.0  0.46373  0.07427  0.26775  1.0000
  H   H577      1.0  0.44502  0.27225  0.09290  1.0000
  C   C498      1.0  0.38441  0.00167  0.12193  1.0000
  S   S124      1.0  0.31384  0.32327  0.10961  1.0000
  H   H578      1.0  0.28158  0.30874  0.14468  1.0000
  C   C499      1.0  0.46062  0.26205  0.12765  1.0000
  H   H579      1.0  0.25816  0.30833  0.15478  1.0000
  C   C500      1.0  0.48455  0.22050  0.37427  1.0000
  C   C501      1.0  0.36684  0.30601  0.99463  1.0000
  C   C502      1.0  0.41389  0.02050  0.25027  1.0000
  H   H580      1.0  0.40478  0.01370  0.23982  1.0000
  H   H581      1.0  0.34531  0.28551  0.03419  1.0000
  C   C503      1.0  0.48223  0.26911  0.31814  1.0000
  H   H582      1.0  0.44310  0.02516  0.31824  1.0000
  N   N34       1.0  0.33101  0.02448  0.01250  1.0000
  H   H583      1.0  0.44467  0.07294  0.28998  1.0000
  H   H584      1.0  0.48559  0.22518  0.40787  1.0000
  C   C504      1.0  0.35067  0.32172  0.02101  1.0000
  H   H585      1.0  0.30262  0.27719  0.01332  1.0000
  C   C505      1.0  0.31197  0.27095  0.00387  1.0000
  C   C506      1.0  0.48691  0.22871  0.35186  1.0000
  H   H586      1.0  0.25547  0.25681  0.11355  1.0000
  C   C507      1.0  0.32326  0.00411  0.01352  1.0000
  C   C508      1.0  0.49601  0.32125  0.29426  1.0000
  C   C509      1.0  0.34074  0.32707  0.00429  1.0000
  H   H587      1.0  0.43203  0.12004  0.07480  1.0000
  N   N35       1.0  0.49552  0.25779  0.32156  1.0000
  H   H588      1.0  0.45617  0.12458  0.09423  1.0000
  N   N36       1.0  0.36485  0.31135  0.01709  1.0000
  H   H589      1.0  0.31947  0.25754  0.03305  1.0000
  C   C510      1.0  0.40113  0.00510  0.15255  1.0000
  C   C511      1.0  0.31195  0.00500  0.08671  1.0000
  H   H590      1.0  0.48478  0.27656  0.30057  1.0000
  H   H591      1.0  0.46381  0.10776  0.16043  1.0000
  H   H592      1.0  0.44545  0.26044  0.13233  1.0000
  H   H593      1.0  0.48340  0.28015  0.32866  1.0000
  C   C512      1.0  0.27904  0.24662  0.11692  1.0000
  H   H594      1.0  0.34066  0.24367  0.01263  1.0000
  N   N37       1.0  0.46612  0.26023  0.10405  1.0000
  H   H595      1.0  0.40950  0.01406  0.16201  1.0000
  H   H596      1.0  0.47572  0.11640  0.11986  1.0000
  C   C513      1.0  0.40263  0.11064  0.10725  1.0000
  C   C514      1.0  0.42542  0.11694  0.14334  1.0000
  S   S125      1.0  0.37655  0.08952  0.99700  1.0000
  C   C515      1.0  0.32154  0.25997  0.01493  1.0000
  H   H597      1.0  0.36923  0.28487  0.03031  1.0000
  H   H598      1.0  0.42483  0.15515  0.11116  1.0000
  C   C516      1.0  0.35981  0.29388  0.03380  1.0000
  H   H599      1.0  0.40692  0.09820  0.10305  1.0000
  H   H600      1.0  0.47649  0.04670  0.26579  1.0000
  H   H601      1.0  0.49210  0.25478  0.10949  1.0000
  H   H602      1.0  0.46893  0.02704  0.28789  1.0000
  H   H603      1.0  0.48130  0.04914  0.29324  1.0000
  H   H604      1.0  0.46495  0.20448  0.07642  1.0000
  H   H605      1.0  0.30441  0.23960  0.12173  1.0000
  H   H606      1.0  0.27523  0.23609  0.10664  1.0000
  H   H607      1.0  0.35351  0.29681  0.99196  1.0000
  H   H608      1.0  0.31753  0.02681  0.04491  1.0000
  C   C517      1.0  0.44749  0.00435  0.21992  1.0000
  H   H609      1.0  0.38782  0.05522  0.99499  1.0000
  H   H610      1.0  0.35986  0.02383  0.00840  1.0000
  C   C518      1.0  0.34671  0.32711  0.04204  1.0000
  H   H611      1.0  0.42856  0.24207  0.11346  1.0000
  C   C519      1.0  0.26785  0.25858  0.12099  1.0000
  C   C520      1.0  0.48684  0.23160  0.39065  1.0000
  H   H612      1.0  0.46759  0.27614  0.13099  1.0000
  H   H613      1.0  0.30497  0.03084  0.02243  1.0000
  H   H614      1.0  0.43989  0.00978  0.28799  1.0000
  H   H615      1.0  0.32519  0.04822  0.02551  1.0000
  S   S126      1.0  0.47416  0.32986  0.20141  1.0000
  H   H616      1.0  0.39866  0.02819  0.12941  1.0000
  H   H617      1.0  0.47934  0.23500  0.30841  1.0000
  H   H618      1.0  0.34980  0.22358  0.99175  1.0000
  H   H619      1.0  0.48753  0.32528  0.26217  1.0000
  C   C521      1.0  0.49354  0.25935  0.36246  1.0000
  H   H620      1.0  0.48164  0.23425  0.08451  1.0000
  H   H621      1.0  0.46206  0.33044  0.09741  1.0000
  C   C522      1.0  0.46669  0.22996  0.08971  1.0000
  H   H622      1.0  0.46393  0.27314  0.07142  1.0000
  C   C523      1.0  0.49372  0.24453  0.30555  1.0000
  H   H623      1.0  0.49313  0.25961  0.39754  1.0000
  Fe  Fe60      1.0  0.49583  0.08192  0.21919  1.0000
  H   H624      1.0  0.49673  0.14005  0.47295  1.0000
  H   H625      1.0  0.49219  0.26565  0.08122  1.0000
  H   H626      1.0  0.49667  0.25201  0.28795  1.0000
  C   C524      1.0  0.40839  0.25371  0.99039  1.0000
  C   C525      1.0  0.37047  0.06920  0.94022  1.0000
  Fe  Fe61      1.0  0.34553  0.04992  0.85579  1.0000
  S   S127      1.0  0.37284  0.04336  0.85836  1.0000
  S   S128      1.0  0.32065  0.03371  0.84226  1.0000
  Fe  Fe62      1.0  0.35803  0.08812  0.87161  1.0000
  S   S129      1.0  0.38589  0.08402  0.87570  1.0000
  S   S130      1.0  0.34792  0.11233  0.88295  1.0000
  Fe  Fe63      1.0  0.38616  0.07356  0.84306  1.0000
  S   S131      1.0  0.41291  0.08556  0.81776  1.0000
  Fe  Fe64      1.0  0.37038  0.05432  0.89070  1.0000
  S   S132      1.0  0.37780  0.04017  0.92156  1.0000
  S   S133      1.0  0.35918  0.07969  0.83779  1.0000
  S   S134      1.0  0.34223  0.05887  0.88932  1.0000
  H   H627      1.0  0.30889  0.08799  0.80863  1.0000
  C   C526      1.0  0.46773  0.08559  0.72842  1.0000
  Fe  Fe65      1.0  0.48021  0.04295  0.74327  1.0000
  S   S135      1.0  0.48038  0.04542  0.70636  1.0000
  S   S136      1.0  0.45271  0.03371  0.76755  1.0000
  H   H628      1.0  0.43625  0.11674  0.73003  1.0000
  H   H629      1.0  0.40969  0.14481  0.96922  1.0000
  H   H630      1.0  0.36823  0.24517  0.98816  1.0000
  H   H631      1.0  0.43212  0.31847  0.78210  1.0000
  H   H632      1.0  0.28591  0.05450  0.84431  1.0000
  H   H633      1.0  0.40148  0.05113  0.76256  1.0000
  H   H634      1.0  0.29735  0.30633  0.89609  1.0000
  H   H635      1.0  0.49574  0.07824  0.54477  1.0000
  S   S137      1.0  0.29239  0.31319  0.84992  1.0000
  C   C527      1.0  0.46264  0.11067  0.70381  1.0000
  Fe  Fe66      1.0  0.36144  0.25528  0.88322  1.0000
  S   S138      1.0  0.38869  0.27460  0.88637  1.0000
  S   S139      1.0  0.33631  0.26296  0.89995  1.0000
  Fe  Fe67      1.0  0.38024  0.22726  0.86341  1.0000
  S   S140      1.0  0.40883  0.24539  0.86446  1.0000
  S   S141      1.0  0.38161  0.20065  0.84939  1.0000
  Fe  Fe68      1.0  0.39606  0.24828  0.89864  1.0000
  S   S142      1.0  0.40752  0.23961  0.92919  1.0000
  Fe  Fe69      1.0  0.39888  0.27008  0.85188  1.0000
  S   S143      1.0  0.41186  0.29389  0.82232  1.0000
  S   S144      1.0  0.36804  0.22915  0.89819  1.0000
  S   S145      1.0  0.37101  0.25187  0.84809  1.0000
  C   C528      1.0  0.42142  0.10443  0.91734  1.0000
  H   H636      1.0  0.42926  0.18172  0.88140  1.0000
  H   H637      1.0  0.37070  0.27104  0.95629  1.0000
  H   H638      1.0  0.29142  0.01892  0.82009  1.0000
  C   C529      1.0  0.40248  0.08013  0.76084  1.0000
  C   C530      1.0  0.40833  0.25274  0.95093  1.0000
  C   C531      1.0  0.40877  0.27167  0.94720  1.0000
  C   C532      1.0  0.31429  0.08320  0.82368  1.0000
  H   H639      1.0  0.35563  0.26702  0.93620  1.0000
  H   H640      1.0  0.41818  0.11775  0.91468  1.0000
  H   H641      1.0  0.46919  0.09366  0.74231  1.0000
  C   C533      1.0  0.30449  0.29916  0.86389  1.0000
  C   C534      1.0  0.30482  0.29842  0.88669  1.0000
  C   C535      1.0  0.31450  0.28714  0.89749  1.0000
  C   C536      1.0  0.32427  0.27680  0.88555  1.0000
  C   C537      1.0  0.32413  0.27763  0.86269  1.0000
  C   C538      1.0  0.31412  0.28865  0.85195  1.0000
  H   H642      1.0  0.40200  0.32743  0.83112  1.0000
  H   H643      1.0  0.31442  0.28651  0.91519  1.0000
  H   H644      1.0  0.33139  0.26952  0.85338  1.0000
  H   H645      1.0  0.31381  0.28906  0.83434  1.0000
  H   H646      1.0  0.45299  0.11570  0.69392  1.0000
  H   H647      1.0  0.34379  0.03052  0.97748  1.0000
  C   C539      1.0  0.44098  0.32025  0.79454  1.0000
  C   C540      1.0  0.43470  0.30938  0.81602  1.0000
  C   C541      1.0  0.44631  0.31179  0.83194  1.0000
  H   H648      1.0  0.36781  0.29335  0.84139  1.0000
  H   H649      1.0  0.32974  0.23852  0.94262  1.0000
  Fe  Fe70      1.0  0.28130  0.33322  0.86898  1.0000
  H   H650      1.0  0.44164  0.30359  0.84857  1.0000
  H   H651      1.0  0.32685  0.26739  0.95053  1.0000
  H   H652      1.0  0.44876  0.06407  0.70371  1.0000
  H   H653      1.0  0.34269  0.32360  0.98780  1.0000
  H   H654      1.0  0.40905  0.27868  0.93054  1.0000
  C   C542      1.0  0.41248  0.09849  0.75157  1.0000
  C   C543      1.0  0.39261  0.13338  0.94654  1.0000
  C   C544      1.0  0.33694  0.23181  0.95463  1.0000
  N   N38       1.0  0.37229  0.32290  0.84174  1.0000
  H   H655      1.0  0.35362  0.30430  0.82588  1.0000
  H   H656      1.0  0.40974  0.29632  0.96208  1.0000
  C   C545      1.0  0.42007  0.09527  0.93902  1.0000
  H   H657      1.0  0.36481  0.09206  0.95490  1.0000
  H   H658      1.0  0.45094  0.05272  0.89991  1.0000
  H   H659      1.0  0.44184  0.08203  0.68737  1.0000
  C   C546      1.0  0.29453  0.00702  0.82917  1.0000
  N   N39       1.0  0.30148  0.08291  0.84445  1.0000
  C   C547      1.0  0.42570  0.06891  0.73974  1.0000
  C   C548      1.0  0.40886  0.27263  0.98672  1.0000
  C   C549      1.0  0.35750  0.13683  0.87342  1.0000
  C   C550      1.0  0.37228  0.14407  0.85539  1.0000
  C   C551      1.0  0.37924  0.16359  0.84818  1.0000
  C   C552      1.0  0.37173  0.17616  0.85901  1.0000
  C   C553      1.0  0.35695  0.16892  0.87707  1.0000
  C   C554      1.0  0.34986  0.14937  0.88416  1.0000
  H   H660      1.0  0.37827  0.13464  0.84688  1.0000
  H   H661      1.0  0.39061  0.16901  0.83412  1.0000
  H   H662      1.0  0.35089  0.17835  0.88548  1.0000
  H   H663      1.0  0.33837  0.14392  0.89807  1.0000
  C   C555      1.0  0.42450  0.07052  0.80584  1.0000
  C   C556      1.0  0.41548  0.05163  0.80695  1.0000
  C   C557      1.0  0.42456  0.04038  0.79565  1.0000
  C   C558      1.0  0.44278  0.04784  0.78350  1.0000
  C   C559      1.0  0.45222  0.06640  0.78363  1.0000
  C   C560      1.0  0.44298  0.07782  0.79442  1.0000
  H   H664      1.0  0.40127  0.04587  0.81572  1.0000
  H   H665      1.0  0.41725  0.02594  0.79585  1.0000
  H   H666      1.0  0.46656  0.07198  0.77527  1.0000
  H   H667      1.0  0.45011  0.09237  0.79379  1.0000
  C   C561      1.0  0.30876  0.00993  0.84185  1.0000
  C   C562      1.0  0.35945  0.31841  0.86359  1.0000
  C   C563      1.0  0.36225  0.26002  0.94857  1.0000
  H   H668      1.0  0.40755  0.10990  0.75684  1.0000
  C   C564      1.0  0.29945  0.10197  0.84524  1.0000
  H   H669      1.0  0.36069  0.30568  0.87427  1.0000
  C   C565      1.0  0.37697  0.05332  0.94302  1.0000
  H   H670      1.0  0.36570  0.07326  0.92500  1.0000
  N   N40       1.0  0.45441  0.09084  0.71494  1.0000
  H   H671      1.0  0.32844  0.09266  0.82268  1.0000
  C   C566      1.0  0.31380  0.13501  0.84656  1.0000
  H   H672      1.0  0.46633  0.12003  0.71607  1.0000
  H   H673      1.0  0.26923  0.09586  0.84594  1.0000
  N   N41       1.0  0.34848  0.24555  0.96584  1.0000
  N   N42       1.0  0.41052  0.18877  0.90650  1.0000
  C   C567      1.0  0.41751  0.18824  0.88284  1.0000
  C   C568      1.0  0.39400  0.19615  0.90749  1.0000
  C   C569      1.0  0.42535  0.20232  0.91423  1.0000
  H   H674      1.0  0.32599  0.22101  0.96698  1.0000
  C   C570      1.0  0.39153  0.32573  0.84642  1.0000
  H   H675      1.0  0.41738  0.04199  0.89929  1.0000
  H   H676      1.0  0.46326  0.07046  0.73584  1.0000
  H   H677      1.0  0.40653  0.18038  0.87466  1.0000
  H   H678      1.0  0.36861  0.22960  0.96865  1.0000
  H   H679      1.0  0.32900  0.11479  0.84494  1.0000
  H   H680      1.0  0.39753  0.21041  0.89738  1.0000
  H   H681      1.0  0.38840  0.19708  0.92492  1.0000
  H   H682      1.0  0.43818  0.19753  0.91424  1.0000
  H   H683      1.0  0.42940  0.21637  0.90333  1.0000
  H   H684      1.0  0.42051  0.20488  0.93121  1.0000
  H   H685      1.0  0.42062  0.17608  0.94715  1.0000
  C   C571      1.0  0.41125  0.16562  0.94054  1.0000
  C   C572      1.0  0.43620  0.08744  0.72979  1.0000
  C   C573      1.0  0.38288  0.04804  0.96299  1.0000
  H   H686      1.0  0.46605  0.08224  0.68522  1.0000
  C   C574      1.0  0.28367  0.06863  0.84488  1.0000
  C   C575      1.0  0.46397  0.32504  0.82637  1.0000
  C   C576      1.0  0.28204  0.10627  0.84601  1.0000
  N   N43       1.0  0.43536  0.06929  0.88321  1.0000
  C   C577      1.0  0.43851  0.08135  0.86102  1.0000
  C   C578      1.0  0.45276  0.06377  0.88518  1.0000
  C   C579      1.0  0.42013  0.05227  0.88355  1.0000
  C   C580      1.0  0.43030  0.07855  0.90209  1.0000
  C   C581      1.0  0.42850  0.06952  0.92443  1.0000
  C   C582      1.0  0.42659  0.09635  0.89907  1.0000
  H   H687      1.0  0.37161  0.31854  0.98115  1.0000
  H   H688      1.0  0.30085  0.07744  0.87991  1.0000
  H   H689      1.0  0.42238  0.20252  0.87246  1.0000
  H   H690      1.0  0.37200  0.25389  0.93868  1.0000
  H   H691      1.0  0.44231  0.07412  0.84710  1.0000
  H   H692      1.0  0.42564  0.08515  0.85781  1.0000
  H   H693      1.0  0.46422  0.07600  0.88661  1.0000
  H   H694      1.0  0.43026  0.05565  0.92812  1.0000
  H   H695      1.0  0.42317  0.04494  0.86944  1.0000
  H   H696      1.0  0.40680  0.05582  0.88218  1.0000
  H   H697      1.0  0.30650  0.28192  0.97207  1.0000
  C   C583      1.0  0.31529  0.11695  0.84541  1.0000
  H   H698      1.0  0.38653  0.15696  0.89859  1.0000
  H   H699      1.0  0.42718  0.10417  0.88279  1.0000
  H   H700      1.0  0.47596  0.11250  0.69210  1.0000
  C   C584      1.0  0.40504  0.16974  0.92008  1.0000
  C   C585      1.0  0.30939  0.07664  0.86395  1.0000
  H   H701      1.0  0.40813  0.22925  0.97549  1.0000
  H   H702      1.0  0.38797  0.03576  0.96514  1.0000
  C   C586      1.0  0.42379  0.07796  0.94253  1.0000
  C   C587      1.0  0.35916  0.23557  0.97930  1.0000
  H   H703      1.0  0.38769  0.11963  0.95690  1.0000
  C   C588      1.0  0.36772  0.30645  0.83050  1.0000
  H   H704      1.0  0.34463  0.31535  0.86143  1.0000
  C   C589      1.0  0.37635  0.07495  0.97692  1.0000
  H   H705      1.0  0.37794  0.30784  0.81503  1.0000
  C   C590      1.0  0.40834  0.24386  0.97251  1.0000
  H   H706      1.0  0.27356  0.06715  0.86049  1.0000
  H   H707      1.0  0.36229  0.33007  0.87318  1.0000
  H   H708      1.0  0.26731  0.12746  0.84771  1.0000
  H   H709      1.0  0.44989  0.09443  0.85948  1.0000
  H   H710      1.0  0.43070  0.05697  0.73680  1.0000
  C   C591      1.0  0.39229  0.15482  0.91357  1.0000
  H   H711      1.0  0.32612  0.14610  0.84702  1.0000
  C   C592      1.0  0.37009  0.07992  0.95715  1.0000
  H   H712      1.0  0.27719  0.07199  0.83019  1.0000
  H   H713      1.0  0.31021  0.06195  0.86470  1.0000
  H   H714      1.0  0.32378  0.08527  0.86356  1.0000
  H   H715      1.0  0.39287  0.31340  0.85773  1.0000
  C   C593      1.0  0.42907  0.10220  0.73619  1.0000
  C   C594      1.0  0.45260  0.07931  0.69708  1.0000
  C   C595      1.0  0.40899  0.06538  0.75476  1.0000
  H   H716      1.0  0.38998  0.07734  0.77332  1.0000
  H   H717      1.0  0.29546  0.15279  0.84834  1.0000
  C   C596      1.0  0.45875  0.33320  0.78887  1.0000
  H   H718      1.0  0.37632  0.12582  0.92134  1.0000
  C   C597      1.0  0.38626  0.13692  0.92659  1.0000
  H   H719      1.0  0.45755  0.05792  0.87040  1.0000
  H   H720      1.0  0.41572  0.10138  0.95318  1.0000
  H   H721      1.0  0.31621  0.06907  0.82250  1.0000
  H   H722      1.0  0.34553  0.22450  0.94484  1.0000
  H   H723      1.0  0.38255  0.18735  0.90083  1.0000
  S   S146      1.0  0.25719  0.32493  0.89781  1.0000
  C   C598      1.0  0.40916  0.28163  0.96506  1.0000
  H   H724      1.0  0.42235  0.07072  0.95945  1.0000
  H   H725      1.0  0.33873  0.04994  0.98805  1.0000
  C   C599      1.0  0.32603  0.26536  0.96847  1.0000
  H   H726      1.0  0.32010  0.03154  0.98291  1.0000
  H   H727      1.0  0.46249  0.00534  0.71400  1.0000
  C   C600      1.0  0.29654  0.13876  0.84737  1.0000
  C   C601      1.0  0.38269  0.05894  0.97990  1.0000
  C   C602      1.0  0.40508  0.14766  0.95347  1.0000
  H   H728      1.0  0.47280  0.32695  0.83885  1.0000
  C   C603      1.0  0.28072  0.12445  0.84704  1.0000
  H   H729      1.0  0.48183  0.08841  0.71827  1.0000
  S   S147      1.0  0.27602  0.33146  0.95053  1.0000
  C   C604      1.0  0.31422  0.27365  0.98067  1.0000
  C   C605      1.0  0.33627  0.25436  0.97918  1.0000
  H   H730      1.0  0.49600  0.15082  0.50927  1.0000
  C   C606      1.0  0.33349  0.03449  0.98928  1.0000
  H   H731      1.0  0.34587  0.00139  0.98888  1.0000
  C   C607      1.0  0.47060  0.58860  0.45652  1.0000
  H   H732      1.0  0.32096  0.51627  0.31962  1.0000
  H   H733      1.0  0.32578  0.52497  0.28985  1.0000
  H   H734      1.0  0.27997  0.34166  0.02641  1.0000
  H   H735      1.0  0.45076  0.36191  0.14973  1.0000
  Fe  Fe71      1.0  0.34497  0.52053  0.36515  1.0000
  S   S148      1.0  0.36741  0.50596  0.36928  1.0000
  S   S149      1.0  0.31527  0.50308  0.37010  1.0000
  Fe  Fe72      1.0  0.37189  0.55903  0.35356  1.0000
  S   S150      1.0  0.39620  0.54757  0.35623  1.0000
  S   S151      1.0  0.38092  0.59032  0.34417  1.0000
  Fe  Fe73      1.0  0.38275  0.52570  0.33775  1.0000
  S   S152      1.0  0.40113  0.52062  0.30829  1.0000
  Fe  Fe74      1.0  0.37868  0.52928  0.38747  1.0000
  S   S153      1.0  0.39361  0.52912  0.41696  1.0000
  S   S154      1.0  0.35968  0.53875  0.33232  1.0000
  S   S155      1.0  0.35486  0.54211  0.38604  1.0000
  S   S156      1.0  0.43242  0.61752  0.41283  1.0000
  S   S157      1.0  0.30934  0.37010  0.08165  1.0000
  S   S158      1.0  0.26721  0.37595  0.08281  1.0000
  Fe  Fe75      1.0  0.28767  0.36674  0.05970  1.0000
  S   S159      1.0  0.29601  0.38144  0.02379  1.0000
  Fe  Fe76      1.0  0.28811  0.37699  0.10594  1.0000
  S   S160      1.0  0.29471  0.40062  0.12581  1.0000
  Fe  Fe77      1.0  0.38411  0.46411  0.21561  1.0000
  S   S161      1.0  0.38119  0.47784  0.18176  1.0000
  S   S162      1.0  0.36594  0.46311  0.24873  1.0000
  Fe  Fe78      1.0  0.41836  0.45271  0.19688  1.0000
  S   S163      1.0  0.41820  0.46560  0.16208  1.0000
  S   S164      1.0  0.44383  0.44441  0.20428  1.0000
  Fe  Fe79      1.0  0.41248  0.48971  0.17694  1.0000
  S   S165      1.0  0.42981  0.51913  0.16093  1.0000
  Fe  Fe80      1.0  0.38713  0.45225  0.16999  1.0000
  S   S166      1.0  0.37673  0.43527  0.14385  1.0000
  S   S167      1.0  0.41471  0.47754  0.21130  1.0000
  S   S168      1.0  0.38786  0.43767  0.20425  1.0000
  S   S169      1.0  0.48520  0.62401  0.40253  1.0000
  C   C608      1.0  0.45125  0.58497  0.45803  1.0000
  S   S170      1.0  0.44244  0.35937  0.22541  1.0000
  H   H736      1.0  0.32021  0.53390  0.44683  1.0000
  C   C609      1.0  0.44759  0.53080  0.17422  1.0000
  C   C610      1.0  0.44810  0.52444  0.19649  1.0000
  C   C611      1.0  0.46299  0.53295  0.20635  1.0000
  S   S171      1.0  0.47368  0.66341  0.40370  1.0000
  C   C612      1.0  0.47671  0.55506  0.17215  1.0000
  C   C613      1.0  0.46177  0.54640  0.16219  1.0000
  H   H737      1.0  0.43699  0.51304  0.20622  1.0000
  H   H738      1.0  0.29531  0.52224  0.30788  1.0000
  C   C614      1.0  0.29212  0.52240  0.46724  1.0000
  H   H739      1.0  0.46140  0.55153  0.14499  1.0000
  C   C615      1.0  0.44276  0.42063  0.21014  1.0000
  C   C616      1.0  0.42575  0.40672  0.21535  1.0000
  C   C617      1.0  0.42557  0.38783  0.22051  1.0000
  C   C618      1.0  0.44239  0.38291  0.22005  1.0000
  C   C619      1.0  0.45931  0.39688  0.21479  1.0000
  C   C620      1.0  0.45948  0.41569  0.21006  1.0000
  H   H740      1.0  0.41280  0.41047  0.21525  1.0000
  H   H741      1.0  0.41246  0.37702  0.22442  1.0000
  H   H742      1.0  0.47235  0.39321  0.21456  1.0000
  H   H743      1.0  0.47268  0.42640  0.20612  1.0000
  H   H744      1.0  0.38739  0.33663  0.00765  1.0000
  H   H745      1.0  0.25396  0.46560  0.28981  1.0000
  H   H746      1.0  0.37909  0.45820  0.09635  1.0000
  C   C621      1.0  0.46980  0.57253  0.38591  1.0000
  C   C622      1.0  0.35354  0.42474  0.14068  1.0000
  C   C623      1.0  0.33814  0.42927  0.15167  1.0000
  C   C624      1.0  0.32016  0.42165  0.14713  1.0000
  C   C625      1.0  0.31738  0.40921  0.13191  1.0000
  C   C626      1.0  0.33275  0.40442  0.12129  1.0000
  C   C627      1.0  0.35071  0.41224  0.12556  1.0000
  H   H747      1.0  0.34012  0.43896  0.16325  1.0000
  H   H748      1.0  0.30837  0.42546  0.15543  1.0000
  H   H749      1.0  0.33088  0.39493  0.10951  1.0000
  H   H750      1.0  0.36255  0.40876  0.11685  1.0000
  C   C628      1.0  0.37864  0.52221  0.44312  1.0000
  C   C629      1.0  0.38589  0.52483  0.46268  1.0000
  H   H751      1.0  0.40070  0.53061  0.46161  1.0000
  H   H752      1.0  0.35389  0.51166  0.42972  1.0000
  C   C630      1.0  0.39016  0.50547  0.29160  1.0000
  C   C631      1.0  0.37429  0.49063  0.30067  1.0000
  C   C632      1.0  0.36691  0.47770  0.28739  1.0000
  C   C633      1.0  0.37514  0.47975  0.26492  1.0000
  C   C634      1.0  0.39057  0.49500  0.25575  1.0000
  C   C635      1.0  0.39816  0.50768  0.26909  1.0000
  H   H753      1.0  0.36813  0.48876  0.31809  1.0000
  H   H754      1.0  0.35496  0.46595  0.29459  1.0000
  H   H755      1.0  0.39662  0.49716  0.23832  1.0000
  H   H756      1.0  0.41035  0.51919  0.26191  1.0000
  C   C636      1.0  0.39467  0.59866  0.36345  1.0000
  C   C637      1.0  0.40792  0.61615  0.35802  1.0000
  C   C638      1.0  0.41963  0.62212  0.37310  1.0000
  C   C639      1.0  0.41778  0.61077  0.39379  1.0000
  C   C640      1.0  0.40438  0.59345  0.39924  1.0000
  C   C641      1.0  0.39307  0.58732  0.38400  1.0000
  H   H757      1.0  0.40925  0.62496  0.34210  1.0000
  H   H758      1.0  0.42983  0.63561  0.36881  1.0000
  H   H759      1.0  0.40284  0.58451  0.41509  1.0000
  H   H760      1.0  0.38296  0.57383  0.38837  1.0000
  C   C642      1.0  0.27354  0.53373  0.34869  1.0000
  C   C643      1.0  0.29230  0.54361  0.34692  1.0000
  C   C644      1.0  0.30519  0.53439  0.35386  1.0000
  C   C645      1.0  0.29935  0.51522  0.36241  1.0000
  C   C646      1.0  0.28059  0.50538  0.36437  1.0000
  C   C647      1.0  0.26770  0.51465  0.35771  1.0000
  H   H761      1.0  0.29689  0.55841  0.34004  1.0000
  H   H762      1.0  0.31964  0.54210  0.35242  1.0000
  H   H763      1.0  0.27603  0.49054  0.37101  1.0000
  C   C648      1.0  0.43632  0.56347  0.39419  1.0000
  C   C649      1.0  0.37405  0.51965  0.48365  1.0000
  H   H764      1.0  0.44180  0.33897  0.16603  1.0000
  C   C650      1.0  0.28708  0.50968  0.30347  1.0000
  C   C651      1.0  0.32451  0.34259  0.02925  1.0000
  C   C652      1.0  0.26874  0.50940  0.44512  1.0000
  N   N44       1.0  0.42482  0.58713  0.29373  1.0000
  C   C653      1.0  0.42239  0.60579  0.28566  1.0000
  C   C654      1.0  0.40651  0.57318  0.29559  1.0000
  C   C655      1.0  0.42948  0.58686  0.31638  1.0000
  C   C656      1.0  0.44013  0.58342  0.27868  1.0000
  C   C657      1.0  0.43790  0.56690  0.26909  1.0000
  C   C658      1.0  0.45814  0.59638  0.27360  1.0000
  C   C659      1.0  0.45263  0.56404  0.25468  1.0000
  C   C660      1.0  0.47273  0.59336  0.25916  1.0000
  C   C661      1.0  0.46996  0.57727  0.24965  1.0000
  H   H765      1.0  0.41993  0.60694  0.26813  1.0000
  H   H766      1.0  0.41027  0.60844  0.29612  1.0000
  H   H767      1.0  0.43465  0.61745  0.28631  1.0000
  H   H768      1.0  0.40232  0.57235  0.27900  1.0000
  H   H769      1.0  0.39512  0.57668  0.30631  1.0000
  H   H770      1.0  0.40671  0.55904  0.30349  1.0000
  H   H771      1.0  0.44261  0.59761  0.31662  1.0000
  H   H772      1.0  0.41829  0.58956  0.32825  1.0000
  H   H773      1.0  0.43109  0.57296  0.32311  1.0000
  H   H774      1.0  0.42490  0.55596  0.27237  1.0000
  H   H775      1.0  0.46114  0.60900  0.28071  1.0000
  H   H776      1.0  0.45059  0.55157  0.24712  1.0000
  C   C662      1.0  0.47479  0.49005  0.19771  1.0000
  H   H777      1.0  0.32050  0.34148  0.99551  1.0000
  S   S172      1.0  0.48300  0.37385  0.17605  1.0000
  H   H778      1.0  0.46505  0.60049  0.35721  1.0000
  C   C663      1.0  0.48479  0.63884  0.46470  1.0000
  C   C664      1.0  0.32584  0.51321  0.30294  1.0000
  C   C665      1.0  0.32300  0.49137  0.27771  1.0000
  H   H779      1.0  0.41622  0.56328  0.45280  1.0000
  C   C666      1.0  0.28257  0.34833  0.00922  1.0000
  N   N45       1.0  0.48751  0.49251  0.17619  1.0000
  H   H780      1.0  0.44615  0.58632  0.44250  1.0000
  H   H781      1.0  0.32130  0.50120  0.26338  1.0000
  Fe  Fe81      1.0  0.47054  0.35703  0.21008  1.0000
  H   H782      1.0  0.42541  0.35444  0.12672  1.0000
  H   H783      1.0  0.47749  0.63703  0.45083  1.0000
  C   C667      1.0  0.26329  0.47792  0.29356  1.0000
  H   H784      1.0  0.31703  0.47689  0.27498  1.0000
  H   H785      1.0  0.38544  0.39631  0.15063  1.0000
  S   S173      1.0  0.47044  0.64293  0.35935  1.0000
  H   H786      1.0  0.33109  0.34136  0.06224  1.0000
  C   C668      1.0  0.27858  0.33744  0.99277  1.0000
  H   H787      1.0  0.40182  0.34320  0.14074  1.0000
  H   H788      1.0  0.40060  0.65019  0.41400  1.0000
  H   H789      1.0  0.45368  0.53925  0.30335  1.0000
  H   H790      1.0  0.47073  0.55804  0.39109  1.0000
  Fe  Fe82      1.0  0.29525  0.34018  0.09691  1.0000
  H   H791      1.0  0.42300  0.56259  0.38785  1.0000
  H   H792      1.0  0.47002  0.57952  0.40079  1.0000
  H   H793      1.0  0.39612  0.57049  0.46284  1.0000
  H   H794      1.0  0.43589  0.57158  0.40806  1.0000
  C   C669      1.0  0.44036  0.54531  0.35648  1.0000
  H   H795      1.0  0.34068  0.51319  0.30259  1.0000
  C   C670      1.0  0.27357  0.51304  0.46558  1.0000
  H   H796      1.0  0.38001  0.44404  0.06226  1.0000
  H   H797      1.0  0.45198  0.59948  0.38372  1.0000
  N   N46       1.0  0.41328  0.43448  0.27385  1.0000
  C   C671      1.0  0.42871  0.42561  0.26975  1.0000
  C   C672      1.0  0.39995  0.42299  0.29390  1.0000
  C   C673      1.0  0.40326  0.43375  0.25474  1.0000
  C   C674      1.0  0.42085  0.45428  0.27601  1.0000
  C   C675      1.0  0.41470  0.46185  0.29477  1.0000
  C   C676      1.0  0.43441  0.46683  0.25862  1.0000
  C   C677      1.0  0.42190  0.48072  0.29598  1.0000
  H   H798      1.0  0.31832  0.55149  0.47727  1.0000
  C   C678      1.0  0.47845  0.58812  0.47575  1.0000
  H   H799      1.0  0.43708  0.42651  0.28333  1.0000
  H   H800      1.0  0.42344  0.41058  0.26846  1.0000
  H   H801      1.0  0.43843  0.43220  0.25376  1.0000
  H   H802      1.0  0.40658  0.42298  0.30902  1.0000
  H   H803      1.0  0.39489  0.40812  0.29188  1.0000
  H   H804      1.0  0.38729  0.42810  0.29698  1.0000
  H   H805      1.0  0.41275  0.44053  0.23871  1.0000
  H   H806      1.0  0.39669  0.41912  0.25285  1.0000
  H   H807      1.0  0.39208  0.44106  0.25663  1.0000
  H   H808      1.0  0.40410  0.45363  0.30859  1.0000
  H   H809      1.0  0.43941  0.46222  0.24360  1.0000
  C   C679      1.0  0.30064  0.52356  0.42684  1.0000
  H   H810      1.0  0.30802  0.48234  0.33393  1.0000
  H   H811      1.0  0.43626  0.54913  0.40183  1.0000
  N   N47       1.0  0.31651  0.43638  0.06171  1.0000
  C   C680      1.0  0.31252  0.41598  0.06197  1.0000
  C   C681      1.0  0.29965  0.43977  0.07421  1.0000
  C   C682      1.0  0.31931  0.44606  0.03830  1.0000
  C   C683      1.0  0.33357  0.44286  0.07121  1.0000
  C   C684      1.0  0.35084  0.44062  0.06107  1.0000
  C   C685      1.0  0.33362  0.45114  0.09074  1.0000
  C   C686      1.0  0.36707  0.44625  0.06995  1.0000
  C   C687      1.0  0.34999  0.45688  0.09932  1.0000
  C   C688      1.0  0.36664  0.45435  0.08905  1.0000
  H   H812      1.0  0.31110  0.40845  0.07925  1.0000
  H   H813      1.0  0.29937  0.41030  0.05578  1.0000
  H   H814      1.0  0.32364  0.41215  0.05127  1.0000
  H   H815      1.0  0.29626  0.43210  0.09177  1.0000
  H   H816      1.0  0.28707  0.43467  0.06672  1.0000
  H   H817      1.0  0.30146  0.45493  0.07438  1.0000
  H   H818      1.0  0.33051  0.44265  0.02723  1.0000
  C   C689      1.0  0.41297  0.40946  0.15562  1.0000
  H   H819      1.0  0.32311  0.46152  0.03727  1.0000
  H   H820      1.0  0.35183  0.43418  0.04641  1.0000
  H   H821      1.0  0.32114  0.45289  0.10012  1.0000
  H   H822      1.0  0.34968  0.46268  0.11458  1.0000
  C   C690      1.0  0.44137  0.48570  0.25990  1.0000
  Fe  Fe83      1.0  0.25609  0.34535  0.09728  1.0000
  H   H823      1.0  0.25331  0.50693  0.35929  1.0000
  S   S174      1.0  0.27509  0.34717  0.12269  1.0000
  H   H824      1.0  0.43033  0.52397  0.33737  1.0000
  C   C691      1.0  0.45318  0.56278  0.35669  1.0000
  H   H825      1.0  0.46340  0.52765  0.22347  1.0000
  C   C692      1.0  0.39872  0.39418  0.15362  1.0000
  C   C693      1.0  0.44059  0.53706  0.33736  1.0000
  N   N48       1.0  0.29703  0.52540  0.48926  1.0000
  C   C694      1.0  0.45375  0.54564  0.31817  1.0000
  H   H826      1.0  0.41674  0.48631  0.31021  1.0000
  C   C695      1.0  0.45244  0.59202  0.36929  1.0000
  H   H827      1.0  0.25450  0.50213  0.44431  1.0000
  C   C696      1.0  0.30563  0.52736  0.44720  1.0000
  H   H828      1.0  0.44406  0.35841  0.17984  1.0000
  N   N49       1.0  0.45281  0.57240  0.37623  1.0000
  H   H829      1.0  0.47744  0.56890  0.30328  1.0000
  H   H830      1.0  0.46639  0.47385  0.16305  1.0000
  C   C697      1.0  0.35501  0.51124  0.48518  1.0000
  C   C698      1.0  0.40847  0.66480  0.40916  1.0000
  H   H831      1.0  0.33823  0.49303  0.27674  1.0000
  H   H832      1.0  0.47966  0.59232  0.44036  1.0000
  C   C699      1.0  0.41343  0.59319  0.48900  1.0000
  H   H833      1.0  0.45139  0.49506  0.24617  1.0000
  C   C700      1.0  0.29016  0.36769  0.00333  1.0000
  C   C701      1.0  0.43915  0.58042  0.47912  1.0000
  C   C702      1.0  0.35957  0.51398  0.44466  1.0000
  C   C703      1.0  0.41165  0.57446  0.46027  1.0000
  C   C704      1.0  0.26836  0.50878  0.30287  1.0000
  C   C705      1.0  0.25649  0.49296  0.29793  1.0000
  H   H834      1.0  0.44020  0.50734  0.27935  1.0000
  H   H835      1.0  0.44094  0.41884  0.16165  1.0000
  H   H836      1.0  0.30817  0.46607  0.31505  1.0000
  H   H837      1.0  0.39342  0.34107  0.18143  1.0000
  Fe  Fe84      1.0  0.46102  0.63506  0.39634  1.0000
  N   N50       1.0  0.42107  0.35404  0.16212  1.0000
  H   H838      1.0  0.32697  0.53105  0.48109  1.0000
  C   C706      1.0  0.43513  0.49263  0.27857  1.0000
  C   C707      1.0  0.40145  0.37629  0.15563  1.0000
  C   C708      1.0  0.31507  0.48039  0.31758  1.0000
  C   C709      1.0  0.46687  0.57075  0.33713  1.0000
  C   C710      1.0  0.28200  0.47867  0.29405  1.0000
  C   C711      1.0  0.34787  0.50821  0.46565  1.0000
  H   H839      1.0  0.41639  0.58763  0.44786  1.0000
  H   H840      1.0  0.26296  0.52039  0.30653  1.0000
  H   H841      1.0  0.43994  0.59258  0.36173  1.0000
  C   C712      1.0  0.47564  0.63025  0.48646  1.0000
  S   S175      1.0  0.25789  0.54538  0.33875  1.0000
  H   H842      1.0  0.30649  0.44187  0.03091  1.0000
  H   H843      1.0  0.28656  0.46658  0.29077  1.0000
  H   H844      1.0  0.42981  0.53782  0.37077  1.0000
  H   H845      1.0  0.32972  0.48074  0.31918  1.0000
  H   H846      1.0  0.47764  0.58356  0.33636  1.0000
  H   H847      1.0  0.31469  0.35074  0.03234  1.0000
  C   C713      1.0  0.41870  0.37320  0.15959  1.0000
  H   H848      1.0  0.33323  0.50139  0.46670  1.0000
  C   C714      1.0  0.29454  0.49465  0.29885  1.0000
  H   H849      1.0  0.38985  0.36487  0.15432  1.0000
  N   N51       1.0  0.31428  0.49505  0.29926  1.0000
  S   S176      1.0  0.49688  0.55612  0.20680  1.0000
  C   C715      1.0  0.47747  0.54806  0.19417  1.0000
  H   H850      1.0  0.48626  0.60362  0.25511  1.0000
  H   H851      1.0  0.26270  0.50806  0.48022  1.0000
  C   C716      1.0  0.46701  0.56236  0.31813  1.0000
  H   H852      1.0  0.48787  0.56669  0.16259  1.0000
  C   C717      1.0  0.43291  0.38912  0.16173  1.0000
  H   H853      1.0  0.46133  0.62181  0.48926  1.0000
  C   C718      1.0  0.43000  0.40694  0.15968  1.0000
  H   H854      1.0  0.27855  0.51165  0.40997  1.0000
  S   S177      1.0  0.47921  0.33890  0.13514  1.0000
  N   N52       1.0  0.41867  0.57697  0.48140  1.0000
  H   H855      1.0  0.41072  0.42327  0.15418  1.0000
  H   H856      1.0  0.48275  0.58020  0.37382  1.0000
  S   S178      1.0  0.27540  0.33594  0.07271  1.0000
  C   C719      1.0  0.28224  0.51470  0.42578  1.0000
  H   H857      1.0  0.41122  0.34859  0.19754  1.0000
  H   H858      1.0  0.44633  0.38820  0.16534  1.0000
  H   H859      1.0  0.47553  0.47773  0.20952  1.0000
  C   C720      1.0  0.44028  0.35344  0.16445  1.0000
  H   H860      1.0  0.48987  0.47668  0.14957  1.0000
  H   H861      1.0  0.31115  0.52720  0.41176  1.0000
  H   H862      1.0  0.48128  0.57509  0.23830  1.0000
  H   H863      1.0  0.45999  0.48773  0.19541  1.0000
  H   H864      1.0  0.42000  0.60626  0.47657  1.0000
  H   H865      1.0  0.47820  0.50248  0.20593  1.0000
  C   C721      1.0  0.31620  0.53761  0.48780  1.0000
  H   H866      1.0  0.43315  0.65848  0.39429  1.0000
  C   C722      1.0  0.40831  0.34240  0.18242  1.0000
  H   H867      1.0  0.49348  0.59158  0.47450  1.0000
  H   H868      1.0  0.48079  0.46263  0.17713  1.0000
  Fe  Fe85      1.0  0.48774  0.34695  0.16767  1.0000
  H   H869      1.0  0.24966  0.55010  0.38656  1.0000
  C   C723      1.0  0.41668  0.34547  0.14239  1.0000
  H   H870      1.0  0.47136  0.50666  0.15712  1.0000
  H   H871      1.0  0.48847  0.52182  0.16828  1.0000
  C   C724      1.0  0.48573  0.50886  0.16098  1.0000
  C   C725      1.0  0.32787  0.33737  0.00848  1.0000
  C   C726      1.0  0.33385  0.33740  0.04601  1.0000
  C   C727      1.0  0.48100  0.47571  0.16598  1.0000
  H   H872      1.0  0.49566  0.51172  0.14491  1.0000
  Fe  Fe86      1.0  0.49583  0.63413  0.36582  1.0000
  H   H873      1.0  0.48861  0.55995  0.76527  1.0000
  H   H874      1.0  0.40795  0.52740  0.60349  1.0000
  Fe  Fe87      1.0  0.48371  0.63896  0.60707  1.0000
  Fe  Fe88      1.0  0.34743  0.51665  0.54118  1.0000
  S   S179      1.0  0.34112  0.54390  0.54425  1.0000
  S   S180      1.0  0.33972  0.50411  0.51113  1.0000
  Fe  Fe89      1.0  0.36011  0.51356  0.58666  1.0000
  S   S181      1.0  0.35454  0.54054  0.59338  1.0000
  S   S182      1.0  0.37382  0.49621  0.60841  1.0000
  Fe  Fe90      1.0  0.32827  0.53046  0.57961  1.0000
  S   S183      1.0  0.30069  0.53487  0.59340  1.0000
  Fe  Fe91      1.0  0.36771  0.55134  0.55754  1.0000
  S   S184      1.0  0.39038  0.57768  0.54343  1.0000
  S   S185      1.0  0.33264  0.50243  0.57589  1.0000
  S   S186      1.0  0.37531  0.52516  0.55145  1.0000
  S   S187      1.0  0.41730  0.63897  0.60205  1.0000
  Fe  Fe92      1.0  0.40090  0.49554  0.72615  1.0000
  S   S188      1.0  0.38842  0.48851  0.76261  1.0000
  S   S189      1.0  0.38646  0.51216  0.70467  1.0000
  Fe  Fe93      1.0  0.43238  0.47809  0.73359  1.0000
  S   S190      1.0  0.42220  0.46944  0.77048  1.0000
  S   S191      1.0  0.45990  0.47440  0.71871  1.0000
  Fe  Fe94      1.0  0.39366  0.46045  0.76144  1.0000
  S   S192      1.0  0.37223  0.43197  0.77207  1.0000
  Fe  Fe95      1.0  0.41808  0.49830  0.76801  1.0000
  S   S193      1.0  0.42461  0.51741  0.79299  1.0000
  S   S194      1.0  0.40447  0.46696  0.72430  1.0000
  S   S195      1.0  0.43002  0.50751  0.73176  1.0000
  S   S196      1.0  0.46500  0.39197  0.71563  1.0000
  C   C728      1.0  0.45010  0.37842  0.77950  1.0000
  H   H875      1.0  0.29163  0.37182  0.94693  1.0000
  S   S197      1.0  0.26823  0.36923  0.90233  1.0000
  S   S198      1.0  0.30144  0.35022  0.88695  1.0000
  H   H876      1.0  0.43108  0.53589  0.58735  1.0000
  C   C729      1.0  0.36884  0.37152  0.79780  1.0000
  Fe  Fe96      1.0  0.29120  0.37418  0.87261  1.0000
  S   S199      1.0  0.31112  0.40350  0.86124  1.0000
  S   S200      1.0  0.27210  0.35764  0.85290  1.0000
  C   C730      1.0  0.44410  0.53666  0.79205  1.0000
  C   C731      1.0  0.44267  0.54788  0.80827  1.0000
  C   C732      1.0  0.47616  0.58267  0.72586  1.0000
  C   C733      1.0  0.25501  0.51105  0.55507  1.0000
  C   C734      1.0  0.47579  0.55655  0.77724  1.0000
  C   C735      1.0  0.46071  0.54106  0.77631  1.0000
  H   H877      1.0  0.42997  0.54461  0.82050  1.0000
  C   C736      1.0  0.41972  0.55454  0.71920  1.0000
  H   H878      1.0  0.46193  0.53246  0.76370  1.0000
  C   C737      1.0  0.46082  0.45123  0.71891  1.0000
  C   C738      1.0  0.44460  0.43664  0.72075  1.0000
  C   C739      1.0  0.44589  0.41841  0.71960  1.0000
  C   C740      1.0  0.46334  0.41469  0.71725  1.0000
  C   C741      1.0  0.47946  0.42917  0.71610  1.0000
  C   C742      1.0  0.47821  0.44745  0.71663  1.0000
  H   H879      1.0  0.43114  0.43951  0.72246  1.0000
  H   H880      1.0  0.43338  0.40721  0.72056  1.0000
  S   S201      1.0  0.48971  0.61966  0.63523  1.0000
  H   H881      1.0  0.47745  0.39703  0.79994  1.0000
  C   C743      1.0  0.35537  0.42440  0.79699  1.0000
  C   C744      1.0  0.35574  0.43460  0.81445  1.0000
  C   C745      1.0  0.34220  0.42790  0.83410  1.0000
  C   C746      1.0  0.32829  0.41091  0.83658  1.0000
  C   C747      1.0  0.32800  0.40067  0.81916  1.0000
  C   C748      1.0  0.34147  0.40741  0.79947  1.0000
  H   H882      1.0  0.36639  0.44766  0.81282  1.0000
  H   H883      1.0  0.34248  0.43596  0.84746  1.0000
  H   H884      1.0  0.31723  0.38768  0.82075  1.0000
  H   H885      1.0  0.34098  0.39947  0.78601  1.0000
  H   H886      1.0  0.46775  0.41268  0.78395  1.0000
  C   C749      1.0  0.28178  0.34584  0.97029  1.0000
  H   H887      1.0  0.46307  0.40936  0.81390  1.0000
  S   S202      1.0  0.49215  0.35313  0.79891  1.0000
  C   C750      1.0  0.37639  0.50015  0.63560  1.0000
  C   C751      1.0  0.36903  0.51324  0.64516  1.0000
  C   C752      1.0  0.37209  0.51666  0.66646  1.0000
  C   C753      1.0  0.38243  0.50696  0.67837  1.0000
  C   C754      1.0  0.38957  0.49367  0.66898  1.0000
  C   C755      1.0  0.38657  0.49031  0.64763  1.0000
  H   H888      1.0  0.36100  0.52075  0.63615  1.0000
  H   H889      1.0  0.36649  0.52694  0.67368  1.0000
  H   H890      1.0  0.39763  0.48618  0.67798  1.0000
  H   H891      1.0  0.39232  0.48017  0.64030  1.0000
  C   C756      1.0  0.39659  0.59475  0.56001  1.0000
  C   C757      1.0  0.41426  0.60740  0.55374  1.0000
  C   C758      1.0  0.42034  0.62079  0.56673  1.0000
  C   C759      1.0  0.40874  0.62211  0.58588  1.0000
  C   C760      1.0  0.39081  0.60964  0.59212  1.0000
  C   C761      1.0  0.38478  0.59579  0.57926  1.0000
  H   H892      1.0  0.42360  0.60663  0.53907  1.0000
  H   H893      1.0  0.43413  0.63007  0.56171  1.0000
  H   H894      1.0  0.38174  0.61052  0.60697  1.0000
  H   H895      1.0  0.37102  0.58608  0.58414  1.0000
  C   C762      1.0  0.40169  0.56048  0.60604  1.0000
  H   H896      1.0  0.40298  0.57385  0.61251  1.0000
  H   H897      1.0  0.45273  0.38904  0.76411  1.0000
  Fe  Fe97      1.0  0.44851  0.64626  0.59285  1.0000
  S   S203      1.0  0.47378  0.62023  0.53134  1.0000
  H   H898      1.0  0.39433  0.56123  0.59158  1.0000
  H   H899      1.0  0.47797  0.50069  0.76128  1.0000
  H   H900      1.0  0.31922  0.54006  0.50458  1.0000
  C   C763      1.0  0.26738  0.53251  0.57903  1.0000
  C   C764      1.0  0.28306  0.52559  0.57879  1.0000
  C   C765      1.0  0.28451  0.51121  0.56695  1.0000
  C   C766      1.0  0.27036  0.50376  0.55543  1.0000
  H   H901      1.0  0.45760  0.38140  0.65130  1.0000
  H   H902      1.0  0.26620  0.54362  0.58821  1.0000
  H   H903      1.0  0.29641  0.50563  0.56692  1.0000
  H   H904      1.0  0.27134  0.49230  0.54682  1.0000
  C   C767      1.0  0.46474  0.40205  0.79944  1.0000
  H   H905      1.0  0.48092  0.61925  0.72595  1.0000
  Fe  Fe98      1.0  0.24951  0.35071  0.88380  1.0000
  H   H906      1.0  0.45887  0.62017  0.71855  1.0000
  C   C768      1.0  0.28401  0.53426  0.50132  1.0000
  H   H907      1.0  0.46219  0.37235  0.77813  1.0000
  H   H908      1.0  0.39130  0.36695  0.77568  1.0000
  H   H909      1.0  0.29931  0.39112  0.97608  1.0000
  Fe  Fe99      1.0  0.47687  0.63700  0.55906  1.0000
  C   C769      1.0  0.42597  0.58077  0.68923  1.0000
  C   C770      1.0  0.41674  0.38796  0.82096  1.0000
  C   C771      1.0  0.43079  0.57247  0.58063  1.0000
  H   H910      1.0  0.44661  0.37680  0.83533  1.0000
  C   C772      1.0  0.42969  0.40742  0.78462  1.0000
  C   C773      1.0  0.44618  0.57032  0.62060  1.0000
  C   C774      1.0  0.40177  0.39592  0.82255  1.0000
  H   H911      1.0  0.39082  0.39156  0.83718  1.0000
  H   H912      1.0  0.41352  0.42556  0.77284  1.0000
  C   C775      1.0  0.44723  0.37157  0.81921  1.0000
  H   H913      1.0  0.43207  0.58660  0.58512  1.0000
  H   H914      1.0  0.41665  0.37755  0.83492  1.0000
  C   C776      1.0  0.44624  0.55521  0.65797  1.0000
  H   H915      1.0  0.28371  0.54757  0.49115  1.0000
  H   H916      1.0  0.41164  0.56098  0.51510  1.0000
  H   H917      1.0  0.40897  0.53174  0.63855  1.0000
  H   H918      1.0  0.48779  0.58897  0.73426  1.0000
  C   C777      1.0  0.41758  0.53933  0.59126  1.0000
  C   C778      1.0  0.41454  0.41508  0.78629  1.0000
  H   H919      1.0  0.45320  0.58179  0.60714  1.0000
  C   C779      1.0  0.44097  0.59041  0.69811  1.0000
  H   H920      1.0  0.41122  0.53962  0.57592  1.0000
  C   C780      1.0  0.43130  0.39364  0.80194  1.0000
  H   H921      1.0  0.28114  0.49776  0.50647  1.0000
  H   H922      1.0  0.45044  0.57745  0.76229  1.0000
  C   C781      1.0  0.45487  0.59181  0.75235  1.0000
  H   H923      1.0  0.43746  0.36710  0.77897  1.0000
  H   H924      1.0  0.46622  0.59970  0.76017  1.0000
  C   C782      1.0  0.44554  0.58243  0.71822  1.0000
  C   C783      1.0  0.41529  0.56295  0.69985  1.0000
  H   H925      1.0  0.44029  0.41261  0.76975  1.0000
  C   C784      1.0  0.45430  0.56953  0.63974  1.0000
  H   H926      1.0  0.46688  0.58023  0.64040  1.0000
  C   C785      1.0  0.42997  0.54165  0.65721  1.0000
  C   C786      1.0  0.42955  0.55673  0.61927  1.0000
  C   C787      1.0  0.40073  0.40949  0.80531  1.0000
  C   C788      1.0  0.40891  0.55978  0.49801  1.0000
  H   H927      1.0  0.44501  0.57113  0.57491  1.0000
  H   H928      1.0  0.45591  0.57179  0.82165  1.0000
  C   C789      1.0  0.28911  0.36524  0.96428  1.0000
  H   H929      1.0  0.39234  0.54902  0.61913  1.0000
  H   H930      1.0  0.34641  0.37254  0.82291  1.0000
  C   C790      1.0  0.48499  0.63242  0.50456  1.0000
  N   N53       1.0  0.42023  0.55735  0.59956  1.0000
  N   N54       1.0  0.44794  0.38642  0.80021  1.0000
  H   H931      1.0  0.42364  0.57225  0.56593  1.0000
  C   C791      1.0  0.42170  0.54241  0.63822  1.0000
  N   N55       1.0  0.33756  0.46108  0.73058  1.0000
  C   C792      1.0  0.32869  0.45451  0.71188  1.0000
  C   C793      1.0  0.34022  0.48163  0.72783  1.0000
  C   C794      1.0  0.35609  0.45740  0.72835  1.0000
  C   C795      1.0  0.32665  0.45171  0.75295  1.0000
  C   C796      1.0  0.33191  0.45822  0.77242  1.0000
  C   C797      1.0  0.31123  0.43551  0.75624  1.0000
  C   C798      1.0  0.32204  0.44946  0.79372  1.0000
  C   C799      1.0  0.30164  0.42668  0.77769  1.0000
  C   C800      1.0  0.30701  0.43366  0.79638  1.0000
  H   H932      1.0  0.31440  0.45638  0.71301  1.0000
  H   H933      1.0  0.33685  0.46242  0.69534  1.0000
  H   H934      1.0  0.32797  0.43956  0.71142  1.0000
  H   H935      1.0  0.34682  0.48885  0.71047  1.0000
  H   H936      1.0  0.34976  0.48841  0.73847  1.0000
  H   H937      1.0  0.32669  0.48498  0.73186  1.0000
  H   H938      1.0  0.36378  0.46252  0.74144  1.0000
  H   H939      1.0  0.35483  0.44213  0.73029  1.0000
  H   H940      1.0  0.36501  0.46443  0.71191  1.0000
  H   H941      1.0  0.34403  0.46985  0.77141  1.0000
  H   H942      1.0  0.30645  0.42921  0.74258  1.0000
  H   H943      1.0  0.32646  0.45453  0.80837  1.0000
  H   H944      1.0  0.29014  0.41414  0.77995  1.0000
  H   H945      1.0  0.29982  0.42654  0.81302  1.0000
  H   H946      1.0  0.43961  0.57858  0.51487  1.0000
  C   C801      1.0  0.45742  0.56329  0.80897  1.0000
  H   H947      1.0  0.49372  0.37593  0.60902  1.0000
  H   H948      1.0  0.40367  0.55547  0.69295  1.0000
  H   H949      1.0  0.49123  0.41674  0.64380  1.0000
  H   H950      1.0  0.42356  0.53059  0.67150  1.0000
  H   H951      1.0  0.47104  0.56757  0.73331  1.0000
  H   H952      1.0  0.45242  0.55476  0.67286  1.0000
  C   C802      1.0  0.47409  0.56770  0.79366  1.0000
  H   H953      1.0  0.43525  0.35906  0.82037  1.0000
  H   H954      1.0  0.46002  0.36657  0.81728  1.0000
  H   H955      1.0  0.49297  0.42642  0.71436  1.0000
  H   H956      1.0  0.46639  0.53096  0.69645  1.0000
  Fe  Fe100     1.0  0.27683  0.34382  0.91467  1.0000
  H   H957      1.0  0.47200  0.39173  0.62459  1.0000
  C   C803      1.0  0.29342  0.37613  0.98079  1.0000
  H   H958      1.0  0.48499  0.35869  0.66613  1.0000
  S   S204      1.0  0.46067  0.62217  0.59254  1.0000
  C   C804      1.0  0.35674  0.36528  0.81823  1.0000
  N   N56       1.0  0.46121  0.59223  0.72823  1.0000
  H   H959      1.0  0.26949  0.52510  0.50584  1.0000
  C   C805      1.0  0.43469  0.56399  0.72819  1.0000
  H   H960      1.0  0.47293  0.51121  0.72688  1.0000
  H   H961      1.0  0.44875  0.60406  0.68883  1.0000
  H   H962      1.0  0.48940  0.49070  0.74007  1.0000
  C   C806      1.0  0.48473  0.37242  0.67094  1.0000
  H   H963      1.0  0.30460  0.49952  0.49380  1.0000
  C   C807      1.0  0.48336  0.52425  0.72006  1.0000
  C   C808      1.0  0.44770  0.58052  0.49834  1.0000
  H   H964      1.0  0.43765  0.55663  0.74306  1.0000
  H   H965      1.0  0.38912  0.41564  0.80667  1.0000
  H   H966      1.0  0.28798  0.53738  0.51752  1.0000
  C   C809      1.0  0.25341  0.52535  0.56701  1.0000
  H   H967      1.0  0.41143  0.54058  0.72729  1.0000
  H   H968      1.0  0.36806  0.38375  0.78672  1.0000
  H   H969      1.0  0.47123  0.37038  0.68229  1.0000
  C   C810      1.0  0.46950  0.61219  0.71765  1.0000
  C   C811      1.0  0.35765  0.34959  0.83267  1.0000
  H   H970      1.0  0.42270  0.58711  0.67390  1.0000
  H   H971      1.0  0.47603  0.61374  0.69985  1.0000
  H   H972      1.0  0.47359  0.40487  0.66773  1.0000
  H   H973      1.0  0.49079  0.45868  0.71524  1.0000
  S   S205      1.0  0.47001  0.66230  0.61011  1.0000
  H   H974      1.0  0.44290  0.59795  0.75498  1.0000
  Fe  Fe101     1.0  0.49188  0.38870  0.72510  1.0000
  C   C812      1.0  0.47069  0.38161  0.64013  1.0000
  H   H975      1.0  0.47325  0.58472  0.51151  1.0000
  H   H976      1.0  0.25379  0.64996  0.63424  1.0000
  H   H977      1.0  0.30041  0.50855  0.51891  1.0000
  H   H978      1.0  0.48207  0.58370  0.70799  1.0000
  S   S206      1.0  0.46329  0.66023  0.55844  1.0000
  C   C813      1.0  0.38197  0.36207  0.79166  1.0000
  N   N57       1.0  0.48724  0.38692  0.65100  1.0000
  H   H979      1.0  0.39312  0.33919  0.80024  1.0000
  C   C814      1.0  0.46703  0.58412  0.49661  1.0000
  H   H980      1.0  0.37968  0.52156  0.49870  1.0000
  C   C815      1.0  0.48742  0.40507  0.65831  1.0000
  C   C816      1.0  0.29566  0.50702  0.50270  1.0000
  C   C817      1.0  0.49163  0.49894  0.75373  1.0000
  H   H981      1.0  0.41311  0.54740  0.49333  1.0000
  S   S207      1.0  0.49165  0.58786  0.79555  1.0000
  H   H982      1.0  0.26971  0.66540  0.52602  1.0000
  H   H983      1.0  0.46850  0.36726  0.63614  1.0000
  H   H984      1.0  0.34754  0.34544  0.84800  1.0000
  H   H985      1.0  0.39345  0.55665  0.49965  1.0000
  H   H986      1.0  0.39570  0.33826  0.85433  1.0000
  C   C818      1.0  0.38300  0.34632  0.80594  1.0000
  H   H987      1.0  0.41800  0.59576  0.50500  1.0000
  H   H988      1.0  0.25052  0.35648  0.95018  1.0000
  H   H989      1.0  0.39803  0.59100  0.49188  1.0000
  C   C819      1.0  0.47935  0.53564  0.70250  1.0000
  H   H990      1.0  0.49538  0.52918  0.77279  1.0000
  C   C820      1.0  0.37096  0.33967  0.82700  1.0000
  H   H991      1.0  0.46346  0.34119  0.77216  1.0000
  C   C821      1.0  0.47032  0.33579  0.80481  1.0000
  H   H992      1.0  0.48913  0.56124  0.67851  1.0000
  C   C822      1.0  0.49210  0.55263  0.69243  1.0000
  H   H993      1.0  0.49588  0.37615  0.68100  1.0000
  S   S208      1.0  0.49637  0.36030  0.73348  1.0000
  H   H994      1.0  0.49600  0.49010  0.76687  1.0000
  Fe  Fe102     1.0  0.30499  0.75751  0.41161  1.0000
  S   S209      1.0  0.29887  0.78333  0.39544  1.0000
  S   S210      1.0  0.28465  0.72881  0.42179  1.0000
  Fe  Fe103     1.0  0.34434  0.77862  0.41486  1.0000
  S   S211      1.0  0.34183  0.80625  0.39852  1.0000
  S   S212      1.0  0.36893  0.77585  0.43054  1.0000
  Fe  Fe104     1.0  0.31363  0.79756  0.42046  1.0000
  S   S213      1.0  0.30335  0.81881  0.43739  1.0000
  Fe  Fe105     1.0  0.32758  0.78978  0.37485  1.0000
  S   S214      1.0  0.33127  0.79842  0.33740  1.0000
  S   S215      1.0  0.31713  0.77119  0.43847  1.0000
  S   S216      1.0  0.33267  0.76266  0.38929  1.0000
  Fe  Fe106     1.0  0.46698  0.79403  0.37980  1.0000
  S   S217      1.0  0.44278  0.78605  0.36201  1.0000
  H   H995      1.0  0.37597  0.78037  0.38216  1.0000
  S   S218      1.0  0.29325  0.91081  0.09133  1.0000
  H   H996      1.0  0.40508  0.78404  0.35529  1.0000
  Fe  Fe107     1.0  0.27491  0.89076  0.12124  1.0000
  S   S219      1.0  0.28244  0.88547  0.15572  1.0000
  S   S220      1.0  0.46490  0.80285  0.45853  1.0000
  S   S221      1.0  0.29015  0.88178  0.04116  1.0000
  Fe  Fe108     1.0  0.37544  0.89335  0.25646  1.0000
  S   S222      1.0  0.38095  0.87475  0.23203  1.0000
  S   S223      1.0  0.36267  0.88397  0.29304  1.0000
  Fe  Fe109     1.0  0.39801  0.92898  0.22467  1.0000
  S   S224      1.0  0.40597  0.91314  0.19833  1.0000
  S   S225      1.0  0.40536  0.96034  0.21529  1.0000
  Fe  Fe110     1.0  0.37585  0.89650  0.20624  1.0000
  S   S226      1.0  0.36498  0.89324  0.17389  1.0000
  Fe  Fe111     1.0  0.41031  0.89317  0.22616  1.0000
  S   S227      1.0  0.43384  0.87962  0.22579  1.0000
  S   S228      1.0  0.36760  0.91351  0.23130  1.0000
  S   S229      1.0  0.40520  0.91056  0.25195  1.0000
  C   C823      1.0  0.42557  0.97384  0.22273  1.0000
  H   H997      1.0  0.47795  0.94218  0.21013  1.0000
  C   C824      1.0  0.43509  0.96608  0.23782  1.0000
  S   S230      1.0  0.47068  0.77705  0.41081  1.0000
  H   H998      1.0  0.43030  0.95133  0.24480  1.0000
  C   C825      1.0  0.28131  0.88621  0.01651  1.0000
  H   H999      1.0  0.27463  0.83716  0.35258  1.0000
  C   C826      1.0  0.33286  0.99426  0.00006  1.0000
  C   C827      1.0  0.30557  0.88833  0.16041  1.0000
  C   C828      1.0  0.30906  0.88778  0.18236  1.0000
  C   C829      1.0  0.32726  0.88971  0.18678  1.0000
  C   C830      1.0  0.34203  0.89186  0.16927  1.0000
  C   C831      1.0  0.33857  0.89268  0.14730  1.0000
  C   C832      1.0  0.32044  0.89110  0.14285  1.0000
  H   H1000     1.0  0.29759  0.88556  0.19604  1.0000
  H   H1001     1.0  0.32976  0.88897  0.20375  1.0000
  H   H1002     1.0  0.34990  0.89420  0.13367  1.0000
  H   H1003     1.0  0.31791  0.89145  0.12590  1.0000
  C   C833      1.0  0.29504  0.97272  0.08560  1.0000
  C   C834      1.0  0.29508  0.99112  0.08805  1.0000
  C   C835      1.0  0.47984  0.81061  0.47700  1.0000
  H   H1004     1.0  0.29463  0.70700  0.47844  1.0000
  C   C836      1.0  0.32893  0.98229  0.08009  1.0000
  C   C837      1.0  0.31209  0.96847  0.08121  1.0000
  C   C838      1.0  0.39210  0.81565  0.48491  1.0000
  C   C839      1.0  0.34111  0.98667  0.16582  1.0000
  H   H1005     1.0  0.31231  0.95448  0.07890  1.0000
  C   C840      1.0  0.47629  0.92730  0.21151  1.0000
  C   C841      1.0  0.45830  0.91485  0.21619  1.0000
  C   C842      1.0  0.45607  0.89559  0.21814  1.0000
  C   C843      1.0  0.47182  0.88883  0.21520  1.0000
  C   C844      1.0  0.41477  0.81143  0.45513  1.0000
  H   H1006     1.0  0.44619  0.92017  0.21846  1.0000
  H   H1007     1.0  0.47014  0.87395  0.21651  1.0000
  C   C845      1.0  0.28999  0.85135  0.38935  1.0000
  C   C846      1.0  0.26555  0.72435  0.40779  1.0000
  H   H1008     1.0  0.37643  0.80890  0.45825  1.0000
  N   N58       1.0  0.40580  0.80517  0.47898  1.0000
  H   H1009     1.0  0.43973  0.75108  0.39104  1.0000
  H   H1010     1.0  0.42520  0.84638  0.33130  1.0000
  C   C847      1.0  0.26363  0.73763  0.39065  1.0000
  H   H1011     1.0  0.38594  0.67514  0.42265  1.0000
  H   H1012     1.0  0.42453  0.99906  0.20215  1.0000
  H   H1013     1.0  0.27419  0.75082  0.38540  1.0000
  C   C848      1.0  0.30732  0.82022  0.46485  1.0000
  C   C849      1.0  0.31425  0.80715  0.47714  1.0000
  H   H1014     1.0  0.46001  0.90075  0.28384  1.0000
  H   H1015     1.0  0.45783  0.97161  0.25612  1.0000
  N   N59       1.0  0.29396  0.94405  0.15554  1.0000
  H   H1016     1.0  0.27382  0.91080  0.02422  1.0000
  H   H1017     1.0  0.31727  0.79568  0.46992  1.0000
  H   H1018     1.0  0.28201  0.70542  0.29422  1.0000
  C   C850      1.0  0.30355  0.83505  0.47446  1.0000
  H   H1019     1.0  0.29815  0.84516  0.46517  1.0000
  C   C851      1.0  0.34031  0.82220  0.32514  1.0000
  C   C852      1.0  0.35023  0.83519  0.33648  1.0000
  C   C853      1.0  0.35733  0.85406  0.32626  1.0000
  C   C854      1.0  0.35487  0.85999  0.30453  1.0000
  C   C855      1.0  0.34527  0.84696  0.29300  1.0000
  C   C856      1.0  0.33783  0.82814  0.30340  1.0000
  H   H1020     1.0  0.35241  0.83071  0.35312  1.0000
  H   H1021     1.0  0.36477  0.86413  0.33522  1.0000
  H   H1022     1.0  0.34307  0.85149  0.27635  1.0000
  H   H1023     1.0  0.33011  0.81815  0.29456  1.0000
  C   C857      1.0  0.38905  0.77823  0.41110  1.0000
  C   C858      1.0  0.40566  0.77821  0.41878  1.0000
  C   C859      1.0  0.42218  0.78105  0.40364  1.0000
  C   C860      1.0  0.42204  0.78307  0.38074  1.0000
  C   C861      1.0  0.40530  0.78255  0.37298  1.0000
  C   C862      1.0  0.38882  0.78040  0.38816  1.0000
  H   H1024     1.0  0.40581  0.77615  0.43648  1.0000
  H   H1025     1.0  0.43498  0.78156  0.40981  1.0000
  C   C863      1.0  0.26538  0.90371  0.99367  1.0000
  C   C864      1.0  0.46747  0.89408  0.27181  1.0000
  H   H1026     1.0  0.48464  0.67872  0.45746  1.0000
  H   H1027     1.0  0.40574  0.77641  0.47897  1.0000
  C   C865      1.0  0.32896  0.00060  0.08292  1.0000
  C   C866      1.0  0.45001  0.83865  0.33673  1.0000
  C   C867      1.0  0.45065  0.97757  0.24421  1.0000
  H   H1028     1.0  0.27444  0.96019  0.16202  1.0000
  H   H1029     1.0  0.26693  0.94195  0.14620  1.0000
  N   N60       1.0  0.30496  0.84901  0.37245  1.0000
  H   H1030     1.0  0.45944  0.81103  0.29637  1.0000
  H   H1031     1.0  0.28617  0.69620  0.39207  1.0000
  S   S231      1.0  0.48503  0.69774  0.34786  1.0000
  H   H1032     1.0  0.29532  0.87268  0.28901  1.0000
  H   H1033     1.0  0.27553  0.74587  0.46391  1.0000
  S   S232      1.0  0.26129  0.86969  0.10131  1.0000
  C   C868      1.0  0.30937  0.96498  0.01506  1.0000
  H   H1034     1.0  0.45555  0.71836  0.35904  1.0000
  H   H1035     1.0  0.33731  0.97066  0.19864  1.0000
  H   H1036     1.0  0.29164  0.73020  0.31554  1.0000
  H   H1037     1.0  0.29494  0.92104  0.18015  1.0000
  H   H1038     1.0  0.29183  0.84653  0.40669  1.0000
  N   N61       1.0  0.39904  0.83163  0.27571  1.0000
  C   C869      1.0  0.38102  0.81912  0.28851  1.0000
  C   C870      1.0  0.40035  0.85083  0.28008  1.0000
  C   C871      1.0  0.39842  0.83147  0.25164  1.0000
  C   C872      1.0  0.41547  0.82595  0.28174  1.0000
  C   C873      1.0  0.43349  0.83428  0.26859  1.0000
  C   C874      1.0  0.44907  0.82871  0.27365  1.0000
  H   H1039     1.0  0.37910  0.82031  0.30651  1.0000
  H   H1040     1.0  0.36894  0.82270  0.28231  1.0000
  H   H1041     1.0  0.37968  0.80423  0.28703  1.0000
  H   H1042     1.0  0.38816  0.85563  0.27595  1.0000
  H   H1043     1.0  0.41303  0.86119  0.26993  1.0000
  H   H1044     1.0  0.39910  0.81773  0.24719  1.0000
  H   H1045     1.0  0.38547  0.83433  0.24703  1.0000
  H   H1046     1.0  0.40996  0.84250  0.24045  1.0000
  H   H1047     1.0  0.43569  0.84515  0.25424  1.0000
  H   H1048     1.0  0.46259  0.83487  0.26306  1.0000
  H   H1049     1.0  0.42884  0.79691  0.32070  1.0000
  H   H1050     1.0  0.25339  0.69677  0.42728  1.0000
  C   C875      1.0  0.44731  0.81518  0.29229  1.0000
  C   C876      1.0  0.27929  0.95264  0.14901  1.0000
  H   H1051     1.0  0.28885  0.92377  0.13390  1.0000
  H   H1052     1.0  0.30717  0.82335  0.39072  1.0000
  H   H1053     1.0  0.31159  0.92845  0.14121  1.0000
  C   C877      1.0  0.30043  0.93500  0.13717  1.0000
  C   C878      1.0  0.28509  0.92907  0.17523  1.0000
  N   N62       1.0  0.44067  0.72270  0.38981  1.0000
  N   N63       1.0  0.47950  0.88390  0.28247  1.0000
  C   C879      1.0  0.48270  0.69285  0.45858  1.0000
  C   C880      1.0  0.42930  0.70297  0.39644  1.0000
  C   C881      1.0  0.43711  0.68824  0.39162  1.0000
  H   H1054     1.0  0.26691  0.72037  0.29962  1.0000
  C   C882      1.0  0.31041  0.73371  0.48248  1.0000
  C   C883      1.0  0.48978  0.90127  0.21055  1.0000
  H   H1055     1.0  0.46744  0.69125  0.46239  1.0000
  H   H1056     1.0  0.28676  0.96628  0.03969  1.0000
  C   C884      1.0  0.26172  0.74185  0.47416  1.0000
  H   H1057     1.0  0.45347  0.72217  0.41904  1.0000
  H   H1058     1.0  0.31085  0.94622  0.19378  1.0000
  H   H1059     1.0  0.43452  0.72491  0.35655  1.0000
  H   H1060     1.0  0.28411  0.96275  0.13305  1.0000
  C   C885      1.0  0.40029  0.67888  0.41401  1.0000
  H   H1061     1.0  0.40184  0.98011  0.17289  1.0000
  C   C886      1.0  0.46898  0.86810  0.30056  1.0000
  C   C887      1.0  0.33223  0.97158  0.18295  1.0000
  C   C888      1.0  0.38000  0.98218  0.12773  1.0000
  H   H1062     1.0  0.45703  0.88464  0.26430  1.0000
  C   C889      1.0  0.44673  0.72715  0.36522  1.0000
  N   N64       1.0  0.38243  0.95296  0.15239  1.0000
  C   C890      1.0  0.37269  0.94239  0.13666  1.0000
  C   C891      1.0  0.40018  0.94781  0.15312  1.0000
  C   C892      1.0  0.37054  0.94658  0.17481  1.0000
  C   C893      1.0  0.38631  0.97353  0.14611  1.0000
  C   C894      1.0  0.49300  0.89759  0.29169  1.0000
  H   H1063     1.0  0.46649  0.71664  0.39541  1.0000
  Fe  Fe112     1.0  0.27731  0.89136  0.07132  1.0000
  C   C895      1.0  0.29006  0.72197  0.33184  1.0000
  H   H1064     1.0  0.48578  0.90271  0.30561  1.0000
  H   H1065     1.0  0.37046  0.92702  0.14155  1.0000
  H   H1066     1.0  0.35858  0.94445  0.13639  1.0000
  H   H1067     1.0  0.38098  0.94640  0.11943  1.0000
  H   H1068     1.0  0.41022  0.95372  0.13718  1.0000
  H   H1069     1.0  0.39787  0.93233  0.15605  1.0000
  H   H1070     1.0  0.40711  0.95280  0.16691  1.0000
  H   H1071     1.0  0.35693  0.94981  0.17496  1.0000
  H   H1072     1.0  0.36762  0.93119  0.18023  1.0000
  H   H1073     1.0  0.37724  0.95321  0.18785  1.0000
  C   C896      1.0  0.45682  0.99674  0.23531  1.0000
  H   H1074     1.0  0.25236  0.67001  0.31454  1.0000
  H   H1075     1.0  0.47739  0.76771  0.48094  1.0000
  C   C897      1.0  0.41047  0.69772  0.40780  1.0000
  H   H1076     1.0  0.42610  0.73443  0.41461  1.0000
  S   S233      1.0  0.49636  0.79877  0.36249  1.0000
  C   C898      1.0  0.48843  0.71951  0.47775  1.0000
  C   C899      1.0  0.41426  0.81250  0.30099  1.0000
  H   H1077     1.0  0.48878  0.73715  0.33888  1.0000
  S   S234      1.0  0.47227  0.82083  0.39314  1.0000
  N   N65       1.0  0.26274  0.69639  0.32547  1.0000
  H   H1078     1.0  0.48039  0.86729  0.25656  1.0000
  C   C900      1.0  0.42683  0.66949  0.39799  1.0000
  C   C901      1.0  0.30637  0.99345  0.02785  1.0000
  C   C902      1.0  0.37773  0.81616  0.47228  1.0000
  H   H1079     1.0  0.42590  0.80450  0.45052  1.0000
  C   C903      1.0  0.30994  0.95859  0.15958  1.0000
  S   S235      1.0  0.27339  0.95548  0.08885  1.0000
  C   C904      1.0  0.49206  0.92051  0.20886  1.0000
  H   H1080     1.0  0.27965  0.93480  0.18973  1.0000
  C   C905      1.0  0.24810  0.73373  0.37998  1.0000
  H   H1081     1.0  0.49190  0.76165  0.44511  1.0000
  C   C906      1.0  0.32310  0.85862  0.37809  1.0000
  H   H1082     1.0  0.35305  0.99740  0.16812  1.0000
  H   H1083     1.0  0.31390  0.82623  0.36105  1.0000
  H   H1084     1.0  0.26390  0.69192  0.48616  1.0000
  H   H1085     1.0  0.47576  0.90557  0.25795  1.0000
  H   H1086     1.0  0.44283  0.82737  0.35053  1.0000
  C   C907      1.0  0.27353  0.90116  0.01263  1.0000
  H   H1087     1.0  0.28990  0.86628  0.38786  1.0000
  Fe  Fe113     1.0  0.26966  0.92407  0.09122  1.0000
  H   H1088     1.0  0.32466  0.88693  0.30140  1.0000
  H   H1089     1.0  0.32477  0.87388  0.37721  1.0000
  H   H1090     1.0  0.48820  0.70119  0.44152  1.0000
  C   C908      1.0  0.29717  0.86820  0.30586  1.0000
  H   H1091     1.0  0.31488  0.97584  0.12663  1.0000
  H   H1092     1.0  0.40326  0.70789  0.41205  1.0000
  C   C909      1.0  0.42999  0.80720  0.30599  1.0000
  C   C910      1.0  0.31693  0.95762  0.17994  1.0000
  C   C911      1.0  0.28155  0.87427  0.00082  1.0000
  H   H1093     1.0  0.30592  0.94496  0.12120  1.0000
  C   C912      1.0  0.27503  0.69560  0.36157  1.0000
  H   H1094     1.0  0.32439  0.85298  0.39539  1.0000
  H   H1095     1.0  0.49338  0.85917  0.30747  1.0000
  C   C913      1.0  0.31932  0.97419  0.14257  1.0000
  Fe  Fe114     1.0  0.48560  0.67046  0.36713  1.0000
  H   H1096     1.0  0.40134  0.80586  0.31248  1.0000
  C   C914      1.0  0.27620  0.70456  0.33934  1.0000
  S   S236      1.0  0.25181  0.90482  0.12193  1.0000
  H   H1097     1.0  0.37173  0.97426  0.11742  1.0000
  H   H1098     1.0  0.35352  0.82574  0.46799  1.0000
  H   H1099     1.0  0.31243  0.74302  0.33983  1.0000
  C   C915      1.0  0.43185  0.99296  0.21377  1.0000
  H   H1100     1.0  0.33503  0.85655  0.36682  1.0000
  C   C916      1.0  0.36438  0.82559  0.47785  1.0000
  H   H1101     1.0  0.40076  0.85161  0.29797  1.0000
  H   H1102     1.0  0.44087  0.87167  0.30034  1.0000
  C   C917      1.0  0.30388  0.82885  0.37451  1.0000
  C   C918      1.0  0.30245  0.85608  0.34972  1.0000
  C   C919      1.0  0.28574  0.84824  0.34202  1.0000
  C   C920      1.0  0.31640  0.87034  0.33445  1.0000
  N   N66       1.0  0.49232  0.70131  0.47580  1.0000
  C   C921      1.0  0.39594  0.78496  0.48272  1.0000
  H   H1103     1.0  0.34151  0.99975  0.13233  1.0000
  H   H1104     1.0  0.27591  0.84303  0.38784  1.0000
  H   H1105     1.0  0.28979  0.82011  0.37363  1.0000
  H   H1106     1.0  0.24921  0.72769  0.45017  1.0000
  H   H1107     1.0  0.32975  0.87693  0.33846  1.0000
  C   C922      1.0  0.44937  0.86391  0.30797  1.0000
  C   C923      1.0  0.44013  0.84938  0.32582  1.0000
  C   C924      1.0  0.48858  0.75094  0.45994  1.0000
  H   H1108     1.0  0.47687  0.83400  0.33833  1.0000
  H   H1109     1.0  0.27043  0.84787  0.31481  1.0000
  H   H1110     1.0  0.27538  0.67395  0.32140  1.0000
  C   C925      1.0  0.47851  0.85678  0.31199  1.0000
  H   H1111     1.0  0.31015  0.72609  0.37794  1.0000
  Fe  Fe115     1.0  0.47848  0.80429  0.42300  1.0000
  C   C926      1.0  0.32597  0.97500  0.00086  1.0000
  C   C927      1.0  0.46916  0.84232  0.32977  1.0000
  H   H1112     1.0  0.34202  0.97872  0.07724  1.0000
  H   H1113     1.0  0.49338  0.97964  0.22106  1.0000
  C   C928      1.0  0.48054  0.75442  0.48016  1.0000
  C   C929      1.0  0.29959  0.97419  0.02846  1.0000
  C   C930      1.0  0.39677  0.98563  0.15853  1.0000
  C   C931      1.0  0.49251  0.73381  0.45867  1.0000
  C   C932      1.0  0.31367  0.87626  0.31290  1.0000
  C   C933      1.0  0.25192  0.70714  0.41413  1.0000
  C   C934      1.0  0.45742  0.72550  0.40054  1.0000
  C   C935      1.0  0.48998  0.87705  0.26463  1.0000
  C   C936      1.0  0.30099  0.72005  0.36710  1.0000
  H   H1114     1.0  0.45517  0.74200  0.35955  1.0000
  H   H1115     1.0  0.42141  0.82679  0.45149  1.0000
  C   C937      1.0  0.28320  0.85424  0.32041  1.0000
  H   H1116     1.0  0.38515  0.78185  0.47202  1.0000
  H   H1117     1.0  0.46635  0.74019  0.39592  1.0000
  C   C938      1.0  0.43065  0.73647  0.39622  1.0000
  H   H1118     1.0  0.29819  0.99953  0.03900  1.0000
  H   H1119     1.0  0.41831  0.73589  0.38792  1.0000
  C   C939      1.0  0.28748  0.70311  0.37502  1.0000
  C   C940      1.0  0.30220  0.72954  0.34563  1.0000
  H   H1120     1.0  0.31903  0.73633  0.46609  1.0000
  H   H1121     1.0  0.27305  0.91848  0.17157  1.0000
  H   H1122     1.0  0.40477  0.80815  0.44358  1.0000
  H   H1123     1.0  0.28760  0.86271  0.00373  1.0000
  H   H1124     1.0  0.30410  0.95001  0.01579  1.0000
  H   H1125     1.0  0.45129  0.69110  0.38284  1.0000
  C   C941      1.0  0.26774  0.70564  0.30167  1.0000
  S   S237      1.0  0.25497  0.90612  0.06891  1.0000
  C   C942      1.0  0.26139  0.67620  0.32607  1.0000
  C   C943      1.0  0.33465  0.98797  0.14568  1.0000
  H   H1126     1.0  0.25793  0.69855  0.29146  1.0000
  H   H1127     1.0  0.41816  0.99486  0.26563  1.0000
  H   H1128     1.0  0.43122  0.79985  0.48707  1.0000
  H   H1129     1.0  0.26417  0.68296  0.36900  1.0000
  H   H1130     1.0  0.28195  0.99455  0.09143  1.0000
  H   H1131     1.0  0.25891  0.91500  0.99114  1.0000
  C   C944      1.0  0.49466  0.73415  0.35359  1.0000
  C   C945      1.0  0.49548  0.71596  0.36097  1.0000
  C   C946      1.0  0.29639  0.71690  0.48977  1.0000
  H   H1132     1.0  0.33356  0.96777  0.99046  1.0000
  H   H1133     1.0  0.25486  0.66753  0.34274  1.0000
  Fe  Fe116     1.0  0.32897  0.80730  0.55632  1.0000
  S   S238      1.0  0.33683  0.78198  0.54726  1.0000
  S   S239      1.0  0.31859  0.82793  0.53487  1.0000
  Fe  Fe117     1.0  0.33824  0.80139  0.60315  1.0000
  S   S240      1.0  0.34669  0.77538  0.59824  1.0000
  S   S241      1.0  0.33652  0.81193  0.63604  1.0000
  Fe  Fe118     1.0  0.36109  0.79152  0.56438  1.0000
  S   S242      1.0  0.38967  0.79045  0.54963  1.0000
  Fe  Fe119     1.0  0.32167  0.76795  0.58178  1.0000
  S   S243      1.0  0.30390  0.73812  0.58908  1.0000
  S   S244      1.0  0.35473  0.81829  0.57045  1.0000
  S   S245      1.0  0.31171  0.79248  0.58962  1.0000
  S   S246      1.0  0.44649  0.81927  0.61208  1.0000
  Fe  Fe120     1.0  0.27130  0.92095  0.85269  1.0000
  S   S247      1.0  0.28948  0.91543  0.87687  1.0000
  H   H1134     1.0  0.27336  0.98717  0.81793  1.0000
  S   S248      1.0  0.26918  0.87142  0.88152  1.0000
  Fe  Fe121     1.0  0.26303  0.89486  0.90078  1.0000
  H   H1135     1.0  0.38874  0.77995  0.50044  1.0000
  Fe  Fe122     1.0  0.29286  0.89246  0.85831  1.0000
  S   S249      1.0  0.32124  0.88734  0.84999  1.0000
  S   S250      1.0  0.27566  0.89874  0.83290  1.0000
  Fe  Fe123     1.0  0.41786  0.88188  0.72855  1.0000
  S   S251      1.0  0.42583  0.90226  0.69647  1.0000
  S   S252      1.0  0.44007  0.86905  0.73896  1.0000
  Fe  Fe124     1.0  0.37723  0.88268  0.73445  1.0000
  S   S253      1.0  0.38224  0.90281  0.70224  1.0000
  S   S254      1.0  0.34732  0.87382  0.75254  1.0000
  Fe  Fe125     1.0  0.39946  0.88519  0.68804  1.0000
  S   S255      1.0  0.40218  0.87682  0.65396  1.0000
  Fe  Fe126     1.0  0.40799  0.91763  0.71397  1.0000
  S   S256      1.0  0.41377  0.94841  0.71460  1.0000
  S   S257      1.0  0.39240  0.86375  0.71923  1.0000
  S   S258      1.0  0.40197  0.89857  0.74709  1.0000
  C   C947      1.0  0.43715  0.96202  0.70912  1.0000
  C   C948      1.0  0.44122  0.97998  0.71453  1.0000
  C   C949      1.0  0.46997  0.96732  0.69372  1.0000
  C   C950      1.0  0.45160  0.95557  0.69899  1.0000
  N   N67       1.0  0.48879  0.90195  0.67038  1.0000
  H   H1136     1.0  0.44855  0.94173  0.69477  1.0000
  C   C951      1.0  0.32940  0.88571  0.82214  1.0000
  C   C952      1.0  0.31795  0.88578  0.80612  1.0000
  C   C953      1.0  0.32387  0.88268  0.78463  1.0000
  C   C954      1.0  0.34149  0.87985  0.77882  1.0000
  C   C955      1.0  0.35343  0.88072  0.79443  1.0000
  C   C956      1.0  0.34733  0.88353  0.81611  1.0000
  H   H1137     1.0  0.30432  0.88769  0.81046  1.0000
  H   H1138     1.0  0.31467  0.88217  0.77255  1.0000
  H   H1139     1.0  0.36701  0.87842  0.79012  1.0000
  H   H1140     1.0  0.35631  0.88350  0.82842  1.0000
  C   C957      1.0  0.28770  0.97311  0.83948  1.0000
  C   C958      1.0  0.30198  0.97576  0.85234  1.0000
  H   H1141     1.0  0.30955  0.94216  0.82759  1.0000
  H   H1142     1.0  0.30489  0.96372  0.86133  1.0000
  H   H1143     1.0  0.24930  0.67916  0.54691  1.0000
  C   C959      1.0  0.27327  0.87674  0.98188  1.0000
  C   C960      1.0  0.27187  0.83530  0.78045  1.0000
  C   C961      1.0  0.32271  0.94942  0.79305  1.0000
  C   C962      1.0  0.47609  0.87835  0.74584  1.0000
  C   C963      1.0  0.46077  0.88498  0.74205  1.0000
  C   C964      1.0  0.46240  0.90416  0.74018  1.0000
  C   C965      1.0  0.42472  0.75023  0.59642  1.0000
  H   H1144     1.0  0.47485  0.86354  0.74762  1.0000
  H   H1145     1.0  0.45060  0.90940  0.73737  1.0000
  C   C966      1.0  0.41400  0.69230  0.59253  1.0000
  C   C967      1.0  0.28097  0.73477  0.58437  1.0000
  C   C968      1.0  0.26886  0.71668  0.58953  1.0000
  C   C969      1.0  0.31345  0.74712  0.49622  1.0000
  H   H1146     1.0  0.28243  0.84294  0.84453  1.0000
  H   H1147     1.0  0.40190  0.82463  0.51485  1.0000
  C   C970      1.0  0.27482  0.74961  0.57485  1.0000
  H   H1148     1.0  0.27369  0.70518  0.59670  1.0000
  H   H1149     1.0  0.44971  0.70684  0.56914  1.0000
  C   C971      1.0  0.30689  0.83702  0.49600  1.0000
  H   H1150     1.0  0.28416  0.76360  0.57069  1.0000
  C   C972      1.0  0.35553  0.82894  0.64139  1.0000
  C   C973      1.0  0.37231  0.83574  0.62613  1.0000
  C   C974      1.0  0.38670  0.85021  0.63033  1.0000
  C   C975      1.0  0.38434  0.85800  0.64971  1.0000
  C   C976      1.0  0.36774  0.85091  0.66519  1.0000
  C   C977      1.0  0.35339  0.83643  0.66102  1.0000
  H   H1151     1.0  0.37414  0.82999  0.61101  1.0000
  H   H1152     1.0  0.39963  0.85545  0.61844  1.0000
  H   H1153     1.0  0.36583  0.85677  0.68022  1.0000
  H   H1154     1.0  0.34047  0.83118  0.67292  1.0000
  C   C978      1.0  0.40551  0.79877  0.56678  1.0000
  C   C979      1.0  0.42442  0.79989  0.56055  1.0000
  C   C980      1.0  0.43713  0.80649  0.57425  1.0000
  C   C981      1.0  0.43093  0.81177  0.59430  1.0000
  C   C982      1.0  0.41205  0.81078  0.60043  1.0000
  C   C983      1.0  0.39936  0.80431  0.58666  1.0000
  H   H1155     1.0  0.42926  0.79568  0.54517  1.0000
  H   H1156     1.0  0.45172  0.80758  0.56921  1.0000
  H   H1157     1.0  0.40719  0.81493  0.61587  1.0000
  H   H1158     1.0  0.38480  0.80352  0.59155  1.0000
  C   C984      1.0  0.49307  0.89080  0.74733  1.0000
  C   C985      1.0  0.25068  0.71336  0.58507  1.0000
  H   H1159     1.0  0.41433  0.69903  0.57515  1.0000
  C   C986      1.0  0.26999  0.85759  0.80452  1.0000
  C   C987      1.0  0.27571  0.88798  0.92653  1.0000
  C   C988      1.0  0.27630  0.90843  0.92339  1.0000
  H   H1160     1.0  0.40901  0.72481  0.58930  1.0000
  H   H1161     1.0  0.42599  0.79959  0.68867  1.0000
  C   C989      1.0  0.31386  0.82408  0.50831  1.0000
  S   S259      1.0  0.48398  0.79713  0.57979  1.0000
  H   H1162     1.0  0.28802  0.88380  0.92965  1.0000
  H   H1163     1.0  0.28898  0.91877  0.92436  1.0000
  H   H1164     1.0  0.46044  0.72449  0.61417  1.0000
  N   N68       1.0  0.36849  0.94187  0.76653  1.0000
  C   C990      1.0  0.36215  0.93159  0.74875  1.0000
  C   C991      1.0  0.37832  0.96161  0.75637  1.0000
  C   C992      1.0  0.38234  0.93339  0.77574  1.0000
  C   C993      1.0  0.35221  0.94132  0.78345  1.0000
  C   C994      1.0  0.35018  0.93353  0.80637  1.0000
  C   C995      1.0  0.33790  0.94915  0.77725  1.0000
  C   C996      1.0  0.31254  0.99416  0.85347  1.0000
  C   C997      1.0  0.47935  0.91661  0.74199  1.0000
  S   S260      1.0  0.27363  0.95081  0.83651  1.0000
  H   H1165     1.0  0.35305  0.93803  0.73944  1.0000
  H   H1166     1.0  0.37414  0.93119  0.73611  1.0000
  H   H1167     1.0  0.35419  0.91684  0.75584  1.0000
  H   H1168     1.0  0.36962  0.96849  0.74685  1.0000
  H   H1169     1.0  0.39121  0.96270  0.74433  1.0000
  H   H1170     1.0  0.38253  0.97000  0.76937  1.0000
  H   H1171     1.0  0.37612  0.91828  0.78282  1.0000
  H   H1172     1.0  0.39446  0.93423  0.76257  1.0000
  H   H1173     1.0  0.38816  0.94076  0.78881  1.0000
  C   C998      1.0  0.45308  0.75013  0.61041  1.0000
  H   H1174     1.0  0.33841  0.95523  0.76015  1.0000
  H   H1175     1.0  0.26645  0.68374  0.63446  1.0000
  N   N69       1.0  0.27076  0.69469  0.51891  1.0000
  C   C999      1.0  0.25761  0.87335  0.92698  1.0000
  N   N70       1.0  0.43026  0.82938  0.68164  1.0000
  C   C1000     1.0  0.42856  0.84342  0.66318  1.0000
  C   C1001     1.0  0.42465  0.81060  0.67544  1.0000
  C   C1002     1.0  0.41671  0.82974  0.70150  1.0000
  C   C1003     1.0  0.44979  0.83334  0.68545  1.0000
  C   C1004     1.0  0.46460  0.83490  0.66765  1.0000
  C   C1005     1.0  0.45466  0.83493  0.70684  1.0000
  C   C1006     1.0  0.48307  0.83804  0.67099  1.0000
  C   C1007     1.0  0.47314  0.83768  0.71004  1.0000
  C   C1008     1.0  0.48730  0.83923  0.69217  1.0000
  H   H1176     1.0  0.43671  0.84288  0.64690  1.0000
  H   H1177     1.0  0.41390  0.84110  0.66043  1.0000
  H   H1178     1.0  0.43313  0.85782  0.66689  1.0000
  H   H1179     1.0  0.43341  0.80971  0.65969  1.0000
  H   H1180     1.0  0.40997  0.80699  0.67260  1.0000
  C   C1009     1.0  0.47393  0.98541  0.69890  1.0000
  H   H1181     1.0  0.42051  0.84347  0.70722  1.0000
  H   H1182     1.0  0.40231  0.82769  0.69782  1.0000
  H   H1183     1.0  0.41591  0.81846  0.71563  1.0000
  H   H1184     1.0  0.46199  0.83345  0.65101  1.0000
  H   H1185     1.0  0.44448  0.83406  0.72145  1.0000
  H   H1186     1.0  0.47757  0.71395  0.51389  1.0000
  H   H1187     1.0  0.47648  0.83862  0.72653  1.0000
  C   C1010     1.0  0.48607  0.68747  0.49695  1.0000
  N   N71       1.0  0.32526  0.85920  0.59737  1.0000
  C   C1011     1.0  0.31445  0.87163  0.58843  1.0000
  C   C1012     1.0  0.31598  0.83970  0.59548  1.0000
  C   C1013     1.0  0.32450  0.85999  0.62151  1.0000
  C   C1014     1.0  0.34448  0.86485  0.58434  1.0000
  C   C1015     1.0  0.36062  0.87005  0.59419  1.0000
  C   C1016     1.0  0.34748  0.86501  0.56097  1.0000
  C   C1017     1.0  0.37855  0.87499  0.58135  1.0000
  C   C1018     1.0  0.36544  0.86997  0.54830  1.0000
  C   C1019     1.0  0.38096  0.87489  0.55849  1.0000
  H   H1188     1.0  0.32152  0.88655  0.58851  1.0000
  H   H1189     1.0  0.31264  0.87032  0.57100  1.0000
  H   H1190     1.0  0.30013  0.86821  0.59842  1.0000
  H   H1191     1.0  0.31402  0.83817  0.57817  1.0000
  H   H1192     1.0  0.30194  0.83429  0.60622  1.0000
  H   H1193     1.0  0.32443  0.83021  0.60064  1.0000
  H   H1194     1.0  0.33105  0.87434  0.62429  1.0000
  H   H1195     1.0  0.30991  0.85567  0.63086  1.0000
  H   H1196     1.0  0.33159  0.85018  0.62950  1.0000
  H   H1197     1.0  0.35988  0.87009  0.61187  1.0000
  H   H1198     1.0  0.33590  0.86092  0.55237  1.0000
  H   H1199     1.0  0.39064  0.87865  0.58931  1.0000
  H   H1200     1.0  0.25822  0.83579  0.77571  1.0000
  C   C1020     1.0  0.25722  0.69198  0.50341  1.0000
  Fe  Fe127     1.0  0.48610  0.67428  0.57517  1.0000
  C   C1021     1.0  0.25994  0.69293  0.54158  1.0000
  C   C1022     1.0  0.42099  0.80755  0.49232  1.0000
  H   H1201     1.0  0.25641  0.85864  0.79999  1.0000
  C   C1023     1.0  0.44723  0.69812  0.58598  1.0000
  C   C1024     1.0  0.25691  0.82462  0.81868  1.0000
  C   C1025     1.0  0.30577  0.83528  0.79638  1.0000
  C   C1026     1.0  0.29051  0.83793  0.81080  1.0000
  C   C1027     1.0  0.32131  0.94190  0.81538  1.0000
  H   H1202     1.0  0.43015  0.98502  0.72247  1.0000
  N   N72       1.0  0.27271  0.83880  0.80357  1.0000
  H   H1203     1.0  0.46040  0.70181  0.59265  1.0000
  H   H1204     1.0  0.40128  0.69316  0.60349  1.0000
  C   C1028     1.0  0.27994  0.67933  0.51944  1.0000
  H   H1205     1.0  0.47926  0.81009  0.53274  1.0000
  H   H1206     1.0  0.31193  0.95552  0.78810  1.0000
  C   C1029     1.0  0.47289  0.80709  0.50000  1.0000
  H   H1207     1.0  0.46390  0.90227  0.69207  1.0000
  H   H1208     1.0  0.28129  0.86868  0.79301  1.0000
  H   H1209     1.0  0.32436  0.76014  0.49053  1.0000
  H   H1210     1.0  0.30550  0.83407  0.77912  1.0000
  C   C1030     1.0  0.25148  0.67757  0.63731  1.0000
  H   H1211     1.0  0.47044  0.74362  0.51507  1.0000
  C   C1031     1.0  0.32246  0.83486  0.80373  1.0000
  C   C1032     1.0  0.26502  0.89141  0.97835  1.0000
  H   H1212     1.0  0.47414  0.92335  0.67131  1.0000
  C   C1033     1.0  0.28503  0.71292  0.51124  1.0000
  H   H1213     1.0  0.45838  0.79975  0.50629  1.0000
  H   H1214     1.0  0.35397  0.84124  0.50104  1.0000
  C   C1034     1.0  0.46239  0.89419  0.64820  1.0000
  C   C1035     1.0  0.28423  0.98892  0.82793  1.0000
  C   C1036     1.0  0.45470  0.88556  0.63150  1.0000
  H   H1215     1.0  0.30500  0.75407  0.52817  1.0000
  C   C1037     1.0  0.42991  0.69031  0.62356  1.0000
  C   C1038     1.0  0.47995  0.89275  0.65316  1.0000
  H   H1216     1.0  0.25970  0.92920  0.91738  1.0000
  C   C1039     1.0  0.45957  0.99155  0.70967  1.0000
  H   H1217     1.0  0.27257  0.86679  0.97062  1.0000
  H   H1218     1.0  0.36728  0.86975  0.53054  1.0000
  C   C1040     1.0  0.25918  0.91450  0.91937  1.0000
  H   H1219     1.0  0.49423  0.98834  0.78442  1.0000
  N   N73       1.0  0.43123  0.70083  0.60088  1.0000
  H   H1220     1.0  0.28066  0.72527  0.54137  1.0000
  H   H1221     1.0  0.45422  0.90182  0.65698  1.0000
  H   H1222     1.0  0.47082  0.68449  0.50305  1.0000
  H   H1223     1.0  0.44119  0.88670  0.62814  1.0000
  C   C1041     1.0  0.48469  0.81293  0.51503  1.0000
  C   C1042     1.0  0.47723  0.91208  0.68264  1.0000
  H   H1224     1.0  0.33368  0.92794  0.83940  1.0000
  C   C1043     1.0  0.30986  0.83977  0.83997  1.0000
  H   H1225     1.0  0.41845  0.69249  0.63554  1.0000
  H   H1226     1.0  0.49370  0.69220  0.51038  1.0000
  H   H1227     1.0  0.44302  0.69457  0.63028  1.0000
  H   H1228     1.0  0.30408  0.84867  0.50313  1.0000
  H   H1229     1.0  0.46533  0.75754  0.61630  1.0000
  H   H1230     1.0  0.48857  0.86533  0.61461  1.0000
  C   C1044     1.0  0.32450  0.83710  0.82546  1.0000
  H   H1231     1.0  0.41559  0.80178  0.51029  1.0000
  C   C1045     1.0  0.45010  0.73115  0.60918  1.0000
  H   H1232     1.0  0.44275  0.77437  0.60510  1.0000
  H   H1233     1.0  0.25524  0.82744  0.83605  1.0000
  H   H1234     1.0  0.41496  0.75780  0.59142  1.0000
  C   C1046     1.0  0.48126  0.87347  0.62393  1.0000
  C   C1047     1.0  0.25658  0.74627  0.57038  1.0000
  H   H1235     1.0  0.25189  0.75777  0.56288  1.0000
  H   H1236     1.0  0.26911  0.69393  0.55437  1.0000
  C   C1048     1.0  0.28849  0.72693  0.52482  1.0000
  H   H1237     1.0  0.25225  0.70380  0.54223  1.0000
  S   S261      1.0  0.49675  0.00042  0.69156  1.0000
  H   H1238     1.0  0.32346  0.99613  0.86337  1.0000
  C   C1049     1.0  0.43415  0.72102  0.60171  1.0000
  H   H1239     1.0  0.33418  0.83359  0.79218  1.0000
  H   H1240     1.0  0.39490  0.87847  0.54871  1.0000
  C   C1050     1.0  0.48914  0.88216  0.64041  1.0000
  H   H1241     1.0  0.44491  0.68325  0.58385  1.0000
  H   H1242     1.0  0.27102  0.75535  0.50093  1.0000
  H   H1243     1.0  0.36001  0.92684  0.81272  1.0000
  Fe  Fe128     1.0  0.47536  0.81738  0.59999  1.0000
  H   H1244     1.0  0.48105  0.96248  0.68550  1.0000
  C   C1051     1.0  0.48067  0.72369  0.49831  1.0000
  H   H1245     1.0  0.27366  0.82126  0.77859  1.0000
  H   H1246     1.0  0.48053  0.93142  0.74051  1.0000
  C   C1052     1.0  0.42151  0.73118  0.59526  1.0000
  C   C1053     1.0  0.46406  0.87513  0.61948  1.0000
  H   H1247     1.0  0.25008  0.70329  0.50262  1.0000
  H   H1248     1.0  0.26988  0.86107  0.82152  1.0000
  H   H1249     1.0  0.49383  0.95574  0.78784  1.0000
  C   C1054     1.0  0.37832  0.83386  0.50942  1.0000
  H   H1250     1.0  0.29067  0.68123  0.53037  1.0000
  H   H1251     1.0  0.41223  0.67711  0.59219  1.0000
  C   C1055     1.0  0.44041  0.75965  0.60407  1.0000
  C   C1056     1.0  0.33499  0.93399  0.82201  1.0000
  H   H1252     1.0  0.45791  0.86814  0.60684  1.0000
  Fe  Fe129     1.0  0.25135  0.87849  0.85713  1.0000
  H   H1253     1.0  0.28277  0.84614  0.76803  1.0000
  H   H1254     1.0  0.33770  0.83747  0.83080  1.0000
  H   H1255     1.0  0.32291  0.79902  0.50826  1.0000
  H   H1256     1.0  0.48865  0.67379  0.49477  1.0000
  H   H1257     1.0  0.37816  0.84017  0.52428  1.0000
  C   C1057     1.0  0.30252  0.74371  0.51735  1.0000
  H   H1258     1.0  0.25881  0.81033  0.81930  1.0000
  C   C1058     1.0  0.29311  0.84021  0.83283  1.0000
  H   H1259     1.0  0.31180  0.84236  0.85656  1.0000
  H   H1260     1.0  0.48437  0.91898  0.69525  1.0000
  C   C1059     1.0  0.39196  0.82477  0.50377  1.0000
  H   H1261     1.0  0.28693  0.67851  0.50261  1.0000
  H   H1262     1.0  0.25745  0.85883  0.93084  1.0000
  C   C1060     1.0  0.36463  0.83436  0.49644  1.0000
  C   C1061     1.0  0.25923  0.74712  0.49500  1.0000
  C   C1062     1.0  0.47663  0.74083  0.49931  1.0000
  H   H1263     1.0  0.47918  0.87709  0.69545  1.0000
  C   C1063     1.0  0.49477  0.90996  0.74540  1.0000
  H   H1264     1.0  0.49415  0.83932  0.65709  1.0000
  H   H1265     1.0  0.49467  0.74223  0.55091  1.0000
  C   C1064     1.0  0.31743  0.80902  0.49893  1.0000
  H   H1266     1.0  0.42711  0.67495  0.62364  1.0000
  S   S262      1.0  0.49219  0.81256  0.62635  1.0000
  C   C1065     1.0  0.49241  0.88776  0.68716  1.0000
  S   S263      1.0  0.25042  0.89214  0.95832  1.0000
  S   S264      1.0  0.49612  0.70451  0.55832  1.0000
  H   H1267     1.0  0.42890  0.82250  0.49049  1.0000
  Fe  Fe130     1.0  0.54624  0.28872  0.38321  1.0000
  S   S265      1.0  0.54602  0.26011  0.40060  1.0000
  C   C1066     1.0  0.53516  0.17208  0.45699  1.0000
  C   C1067     1.0  0.58292  0.23123  0.48634  1.0000
  Fe  Fe131     1.0  0.65326  0.04777  0.20016  1.0000
  S   S266      1.0  0.64613  0.06998  0.17780  1.0000
  S   S267      1.0  0.64920  0.02066  0.18712  1.0000
  Fe  Fe132     1.0  0.66841  0.07463  0.23049  1.0000
  S   S268      1.0  0.66283  0.09914  0.21007  1.0000
  S   S269      1.0  0.67976  0.07496  0.26280  1.0000
  Fe  Fe133     1.0  0.63542  0.07896  0.20913  1.0000
  S   S270      1.0  0.60984  0.08936  0.21595  1.0000
  Fe  Fe134     1.0  0.67406  0.08808  0.18042  1.0000
  S   S271      1.0  0.69033  0.10555  0.14760  1.0000
  S   S272      1.0  0.64006  0.05503  0.23160  1.0000
  S   S273      1.0  0.68209  0.06520  0.20071  1.0000
  H   H1268     1.0  0.53756  0.25894  0.35619  1.0000
  S   S274      1.0  0.54206  0.06331  0.16599  1.0000
  C   C1068     1.0  0.52916  0.31816  0.27050  1.0000
  H   H1269     1.0  0.59624  0.17714  0.45016  1.0000
  Fe  Fe135     1.0  0.70045  0.15311  0.34004  1.0000
  S   S275      1.0  0.68978  0.17812  0.34378  1.0000
  S   S276      1.0  0.69950  0.14926  0.30418  1.0000
  Fe  Fe136     1.0  0.70993  0.15107  0.38721  1.0000
  S   S277      1.0  0.69980  0.17581  0.39363  1.0000
  S   S278      1.0  0.72347  0.13983  0.41453  1.0000
  Fe  Fe137     1.0  0.67590  0.16266  0.37791  1.0000
  S   S279      1.0  0.64643  0.16005  0.39373  1.0000
  Fe  Fe138     1.0  0.71476  0.18866  0.35899  1.0000
  H   H1270     1.0  0.73847  0.01709  0.16116  1.0000
  S   S280      1.0  0.68476  0.13672  0.37367  1.0000
  S   S281      1.0  0.72664  0.16479  0.35314  1.0000
  Fe  Fe139     1.0  0.52808  0.16754  0.35746  1.0000
  Fe  Fe140     1.0  0.56314  0.15626  0.34406  1.0000
  S   S282      1.0  0.55109  0.12725  0.36311  1.0000
  S   S283      1.0  0.59241  0.16533  0.32499  1.0000
  S   S284      1.0  0.53849  0.15625  0.32757  1.0000
  S   S285      1.0  0.55405  0.16999  0.37210  1.0000
  C   C1069     1.0  0.63168  0.16181  0.37441  1.0000
  C   C1070     1.0  0.63862  0.17199  0.35281  1.0000
  C   C1071     1.0  0.62653  0.17314  0.33756  1.0000
  C   C1072     1.0  0.60747  0.16429  0.34405  1.0000
  C   C1073     1.0  0.60051  0.15434  0.36574  1.0000
  C   C1074     1.0  0.61260  0.15309  0.38090  1.0000
  H   H1271     1.0  0.65319  0.17935  0.34795  1.0000
  H   H1272     1.0  0.63192  0.18108  0.32088  1.0000
  H   H1273     1.0  0.58582  0.14749  0.37092  1.0000
  H   H1274     1.0  0.60716  0.14520  0.39762  1.0000
  C   C1075     1.0  0.68970  0.15081  0.46525  1.0000
  C   C1076     1.0  0.69665  0.14675  0.44469  1.0000
  C   C1077     1.0  0.71427  0.14366  0.44095  1.0000
  C   C1078     1.0  0.72481  0.14432  0.45816  1.0000
  H   H1275     1.0  0.73840  0.14177  0.45543  1.0000
  H   H1276     1.0  0.68818  0.14572  0.43182  1.0000
  H   H1277     1.0  0.50249  0.13328  0.26624  1.0000
  C   C1079     1.0  0.68512  0.09563  0.27432  1.0000
  C   C1080     1.0  0.68996  0.09488  0.29566  1.0000
  C   C1081     1.0  0.69409  0.11110  0.30535  1.0000
  C   C1082     1.0  0.69375  0.12823  0.29349  1.0000
  C   C1083     1.0  0.68898  0.12898  0.27216  1.0000
  C   C1084     1.0  0.68451  0.11274  0.26270  1.0000
  H   H1278     1.0  0.69050  0.08168  0.30473  1.0000
  H   H1279     1.0  0.69790  0.11039  0.32172  1.0000
  H   H1280     1.0  0.68878  0.14220  0.26285  1.0000
  H   H1281     1.0  0.68089  0.11351  0.24627  1.0000
  C   C1085     1.0  0.59120  0.08172  0.20192  1.0000
  C   C1086     1.0  0.59251  0.07080  0.18532  1.0000
  C   C1087     1.0  0.57735  0.06510  0.17438  1.0000
  C   C1088     1.0  0.56084  0.07021  0.18008  1.0000
  C   C1089     1.0  0.55965  0.08125  0.19655  1.0000
  C   C1090     1.0  0.57479  0.08700  0.20738  1.0000
  H   H1282     1.0  0.60511  0.06668  0.18093  1.0000
  H   H1283     1.0  0.57840  0.05668  0.16152  1.0000
  H   H1284     1.0  0.54722  0.08574  0.20058  1.0000
  H   H1285     1.0  0.57373  0.09558  0.22000  1.0000
  C   C1091     1.0  0.71271  0.10264  0.13968  1.0000
  C   C1092     1.0  0.72055  0.10539  0.11698  1.0000
  C   C1093     1.0  0.55002  0.15361  0.48004  1.0000
  C   C1094     1.0  0.50573  0.08857  0.27545  1.0000
  H   H1286     1.0  0.52887  0.21444  0.46858  1.0000
  C   C1095     1.0  0.72267  0.09724  0.15579  1.0000
  H   H1287     1.0  0.71297  0.10969  0.10443  1.0000
  C   C1096     1.0  0.70036  0.15201  0.48224  1.0000
  C   C1097     1.0  0.51498  0.32114  0.25902  1.0000
  H   H1288     1.0  0.71688  0.09539  0.17333  1.0000
  C   C1098     1.0  0.53900  0.24147  0.38625  1.0000
  C   C1099     1.0  0.53673  0.22305  0.39679  1.0000
  C   C1100     1.0  0.53079  0.20798  0.38572  1.0000
  H   H1289     1.0  0.53939  0.22039  0.41360  1.0000
  H   H1290     1.0  0.52861  0.19378  0.39412  1.0000
  H   H1291     1.0  0.59834  0.20133  0.37194  1.0000
  H   H1292     1.0  0.59073  0.22803  0.35209  1.0000
  C   C1101     1.0  0.52696  0.21131  0.36413  1.0000
  H   H1293     1.0  0.73540  0.19679  0.31896  1.0000
  H   H1294     1.0  0.56765  0.26810  0.46708  1.0000
  N   N74       1.0  0.63776  0.12164  0.32502  1.0000
  C   C1102     1.0  0.64614  0.14001  0.31010  1.0000
  C   C1103     1.0  0.61920  0.12139  0.33711  1.0000
  C   C1104     1.0  0.64989  0.12000  0.34189  1.0000
  C   C1105     1.0  0.63556  0.10652  0.31157  1.0000
  C   C1106     1.0  0.64413  0.09173  0.31476  1.0000
  C   C1107     1.0  0.62445  0.10630  0.29465  1.0000
  C   C1108     1.0  0.62231  0.09229  0.28152  1.0000
  H   H1295     1.0  0.64970  0.15160  0.31969  1.0000
  H   H1296     1.0  0.65932  0.14006  0.29931  1.0000
  H   H1297     1.0  0.63666  0.14375  0.29906  1.0000
  H   H1298     1.0  0.61006  0.12552  0.32577  1.0000
  H   H1299     1.0  0.62046  0.13132  0.34904  1.0000
  H   H1300     1.0  0.61177  0.10727  0.34698  1.0000
  H   H1301     1.0  0.66436  0.12086  0.33386  1.0000
  H   H1302     1.0  0.65112  0.13157  0.35176  1.0000
  H   H1303     1.0  0.64422  0.10674  0.35417  1.0000
  H   H1304     1.0  0.65309  0.09082  0.32690  1.0000
  H   H1305     1.0  0.61752  0.11709  0.29140  1.0000
  H   H1306     1.0  0.61409  0.09245  0.26837  1.0000
  Fe  Fe141     1.0  0.53972  0.14078  0.39017  1.0000
  C   C1109     1.0  0.59616  0.32059  0.43986  1.0000
  S   S286      1.0  0.52121  0.29950  0.39054  1.0000
  S   S287      1.0  0.55271  0.30064  0.34644  1.0000
  C   C1110     1.0  0.53573  0.24480  0.36444  1.0000
  H   H1307     1.0  0.50379  0.23594  0.30675  1.0000
  Fe  Fe142     1.0  0.51442  0.06420  0.18484  1.0000
  C   C1111     1.0  0.57046  0.02013  0.21118  1.0000
  H   H1308     1.0  0.61960  0.17922  0.41799  1.0000
  H   H1309     1.0  0.55640  0.13030  0.46671  1.0000
  H   H1310     1.0  0.52985  0.16299  0.42603  1.0000
  H   H1311     1.0  0.73075  0.21414  0.29956  1.0000
  S   S288      1.0  0.50585  0.31476  0.33509  1.0000
  C   C1112     1.0  0.50327  0.10501  0.26420  1.0000
  H   H1312     1.0  0.62965  0.06741  0.27461  1.0000
  S   S289      1.0  0.51374  0.10134  0.33596  1.0000
  N   N75       1.0  0.56859  0.12334  0.27623  1.0000
  C   C1113     1.0  0.56543  0.10369  0.28739  1.0000
  C   C1114     1.0  0.56121  0.13337  0.29309  1.0000
  C   C1115     1.0  0.55753  0.12346  0.25807  1.0000
  C   C1116     1.0  0.58863  0.13181  0.26671  1.0000
  C   C1117     1.0  0.59905  0.14908  0.27134  1.0000
  C   C1118     1.0  0.59828  0.12297  0.25191  1.0000
  C   C1119     1.0  0.61804  0.15650  0.26245  1.0000
  C   C1120     1.0  0.61728  0.13053  0.24306  1.0000
  C   C1121     1.0  0.62718  0.14719  0.24846  1.0000
  H   H1313     1.0  0.57437  0.10289  0.30029  1.0000
  H   H1314     1.0  0.55065  0.09740  0.29596  1.0000
  H   H1315     1.0  0.56825  0.09439  0.27549  1.0000
  H   H1316     1.0  0.56910  0.13403  0.30716  1.0000
  H   H1317     1.0  0.54638  0.12629  0.30067  1.0000
  H   H1318     1.0  0.56154  0.14785  0.28565  1.0000
  H   H1319     1.0  0.56127  0.11504  0.24551  1.0000
  H   H1320     1.0  0.54233  0.11751  0.26464  1.0000
  H   H1321     1.0  0.55956  0.13796  0.24914  1.0000
  H   H1322     1.0  0.59285  0.15721  0.28175  1.0000
  H   H1323     1.0  0.59123  0.11006  0.24710  1.0000
  H   H1324     1.0  0.62564  0.16962  0.26647  1.0000
  H   H1325     1.0  0.62441  0.12331  0.23212  1.0000
  H   H1326     1.0  0.64193  0.15292  0.24170  1.0000
  C   C1122     1.0  0.59273  0.20830  0.40521  1.0000
  H   H1327     1.0  0.60699  0.31364  0.44406  1.0000
  C   C1123     1.0  0.63100  0.07808  0.28501  1.0000
  H   H1328     1.0  0.61931  0.19160  0.39134  1.0000
  C   C1124     1.0  0.64175  0.07774  0.30166  1.0000
  C   C1125     1.0  0.53550  0.16037  0.44103  1.0000
  H   H1329     1.0  0.56617  0.23585  0.46160  1.0000
  H   H1330     1.0  0.62610  0.20442  0.41277  1.0000
  C   C1126     1.0  0.54315  0.14528  0.44454  1.0000
  C   C1127     1.0  0.55049  0.14198  0.46400  1.0000
  C   C1128     1.0  0.54299  0.31052  0.45165  1.0000
  N   N76       1.0  0.69749  0.03707  0.14046  1.0000
  S   S290      1.0  0.51716  0.19272  0.35094  1.0000
  H   H1331     1.0  0.52705  0.23230  0.33664  1.0000
  C   C1129     1.0  0.58442  0.23949  0.38148  1.0000
  C   C1130     1.0  0.59420  0.21113  0.38162  1.0000
  H   H1332     1.0  0.60299  0.20206  0.44698  1.0000
  H   H1333     1.0  0.58541  0.22094  0.43425  1.0000
  S   S291      1.0  0.51154  0.06025  0.22208  1.0000
  H   H1334     1.0  0.67723  0.05116  0.15213  1.0000
  C   C1131     1.0  0.50722  0.11683  0.48363  1.0000
  C   C1132     1.0  0.50872  0.08752  0.29760  1.0000
  Fe  Fe143     1.0  0.52543  0.12798  0.34887  1.0000
  N   N77       1.0  0.63194  0.12671  0.15065  1.0000
  C   C1133     1.0  0.64155  0.11264  0.15815  1.0000
  C   C1134     1.0  0.64461  0.14060  0.13189  1.0000
  C   C1135     1.0  0.62858  0.13660  0.16956  1.0000
  C   C1136     1.0  0.61464  0.11736  0.14311  1.0000
  C   C1137     1.0  0.59665  0.11839  0.15262  1.0000
  C   C1138     1.0  0.61549  0.10675  0.12569  1.0000
  C   C1139     1.0  0.58065  0.10929  0.14509  1.0000
  C   C1140     1.0  0.59935  0.09752  0.11851  1.0000
  C   C1141     1.0  0.58197  0.09875  0.12825  1.0000
  H   H1335     1.0  0.64643  0.10573  0.14449  1.0000
  H   H1336     1.0  0.65426  0.11893  0.16486  1.0000
  H   H1337     1.0  0.63204  0.10155  0.17154  1.0000
  H   H1338     1.0  0.64921  0.13394  0.11782  1.0000
  H   H1339     1.0  0.65761  0.14823  0.13712  1.0000
  H   H1340     1.0  0.63767  0.15109  0.12521  1.0000
  H   H1341     1.0  0.61949  0.12669  0.18443  1.0000
  H   H1342     1.0  0.64181  0.14321  0.17505  1.0000
  H   H1343     1.0  0.62203  0.14799  0.16491  1.0000
  H   H1344     1.0  0.59443  0.12576  0.16622  1.0000
  H   H1345     1.0  0.62864  0.10530  0.11767  1.0000
  H   H1346     1.0  0.56698  0.10977  0.15294  1.0000
  H   H1347     1.0  0.60027  0.08915  0.10554  1.0000
  H   H1348     1.0  0.56939  0.09117  0.12315  1.0000
  H   H1349     1.0  0.58697  0.17328  0.39435  1.0000
  C   C1142     1.0  0.58998  0.22643  0.37003  1.0000
  H   H1350     1.0  0.56927  0.17479  0.41569  1.0000
  H   H1351     1.0  0.58529  0.16140  0.42190  1.0000
  H   H1352     1.0  0.58082  0.25118  0.37251  1.0000
  H   H1353     1.0  0.50829  0.13154  0.30515  1.0000
  H   H1354     1.0  0.58473  0.31689  0.45453  1.0000
  H   H1355     1.0  0.58989  0.31417  0.42639  1.0000
  C   C1143     1.0  0.58304  0.23728  0.40457  1.0000
  H   H1356     1.0  0.59230  0.00725  0.21699  1.0000
  C   C1144     1.0  0.52979  0.22975  0.35340  1.0000
  H   H1357     1.0  0.57875  0.18926  0.44865  1.0000
  S   S292      1.0  0.54387  0.13043  0.42487  1.0000
  H   H1358     1.0  0.54882  0.28780  0.47191  1.0000
  C   C1145     1.0  0.51836  0.25553  0.47179  1.0000
  H   H1359     1.0  0.52917  0.18370  0.45421  1.0000
  C   C1146     1.0  0.57469  0.25997  0.47698  1.0000
  H   H1360     1.0  0.64888  0.06688  0.30386  1.0000
  C   C1147     1.0  0.68098  0.04407  0.13803  1.0000
  H   H1361     1.0  0.52524  0.26250  0.31872  1.0000
  H   H1362     1.0  0.73007  0.04825  0.10717  1.0000
  H   H1363     1.0  0.54198  0.31686  0.26132  1.0000
  H   H1364     1.0  0.71412  0.00552  0.06894  1.0000
  C   C1148     1.0  0.52582  0.22599  0.47585  1.0000
  C   C1149     1.0  0.70242  0.02858  0.12086  1.0000
  H   H1365     1.0  0.66831  0.03262  0.13799  1.0000
  C   C1150     1.0  0.51013  0.31821  0.30575  1.0000
  C   C1151     1.0  0.71957  0.03594  0.10551  1.0000
  S   S293      1.0  0.56580  0.31326  0.39236  1.0000
  C   C1152     1.0  0.55205  0.01737  0.20768  1.0000
  H   H1366     1.0  0.71892  0.19237  0.42877  1.0000
  C   C1153     1.0  0.54922  0.31086  0.48935  1.0000
  H   H1367     1.0  0.54725  0.02977  0.20492  1.0000
  H   H1368     1.0  0.57899  0.03411  0.21122  1.0000
  H   H1369     1.0  0.70461  0.01654  0.16306  1.0000
  H   H1370     1.0  0.72850  0.18263  0.45074  1.0000
  C   C1154     1.0  0.54706  0.30168  0.47113  1.0000
  C   C1155     1.0  0.52689  0.31704  0.29379  1.0000
  H   H1371     1.0  0.51575  0.26707  0.46122  1.0000
  S   S294      1.0  0.49904  0.10679  0.23672  1.0000
  S   S295      1.0  0.50041  0.08748  0.18170  1.0000
  C   C1156     1.0  0.73007  0.19570  0.43894  1.0000
  C   C1157     1.0  0.54082  0.32856  0.45041  1.0000
  S   S296      1.0  0.51267  0.13909  0.37777  1.0000
  C   C1158     1.0  0.69297  0.02289  0.16118  1.0000
  H   H1372     1.0  0.74629  0.22069  0.26058  1.0000
  N   N78       1.0  0.59656  0.19154  0.41715  1.0000
  C   C1159     1.0  0.58405  0.17452  0.41212  1.0000
  H   H1373     1.0  0.71588  0.06479  0.12905  1.0000
  C   C1160     1.0  0.50765  0.11956  0.29693  1.0000
  H   H1374     1.0  0.73555  0.19709  0.25811  1.0000
  H   H1375     1.0  0.52227  0.24056  0.44478  1.0000
  C   C1161     1.0  0.59350  0.19007  0.44181  1.0000
  Fe  Fe144     1.0  0.52901  0.31336  0.35440  1.0000
  C   C1162     1.0  0.50433  0.12051  0.27494  1.0000
  C   C1163     1.0  0.51434  0.01264  0.20156  1.0000
  C   C1164     1.0  0.72366  0.02755  0.08713  1.0000
  H   H1376     1.0  0.57835  0.24737  0.41331  1.0000
  H   H1377     1.0  0.49949  0.00928  0.19939  1.0000
  C   C1165     1.0  0.51481  0.27033  0.31576  1.0000
  Fe  Fe145     1.0  0.54134  0.32504  0.39675  1.0000
  H   H1378     1.0  0.72565  0.04897  0.14533  1.0000
  H   H1379     1.0  0.70864  0.05885  0.15851  1.0000
  S   S297      1.0  0.51813  0.32235  0.22992  1.0000
  C   C1166     1.0  0.58707  0.22193  0.41639  1.0000
  C   C1167     1.0  0.61620  0.19173  0.40952  1.0000
  H   H1380     1.0  0.58202  0.21694  0.48407  1.0000
  C   C1168     1.0  0.73796  0.10211  0.11040  1.0000
  C   C1169     1.0  0.57390  0.24179  0.47377  1.0000
  H   H1381     1.0  0.69003  0.02911  0.17634  1.0000
  H   H1382     1.0  0.52249  0.02317  0.18671  1.0000
  H   H1383     1.0  0.68020  0.01141  0.16172  1.0000
  C   C1170     1.0  0.71265  0.05305  0.14339  1.0000
  Fe  Fe146     1.0  0.57003  0.32634  0.35652  1.0000
  C   C1171     1.0  0.74016  0.09422  0.14924  1.0000
  C   C1172     1.0  0.50970  0.10301  0.30837  1.0000
  C   C1173     1.0  0.68968  0.01257  0.11644  1.0000
  H   H1384     1.0  0.54151  0.30337  0.43756  1.0000
  H   H1385     1.0  0.51699  0.28174  0.32573  1.0000
  H   H1386     1.0  0.72062  0.19003  0.29923  1.0000
  H   H1387     1.0  0.74371  0.10385  0.09286  1.0000
  C   C1174     1.0  0.71793  0.14866  0.47876  1.0000
  H   H1388     1.0  0.68360  0.05440  0.12233  1.0000
  C   C1175     1.0  0.50076  0.13230  0.48674  1.0000
  H   H1389     1.0  0.72700  0.20642  0.44863  1.0000
  H   H1390     1.0  0.73681  0.03343  0.07562  1.0000
  C   C1176     1.0  0.54226  0.16862  0.47658  1.0000
  C   C1177     1.0  0.52208  0.24063  0.46247  1.0000
  H   H1391     1.0  0.51498  0.01923  0.21672  1.0000
  H   H1392     1.0  0.53791  0.31482  0.30249  1.0000
  H   H1393     1.0  0.67602  0.15317  0.46791  1.0000
  C   C1178     1.0  0.73356  0.20022  0.30144  1.0000
  H   H1394     1.0  0.51827  0.27730  0.29793  1.0000
  C   C1179     1.0  0.54691  0.32886  0.48829  1.0000
  H   H1395     1.0  0.50527  0.07672  0.26708  1.0000
  H   H1396     1.0  0.63279  0.01245  0.23415  1.0000
  S   S298      1.0  0.73036  0.21923  0.35124  1.0000
  C   C1180     1.0  0.49851  0.32296  0.27092  1.0000
  C   C1181     1.0  0.69391  0.00434  0.09797  1.0000
  H   H1397     1.0  0.51048  0.07474  0.30638  1.0000
  C   C1182     1.0  0.71088  0.01181  0.08335  1.0000
  H   H1398     1.0  0.67624  0.00643  0.12717  1.0000
  H   H1399     1.0  0.50832  0.11273  0.46730  1.0000
  C   C1183     1.0  0.63284  0.00103  0.20382  1.0000
  H   H1400     1.0  0.73793  0.21664  0.39929  1.0000
  C   C1184     1.0  0.74220  0.01176  0.14613  1.0000
  H   H1401     1.0  0.73984  0.18338  0.40244  1.0000
  C   C1185     1.0  0.57798  0.00501  0.21449  1.0000
  H   H1402     1.0  0.73731  0.17081  0.28405  1.0000
  H   H1403     1.0  0.49711  0.27447  0.35875  1.0000
  H   H1404     1.0  0.68340  0.04518  0.83455  1.0000
  S   S299      1.0  0.58701  0.28216  0.59907  1.0000
  Fe  Fe147     1.0  0.68224  0.07278  0.73454  1.0000
  S   S300      1.0  0.67731  0.04908  0.71513  1.0000
  S   S301      1.0  0.70959  0.07688  0.74748  1.0000
  Fe  Fe148     1.0  0.64570  0.08120  0.72703  1.0000
  S   S302      1.0  0.63793  0.05763  0.70844  1.0000
  S   S303      1.0  0.62518  0.09837  0.72611  1.0000
  Fe  Fe149     1.0  0.64821  0.04117  0.73445  1.0000
  H   H1405     1.0  0.55548  0.15087  0.49512  1.0000
  Fe  Fe150     1.0  0.66766  0.06808  0.69090  1.0000
  S   S304      1.0  0.67093  0.07128  0.65348  1.0000
  S   S305      1.0  0.65341  0.06381  0.75516  1.0000
  S   S306      1.0  0.67510  0.09260  0.70826  1.0000
  S   S307      1.0  0.54458  0.04206  0.75604  1.0000
  Fe  Fe151     1.0  0.72480  0.16057  0.57427  1.0000
  S   S308      1.0  0.72769  0.18945  0.58187  1.0000
  S   S309      1.0  0.73440  0.14143  0.59850  1.0000
  Fe  Fe152     1.0  0.70781  0.16811  0.53300  1.0000
  S   S310      1.0  0.70969  0.19774  0.53709  1.0000
  S   S311      1.0  0.69087  0.15755  0.50747  1.0000
  Fe  Fe153     1.0  0.73815  0.19877  0.54506  1.0000
  H   H1406     1.0  0.55933  0.03426  0.71312  1.0000
  Fe  Fe154     1.0  0.69910  0.18580  0.57342  1.0000
  S   S312      1.0  0.67480  0.19041  0.59558  1.0000
  C   C1186     1.0  0.58653  0.02083  0.72670  1.0000
  S   S313      1.0  0.69538  0.15609  0.56896  1.0000
  Fe  Fe155     1.0  0.54883  0.18789  0.57409  1.0000
  Fe  Fe156     1.0  0.58667  0.18878  0.54881  1.0000
  S   S314      1.0  0.57504  0.16384  0.53355  1.0000
  S   S315      1.0  0.61638  0.20555  0.53634  1.0000
  Fe  Fe157     1.0  0.55202  0.17698  0.52811  1.0000
  H   H1407     1.0  0.60927  0.09249  0.61389  1.0000
  S   S316      1.0  0.56497  0.20283  0.54073  1.0000
  S   S317      1.0  0.57178  0.17600  0.58376  1.0000
  H   H1408     1.0  0.54635  0.12225  0.53343  1.0000
  C   C1187     1.0  0.73507  0.03244  0.78197  1.0000
  H   H1409     1.0  0.54924  0.23511  0.52964  1.0000
  C   C1188     1.0  0.65872  0.19689  0.58023  1.0000
  C   C1189     1.0  0.63968  0.19132  0.58947  1.0000
  C   C1190     1.0  0.62648  0.19411  0.57623  1.0000
  C   C1191     1.0  0.63239  0.20294  0.55391  1.0000
  C   C1192     1.0  0.65146  0.20933  0.54505  1.0000
  C   C1193     1.0  0.66458  0.20622  0.55814  1.0000
  H   H1410     1.0  0.63514  0.18443  0.60670  1.0000
  H   H1411     1.0  0.61181  0.18943  0.58332  1.0000
  H   H1412     1.0  0.65612  0.21633  0.52786  1.0000
  H   H1413     1.0  0.67924  0.21107  0.55112  1.0000
  H   H1414     1.0  0.66344  0.02559  0.77466  1.0000
  C   C1194     1.0  0.68857  0.09087  0.63847  1.0000
  C   C1195     1.0  0.70345  0.09953  0.64818  1.0000
  C   C1196     1.0  0.71749  0.11505  0.63580  1.0000
  C   C1197     1.0  0.71642  0.12229  0.61392  1.0000
  C   C1198     1.0  0.70128  0.11391  0.60442  1.0000
  C   C1199     1.0  0.68749  0.09811  0.61660  1.0000
  H   H1415     1.0  0.70439  0.09399  0.66504  1.0000
  H   H1416     1.0  0.72919  0.12145  0.64321  1.0000
  H   H1417     1.0  0.70055  0.11918  0.58742  1.0000
  H   H1418     1.0  0.67604  0.09142  0.60901  1.0000
  C   C1200     1.0  0.60252  0.08335  0.73491  1.0000
  C   C1201     1.0  0.59958  0.06689  0.75022  1.0000
  C   C1202     1.0  0.58160  0.05471  0.75712  1.0000
  C   C1203     1.0  0.56657  0.05851  0.74816  1.0000
  C   C1204     1.0  0.56946  0.07489  0.73264  1.0000
  C   C1205     1.0  0.58741  0.08744  0.72626  1.0000
  H   H1419     1.0  0.61114  0.06369  0.75704  1.0000
  H   H1420     1.0  0.57943  0.04216  0.76920  1.0000
  H   H1421     1.0  0.55787  0.07796  0.72574  1.0000
  H   H1422     1.0  0.58961  0.10020  0.71446  1.0000
  H   H1423     1.0  0.54458  0.10293  0.51877  1.0000
  C   C1206     1.0  0.73440  0.08273  0.80172  1.0000
  C   C1207     1.0  0.73067  0.08000  0.78042  1.0000
  C   C1208     1.0  0.71326  0.08015  0.77471  1.0000
  C   C1209     1.0  0.69950  0.08296  0.79061  1.0000
  C   C1210     1.0  0.70338  0.08610  0.81181  1.0000
  H   H1424     1.0  0.54253  0.21947  0.65929  1.0000
  C   C1211     1.0  0.68901  0.01400  0.74837  1.0000
  H   H1425     1.0  0.68608  0.08323  0.78638  1.0000
  C   C1212     1.0  0.57190  0.26021  0.59874  1.0000
  C   C1213     1.0  0.55259  0.25755  0.60190  1.0000
  C   C1214     1.0  0.54069  0.24016  0.60082  1.0000
  H   H1426     1.0  0.64257  0.10098  0.59616  1.0000
  C   C1215     1.0  0.57926  0.24532  0.59472  1.0000
  H   H1427     1.0  0.54674  0.26870  0.60581  1.0000
  H   H1428     1.0  0.52575  0.23814  0.60348  1.0000
  C   C1216     1.0  0.67733  0.02687  0.77955  1.0000
  H   H1429     1.0  0.58781  0.10865  0.59800  1.0000
  N   N79       1.0  0.60296  0.26523  0.52379  1.0000
  C   C1217     1.0  0.61186  0.25250  0.53626  1.0000
  C   C1218     1.0  0.61772  0.28267  0.51347  1.0000
  C   C1219     1.0  0.58929  0.26983  0.54037  1.0000
  C   C1220     1.0  0.59345  0.25712  0.50636  1.0000
  H   H1430     1.0  0.70716  0.04371  0.88197  1.0000
  H   H1431     1.0  0.61192  0.29381  0.50597  1.0000
  H   H1432     1.0  0.67576  0.01222  0.74163  1.0000
  Fe  Fe158     1.0  0.50678  0.06856  0.70282  1.0000
  H   H1433     1.0  0.69820  0.02805  0.74020  1.0000
  H   H1434     1.0  0.62285  0.24883  0.52507  1.0000
  H   H1435     1.0  0.61870  0.25892  0.54938  1.0000
  H   H1436     1.0  0.54358  0.24550  0.55335  1.0000
  N   N80       1.0  0.68554  0.01189  0.77304  1.0000
  H   H1437     1.0  0.62568  0.28870  0.52602  1.0000
  C   C1221     1.0  0.51424  0.10749  0.56267  1.0000
  C   C1222     1.0  0.51434  0.25531  0.54173  1.0000
  H   H1438     1.0  0.60700  0.03812  0.68616  1.0000
  H   H1439     1.0  0.59442  0.01051  0.73072  1.0000
  H   H1440     1.0  0.67303  0.03947  0.86406  1.0000
  H   H1441     1.0  0.51121  0.22292  0.56469  1.0000
  C   C1223     1.0  0.58425  0.26757  0.49305  1.0000
  S   S318      1.0  0.52577  0.04980  0.69974  1.0000
  S   S319      1.0  0.59109  0.31812  0.54634  1.0000
  C   C1224     1.0  0.57207  0.03614  0.70047  1.0000
  C   C1225     1.0  0.52276  0.10319  0.65409  1.0000
  H   H1442     1.0  0.57490  0.23963  0.65258  1.0000
  C   C1226     1.0  0.54735  0.30068  0.63701  1.0000
  C   C1227     1.0  0.54808  0.22551  0.59598  1.0000
  H   H1443     1.0  0.58132  0.27297  0.65156  1.0000
  S   S320      1.0  0.72518  0.08985  0.84435  1.0000
  C   C1228     1.0  0.50608  0.12869  0.52487  1.0000
  C   C1229     1.0  0.56739  0.22809  0.59288  1.0000
  H   H1444     1.0  0.66141  0.01562  0.84599  1.0000
  H   H1445     1.0  0.51858  0.09895  0.57619  1.0000
  H   H1446     1.0  0.51965  0.21162  0.54389  1.0000
  H   H1447     1.0  0.51812  0.13056  0.65022  1.0000
  H   H1448     1.0  0.53009  0.29301  0.67940  1.0000
  H   H1449     1.0  0.54130  0.00724  0.79334  1.0000
  H   H1450     1.0  0.55031  0.29306  0.69194  1.0000
  H   H1451     1.0  0.68606  0.04109  0.77136  1.0000
  C   C1230     1.0  0.56684  0.26498  0.65532  1.0000
  H   H1452     1.0  0.61704  0.16377  0.54936  1.0000
  H   H1453     1.0  0.69394  0.05772  0.85419  1.0000
  H   H1454     1.0  0.58176  0.04981  0.70158  1.0000
  C   C1231     1.0  0.53025  0.24214  0.66300  1.0000
  H   H1455     1.0  0.52260  0.26987  0.53414  1.0000
  H   H1456     1.0  0.54394  0.01112  0.69497  1.0000
  H   H1457     1.0  0.74145  0.07802  0.76815  1.0000
  H   H1458     1.0  0.52960  0.21487  0.50794  1.0000
  H   H1459     1.0  0.63686  0.01123  0.70574  1.0000
  S   S321      1.0  0.54129  0.18335  0.49636  1.0000
  S   S322      1.0  0.49701  0.02221  0.74350  1.0000
  H   H1460     1.0  0.65460  0.12535  0.56309  1.0000
  C   C1232     1.0  0.59734  0.02397  0.68721  1.0000
  C   C1233     1.0  0.54335  0.11499  0.61028  1.0000
  H   H1461     1.0  0.52159  0.12219  0.56331  1.0000
  H   H1462     1.0  0.57408  0.01245  0.79492  1.0000
  H   H1463     1.0  0.53624  0.14093  0.61177  1.0000
  C   C1234     1.0  0.53490  0.12704  0.62057  1.0000
  H   H1464     1.0  0.51608  0.23326  0.66564  1.0000
  S   S323      1.0  0.53308  0.20435  0.59294  1.0000
  H   H1465     1.0  0.67554  0.02645  0.79788  1.0000
  H   H1466     1.0  0.57425  0.01804  0.74031  1.0000
  H   H1467     1.0  0.59605  0.27623  0.55356  1.0000
  N   N81       1.0  0.58057  0.02043  0.70470  1.0000
  C   C1235     1.0  0.51240  0.22260  0.54647  1.0000
  C   C1236     1.0  0.53983  0.10696  0.53489  1.0000
  N   N82       1.0  0.52258  0.24116  0.53268  1.0000
  H   H1468     1.0  0.57819  0.25705  0.54892  1.0000
  H   H1469     1.0  0.58295  0.30286  0.63689  1.0000
  H   H1470     1.0  0.51895  0.09594  0.49732  1.0000
  Fe  Fe159     1.0  0.55820  0.15198  0.56800  1.0000
  C   C1237     1.0  0.53127  0.09111  0.64383  1.0000
  C   C1238     1.0  0.51123  0.08194  0.54272  1.0000
  C   C1239     1.0  0.51247  0.11264  0.52238  1.0000
  C   C1240     1.0  0.52463  0.12114  0.64237  1.0000
  C   C1241     1.0  0.70144  0.02938  0.87846  1.0000
  S   S324      1.0  0.73723  0.16993  0.53777  1.0000
  H   H1471     1.0  0.57317  0.21675  0.58932  1.0000
  N   N83       1.0  0.69747  0.02992  0.85543  1.0000
  C   C1242     1.0  0.57508  0.30461  0.65286  1.0000
  C   C1243     1.0  0.71534  0.03717  0.83934  1.0000
  H   H1472     1.0  0.56834  0.03763  0.68356  1.0000
  H   H1473     1.0  0.72537  0.02878  0.84191  1.0000
  C   C1244     1.0  0.53357  0.26141  0.66252  1.0000
  Fe  Fe160     1.0  0.56200  0.31557  0.54042  1.0000
  H   H1474     1.0  0.55017  0.31612  0.63401  1.0000
  H   H1475     1.0  0.54800  0.08760  0.61404  1.0000
  H   H1476     1.0  0.50569  0.13434  0.54012  1.0000
  N   N84       1.0  0.55508  0.29398  0.65641  1.0000
  H   H1477     1.0  0.68856  0.02257  0.89107  1.0000
  C   C1245     1.0  0.59281  0.23880  0.50216  1.0000
  C   C1246     1.0  0.54231  0.24549  0.53552  1.0000
  H   H1478     1.0  0.53197  0.29496  0.63915  1.0000
  H   H1479     1.0  0.72273  0.05163  0.84091  1.0000
  S   S325      1.0  0.57982  0.33318  0.59241  1.0000
  H   H1480     1.0  0.65737  0.17358  0.53227  1.0000
  H   H1481     1.0  0.62786  0.27999  0.50016  1.0000
  C   C1247     1.0  0.56335  0.24570  0.65581  1.0000
  S   S326      1.0  0.50533  0.06746  0.74003  1.0000
  H   H1482     1.0  0.52158  0.26688  0.66472  1.0000
  H   H1483     1.0  0.64808  0.15010  0.50673  1.0000
  H   H1484     1.0  0.60144  0.23927  0.54513  1.0000
  N   N85       1.0  0.65491  0.13068  0.65532  1.0000
  C   C1248     1.0  0.67123  0.14007  0.63728  1.0000
  C   C1249     1.0  0.65767  0.13964  0.67515  1.0000
  C   C1250     1.0  0.65497  0.11083  0.66100  1.0000
  C   C1251     1.0  0.63681  0.13172  0.64916  1.0000
  C   C1252     1.0  0.61985  0.12228  0.66406  1.0000
  C   C1253     1.0  0.63537  0.14231  0.62876  1.0000
  C   C1254     1.0  0.60256  0.12303  0.65870  1.0000
  C   C1255     1.0  0.61798  0.14301  0.62363  1.0000
  C   C1256     1.0  0.60162  0.13335  0.63850  1.0000
  H   H1485     1.0  0.67296  0.15541  0.63310  1.0000
  H   H1486     1.0  0.68457  0.13851  0.64217  1.0000
  H   H1487     1.0  0.67005  0.13392  0.62185  1.0000
  H   H1488     1.0  0.65722  0.15447  0.67185  1.0000
  H   H1489     1.0  0.67133  0.13945  0.68010  1.0000
  H   H1490     1.0  0.64679  0.13233  0.69004  1.0000
  H   H1491     1.0  0.65192  0.10317  0.64704  1.0000
  H   H1492     1.0  0.66874  0.10962  0.66460  1.0000
  H   H1493     1.0  0.64471  0.10314  0.67622  1.0000
  H   H1494     1.0  0.61985  0.11439  0.68017  1.0000
  H   H1495     1.0  0.64747  0.15035  0.61657  1.0000
  H   H1496     1.0  0.58982  0.11574  0.67042  1.0000
  H   H1497     1.0  0.61719  0.15114  0.60800  1.0000
  H   H1498     1.0  0.58818  0.13398  0.63443  1.0000
  C   C1257     1.0  0.68634  0.04351  0.85186  1.0000
  C   C1258     1.0  0.54152  0.09701  0.62193  1.0000
  H   H1499     1.0  0.59604  0.03468  0.72736  1.0000
  S   S327      1.0  0.53388  0.16284  0.56110  1.0000
  S   S328      1.0  0.54857  0.30131  0.57527  1.0000
  H   H1500     1.0  0.52985  0.07723  0.65272  1.0000
  H   H1501     1.0  0.69284  0.08874  0.82383  1.0000
  H   H1502     1.0  0.51573  0.26804  0.50050  1.0000
  C   C1259     1.0  0.54512  0.23432  0.65952  1.0000
  C   C1260     1.0  0.54549  0.29865  0.67678  1.0000
  H   H1503     1.0  0.49805  0.21774  0.54288  1.0000
  S   S329      1.0  0.50940  0.09642  0.68129  1.0000
  S   S330      1.0  0.55540  0.29952  0.51279  1.0000
  H   H1504     1.0  0.54817  0.31409  0.67586  1.0000
  H   H1505     1.0  0.71669  0.04201  0.76303  1.0000
  H   H1506     1.0  0.59418  0.24724  0.59250  1.0000
  C   C1261     1.0  0.55199  0.27347  0.65852  1.0000
  Fe  Fe161     1.0  0.57771  0.30552  0.58163  1.0000
  C   C1262     1.0  0.72087  0.08607  0.81744  1.0000
  H   H1507     1.0  0.59959  0.22985  0.51113  1.0000
  Fe  Fe162     1.0  0.52220  0.04680  0.73702  1.0000
  H   H1508     1.0  0.55373  0.29675  0.62161  1.0000
  S   S331      1.0  0.55593  0.12211  0.58272  1.0000
  H   H1509     1.0  0.58241  0.27999  0.53282  1.0000
  N   N86       1.0  0.63585  0.14720  0.54136  1.0000
  C   C1263     1.0  0.62228  0.15750  0.53522  1.0000
  C   C1264     1.0  0.65220  0.16108  0.54581  1.0000
  C   C1265     1.0  0.64195  0.13909  0.52186  1.0000
  C   C1266     1.0  0.62820  0.13211  0.56109  1.0000
  C   C1267     1.0  0.60909  0.12666  0.57151  1.0000
  C   C1268     1.0  0.64000  0.12224  0.57039  1.0000
  C   C1269     1.0  0.60243  0.11246  0.59025  1.0000
  C   C1270     1.0  0.63322  0.10818  0.58926  1.0000
  C   C1271     1.0  0.61448  0.10333  0.59920  1.0000
  H   H1510     1.0  0.66432  0.15537  0.54687  1.0000
  H   H1511     1.0  0.62871  0.16935  0.52104  1.0000
  H   H1512     1.0  0.61022  0.14831  0.52987  1.0000
  H   H1513     1.0  0.49894  0.10538  0.56730  1.0000
  H   H1514     1.0  0.71298  0.03764  0.82184  1.0000
  H   H1515     1.0  0.64875  0.16590  0.56177  1.0000
  H   H1516     1.0  0.63013  0.12853  0.51788  1.0000
  C   C1272     1.0  0.50033  0.13830  0.50724  1.0000
  H   H1517     1.0  0.65303  0.13208  0.52474  1.0000
  H   H1518     1.0  0.59895  0.13317  0.56563  1.0000
  H   H1519     1.0  0.55031  0.25950  0.52584  1.0000
  H   H1520     1.0  0.69583  0.00343  0.74278  1.0000
  H   H1521     1.0  0.51420  0.25448  0.56001  1.0000
  H   H1522     1.0  0.59342  0.02300  0.67051  1.0000
  H   H1523     1.0  0.57688  0.31995  0.65167  1.0000
  H   H1524     1.0  0.54564  0.09965  0.54803  1.0000
  N   N87       1.0  0.51923  0.10248  0.54046  1.0000
  C   C1273     1.0  0.51323  0.10726  0.50103  1.0000
  H   H1525     1.0  0.72614  0.14933  0.49190  1.0000
  C   C1274     1.0  0.71813  0.03034  0.77438  1.0000
  S   S332      1.0  0.63334  0.01221  0.75339  1.0000
  H   H1526     1.0  0.58186  0.30021  0.66685  1.0000
  H   H1527     1.0  0.51570  0.00640  0.77695  1.0000
  C   C1275     1.0  0.70339  0.01359  0.78123  1.0000
  C   C1276     1.0  0.52186  0.24100  0.50872  1.0000
  C   C1277     1.0  0.52596  0.22624  0.49853  1.0000
  H   H1528     1.0  0.71191  0.02160  0.88153  1.0000
  Fe  Fe163     1.0  0.49920  0.02649  0.70659  1.0000
  H   H1529     1.0  0.51484  0.07411  0.55744  1.0000
  H   H1530     1.0  0.60554  0.01378  0.69048  1.0000
  C   C1278     1.0  0.68798  0.01078  0.85256  1.0000
  H   H1531     1.0  0.58415  0.28163  0.49518  1.0000
  H   H1532     1.0  0.51659  0.07627  0.52815  1.0000
  C   C1279     1.0  0.73790  0.01795  0.79650  1.0000
  Fe  Fe164     1.0  0.55147  0.33017  0.58327  1.0000
  C   C1280     1.0  0.56780  0.00187  0.70456  1.0000
  C   C1281     1.0  0.66949  0.00569  0.84806  1.0000
  C   C1282     1.0  0.72380  0.00124  0.80343  1.0000
  H   H1533     1.0  0.49972  0.25336  0.53900  1.0000
  C   C1283     1.0  0.51830  0.25584  0.49454  1.0000
  C   C1284     1.0  0.56724  0.00115  0.78706  1.0000
  H   H1534     1.0  0.74608  0.04543  0.77660  1.0000
  C   C1285     1.0  0.50988  0.64196  0.28340  1.0000
  H   H1535     1.0  0.67453  0.47985  0.48586  1.0000
  C   C1286     1.0  0.74079  0.43008  0.44489  1.0000
  Fe  Fe165     1.0  0.67802  0.45278  0.41411  1.0000
  S   S333      1.0  0.67066  0.42157  0.42109  1.0000
  S   S334      1.0  0.67509  0.46780  0.44341  1.0000
  Fe  Fe166     1.0  0.68618  0.45435  0.36344  1.0000
  S   S335      1.0  0.67967  0.42306  0.36688  1.0000
  S   S336      1.0  0.69582  0.47040  0.32807  1.0000
  Fe  Fe167     1.0  0.65535  0.42290  0.39242  1.0000
  S   S337      1.0  0.62544  0.40623  0.39660  1.0000
  Fe  Fe168     1.0  0.69583  0.42501  0.39500  1.0000
  S   S338      1.0  0.71549  0.40789  0.40298  1.0000
  S   S339      1.0  0.66061  0.45404  0.38724  1.0000
  S   S340      1.0  0.70436  0.45636  0.38983  1.0000
  C   C1287     1.0  0.54252  0.33764  0.46886  1.0000
  H   H1536     1.0  0.72896  0.46229  0.43396  1.0000
  H   H1537     1.0  0.52700  0.66033  0.47628  1.0000
  H   H1538     1.0  0.72795  0.43231  0.44072  1.0000
  H   H1539     1.0  0.54012  0.52750  0.19912  1.0000
  C   C1288     1.0  0.50655  0.63708  0.30678  1.0000
  N   N88       1.0  0.57248  0.60114  0.28473  1.0000
  H   H1540     1.0  0.55847  0.65686  0.26024  1.0000
  S   S341      1.0  0.50609  0.61426  0.34602  1.0000
  H   H1541     1.0  0.53788  0.65497  0.19508  1.0000
  C   C1289     1.0  0.70518  0.44544  0.48397  1.0000
  Fe  Fe169     1.0  0.51036  0.37947  0.18819  1.0000
  S   S342      1.0  0.52827  0.40946  0.18424  1.0000
  C   C1290     1.0  0.71044  0.63586  0.09935  1.0000
  H   H1542     1.0  0.73359  0.44137  0.37003  1.0000
  C   C1291     1.0  0.74034  0.41157  0.45275  1.0000
  H   H1543     1.0  0.62882  0.33804  0.41279  1.0000
  Fe  Fe170     1.0  0.62031  0.50329  0.19761  1.0000
  S   S343      1.0  0.63412  0.48798  0.17458  1.0000
  S   S344      1.0  0.60119  0.51795  0.18235  1.0000
  Fe  Fe171     1.0  0.63689  0.48965  0.23679  1.0000
  S   S345      1.0  0.65190  0.47322  0.21672  1.0000
  S   S346      1.0  0.63478  0.48925  0.27403  1.0000
  Fe  Fe172     1.0  0.65944  0.49878  0.18960  1.0000
  S   S347      1.0  0.68831  0.50912  0.16763  1.0000
  Fe  Fe173     1.0  0.62514  0.46410  0.20351  1.0000
  S   S348      1.0  0.61212  0.43386  0.20050  1.0000
  S   S349      1.0  0.64620  0.51593  0.21066  1.0000
  S   S350      1.0  0.60963  0.47873  0.22548  1.0000
  Fe  Fe174     1.0  0.53118  0.61823  0.21943  1.0000
  S   S351      1.0  0.51880  0.61352  0.18880  1.0000
  N   N89       1.0  0.54873  0.37947  0.25446  1.0000
  Fe  Fe175     1.0  0.55850  0.59509  0.20910  1.0000
  S   S352      1.0  0.54817  0.58883  0.17764  1.0000
  S   S353      1.0  0.58112  0.58500  0.22328  1.0000
  Fe  Fe176     1.0  0.54876  0.61926  0.17163  1.0000
  S   S354      1.0  0.55999  0.63811  0.13773  1.0000
  Fe  Fe177     1.0  0.51949  0.58364  0.19783  1.0000
  S   S355      1.0  0.56093  0.62583  0.20187  1.0000
  S   S356      1.0  0.52994  0.58823  0.22971  1.0000
  C   C1292     1.0  0.59595  0.53638  0.19432  1.0000
  C   C1293     1.0  0.58318  0.54479  0.18579  1.0000
  C   C1294     1.0  0.57850  0.55950  0.19484  1.0000
  C   C1295     1.0  0.58680  0.56623  0.21217  1.0000
  C   C1296     1.0  0.59979  0.55794  0.22061  1.0000
  C   C1297     1.0  0.60431  0.54293  0.21176  1.0000
  H   H1544     1.0  0.57674  0.53983  0.17224  1.0000
  H   H1545     1.0  0.56846  0.56555  0.18830  1.0000
  H   H1546     1.0  0.60627  0.56302  0.23406  1.0000
  H   H1547     1.0  0.61418  0.53644  0.21845  1.0000
  C   C1298     1.0  0.61176  0.35309  0.48988  1.0000
  Fe  Fe178     1.0  0.50248  0.33935  0.21094  1.0000
  C   C1299     1.0  0.63252  0.44248  0.47753  1.0000
  C   C1300     1.0  0.71267  0.56826  0.12602  1.0000
  C   C1301     1.0  0.72036  0.55373  0.12148  1.0000
  C   C1302     1.0  0.71299  0.53575  0.13462  1.0000
  C   C1303     1.0  0.69784  0.53211  0.15230  1.0000
  C   C1304     1.0  0.69059  0.54680  0.15730  1.0000
  C   C1305     1.0  0.69783  0.56473  0.14406  1.0000
  C   C1306     1.0  0.59754  0.38193  0.26648  1.0000
  H   H1548     1.0  0.71876  0.52446  0.13076  1.0000
  H   H1549     1.0  0.67934  0.54423  0.17132  1.0000
  H   H1550     1.0  0.69180  0.57588  0.14773  1.0000
  H   H1551     1.0  0.59560  0.59396  0.26639  1.0000
  H   H1552     1.0  0.62617  0.41613  0.44873  1.0000
  C   C1307     1.0  0.55992  0.64728  0.27433  1.0000
  H   H1553     1.0  0.71984  0.64892  0.08894  1.0000
  C   C1308     1.0  0.55183  0.41603  0.18790  1.0000
  C   C1309     1.0  0.55952  0.43423  0.19163  1.0000
  C   C1310     1.0  0.57806  0.43995  0.19508  1.0000
  C   C1311     1.0  0.58916  0.42752  0.19474  1.0000
  C   C1312     1.0  0.58157  0.40941  0.19065  1.0000
  C   C1313     1.0  0.56298  0.40367  0.18724  1.0000
  H   H1554     1.0  0.55104  0.44392  0.19202  1.0000
  H   H1555     1.0  0.58373  0.45395  0.19813  1.0000
  H   H1556     1.0  0.59012  0.39978  0.19011  1.0000
  H   H1557     1.0  0.55732  0.38976  0.18391  1.0000
  S   S357      1.0  0.71975  0.59051  0.10851  1.0000
  C   C1314     1.0  0.55512  0.65037  0.29593  1.0000
  H   H1558     1.0  0.54731  0.35470  0.23989  1.0000
  H   H1559     1.0  0.51877  0.37433  0.25911  1.0000
  C   C1315     1.0  0.50695  0.49568  0.18018  1.0000
  H   H1560     1.0  0.58475  0.59723  0.31409  1.0000
  C   C1316     1.0  0.65495  0.59911  0.08994  1.0000
  H   H1561     1.0  0.57913  0.66532  0.09852  1.0000
  H   H1562     1.0  0.59467  0.36532  0.42458  1.0000
  H   H1563     1.0  0.56284  0.37553  0.22309  1.0000
  C   C1317     1.0  0.50334  0.64966  0.46099  1.0000
  C   C1318     1.0  0.61454  0.40984  0.48446  1.0000
  C   C1319     1.0  0.63491  0.57380  0.11827  1.0000
  C   C1320     1.0  0.51566  0.63003  0.26995  1.0000
  C   C1321     1.0  0.51758  0.61291  0.28000  1.0000
  C   C1322     1.0  0.51427  0.60802  0.30338  1.0000
  C   C1323     1.0  0.72693  0.53544  0.19091  1.0000
  H   H1564     1.0  0.65773  0.61297  0.08015  1.0000
  H   H1565     1.0  0.52193  0.60361  0.26979  1.0000
  H   H1566     1.0  0.74164  0.51456  0.18847  1.0000
  S   S358      1.0  0.59933  0.34296  0.34063  1.0000
  H   H1567     1.0  0.63172  0.55119  0.15965  1.0000
  H   H1568     1.0  0.71503  0.55861  0.18939  1.0000
  C   C1324     1.0  0.58159  0.65569  0.13235  1.0000
  C   C1325     1.0  0.55829  0.58954  0.27418  1.0000
  C   C1326     1.0  0.68551  0.46192  0.46634  1.0000
  C   C1327     1.0  0.51558  0.51183  0.18860  1.0000
  H   H1569     1.0  0.55814  0.50475  0.19209  1.0000
  H   H1570     1.0  0.54672  0.35863  0.29709  1.0000
  S   S359      1.0  0.51490  0.66097  0.43398  1.0000
  C   C1328     1.0  0.68289  0.47004  0.48541  1.0000
  C   C1329     1.0  0.59376  0.37089  0.28757  1.0000
  H   H1571     1.0  0.68063  0.59452  0.07492  1.0000
  C   C1330     1.0  0.66070  0.66585  0.12019  1.0000
  H   H1572     1.0  0.58902  0.33757  0.47724  1.0000
  C   C1331     1.0  0.67906  0.47613  0.31304  1.0000
  C   C1332     1.0  0.66276  0.47901  0.32402  1.0000
  C   C1333     1.0  0.64954  0.48344  0.31175  1.0000
  C   C1334     1.0  0.65235  0.48472  0.28846  1.0000
  C   C1335     1.0  0.66876  0.48205  0.27741  1.0000
  C   C1336     1.0  0.68218  0.47798  0.28967  1.0000
  H   H1573     1.0  0.66042  0.47802  0.34195  1.0000
  H   H1574     1.0  0.63702  0.48579  0.32037  1.0000
  H   H1575     1.0  0.67109  0.48309  0.25947  1.0000
  H   H1576     1.0  0.69487  0.47595  0.28107  1.0000
  H   H1577     1.0  0.67900  0.62281  0.14752  1.0000
  H   H1578     1.0  0.64072  0.36456  0.43011  1.0000
  C   C1337     1.0  0.60699  0.36153  0.35475  1.0000
  C   C1338     1.0  0.62604  0.37067  0.35229  1.0000
  C   C1339     1.0  0.63204  0.38490  0.36458  1.0000
  C   C1340     1.0  0.61892  0.39015  0.37898  1.0000
  C   C1341     1.0  0.59993  0.38149  0.38070  1.0000
  C   C1342     1.0  0.59403  0.36705  0.36894  1.0000
  H   H1579     1.0  0.63616  0.36642  0.34135  1.0000
  H   H1580     1.0  0.64677  0.39145  0.36329  1.0000
  H   H1581     1.0  0.58970  0.38557  0.39169  1.0000
  H   H1582     1.0  0.57939  0.36014  0.37110  1.0000
  C   C1343     1.0  0.56396  0.37685  0.26639  1.0000
  H   H1583     1.0  0.53825  0.37171  0.22506  1.0000
  H   H1584     1.0  0.65452  0.37690  0.46013  1.0000
  C   C1344     1.0  0.59076  0.60646  0.26940  1.0000
  H   H1585     1.0  0.61928  0.44664  0.47915  1.0000
  H   H1586     1.0  0.51234  0.47004  0.17044  1.0000
  H   H1587     1.0  0.67682  0.61379  0.12209  1.0000
  H   H1588     1.0  0.67100  0.65003  0.14429  1.0000
  H   H1589     1.0  0.69656  0.65665  0.07457  1.0000
  H   H1590     1.0  0.60168  0.61598  0.27616  1.0000
  C   C1345     1.0  0.64028  0.36803  0.46371  1.0000
  N   N90       1.0  0.69812  0.63976  0.11809  1.0000
  H   H1591     1.0  0.72758  0.40052  0.45401  1.0000
  C   C1346     1.0  0.63861  0.59172  0.10569  1.0000
  C   C1347     1.0  0.56184  0.62169  0.31080  1.0000
  H   H1592     1.0  0.54389  0.47626  0.17784  1.0000
  H   H1593     1.0  0.56068  0.58360  0.31691  1.0000
  C   C1348     1.0  0.59998  0.39563  0.45522  1.0000
  H   H1594     1.0  0.54421  0.58562  0.28482  1.0000
  H   H1595     1.0  0.55705  0.66013  0.17253  1.0000
  H   H1596     1.0  0.50253  0.64658  0.31701  1.0000
  H   H1597     1.0  0.62285  0.35946  0.40444  1.0000
  C   C1349     1.0  0.55104  0.39968  0.24675  1.0000
  C   C1350     1.0  0.51262  0.65204  0.47911  1.0000
  H   H1598     1.0  0.58179  0.34471  0.41592  1.0000
  C   C1351     1.0  0.63016  0.36410  0.48536  1.0000
  C   C1352     1.0  0.68695  0.62142  0.13152  1.0000
  H   H1599     1.0  0.70221  0.65238  0.14738  1.0000
  H   H1600     1.0  0.54074  0.35158  0.46794  1.0000
  C   C1353     1.0  0.52983  0.37169  0.26836  1.0000
  N   N91       1.0  0.62025  0.42679  0.31619  1.0000
  C   C1354     1.0  0.60736  0.40763  0.32175  1.0000
  C   C1355     1.0  0.63065  0.42958  0.33490  1.0000
  C   C1356     1.0  0.60912  0.44054  0.31499  1.0000
  C   C1357     1.0  0.63247  0.42910  0.29435  1.0000
  C   C1358     1.0  0.65226  0.43365  0.29166  1.0000
  C   C1359     1.0  0.62457  0.42683  0.27485  1.0000
  C   C1360     1.0  0.66330  0.43572  0.27073  1.0000
  C   C1361     1.0  0.63576  0.42894  0.25403  1.0000
  C   C1362     1.0  0.65508  0.43336  0.25197  1.0000
  H   H1601     1.0  0.61527  0.39692  0.32164  1.0000
  H   H1602     1.0  0.59760  0.40497  0.30980  1.0000
  H   H1603     1.0  0.63919  0.41955  0.33697  1.0000
  H   H1604     1.0  0.62115  0.42751  0.35119  1.0000
  H   H1605     1.0  0.64003  0.44399  0.33233  1.0000
  H   H1606     1.0  0.59935  0.43819  0.30301  1.0000
  H   H1607     1.0  0.60061  0.44012  0.33148  1.0000
  H   H1608     1.0  0.61835  0.45504  0.30932  1.0000
  H   H1609     1.0  0.65966  0.43613  0.30531  1.0000
  H   H1610     1.0  0.60968  0.42370  0.27548  1.0000
  H   H1611     1.0  0.67838  0.43961  0.26901  1.0000
  H   H1612     1.0  0.62945  0.42754  0.23927  1.0000
  H   H1613     1.0  0.66371  0.43534  0.23571  1.0000
  C   C1363     1.0  0.64742  0.41809  0.48631  1.0000
  H   H1614     1.0  0.74452  0.46755  0.46562  1.0000
  C   C1364     1.0  0.57535  0.36284  0.29828  1.0000
  H   H1615     1.0  0.56181  0.61225  0.32568  1.0000
  S   S360      1.0  0.54680  0.33996  0.36136  1.0000
  C   C1365     1.0  0.58292  0.38487  0.25596  1.0000
  H   H1616     1.0  0.55113  0.40741  0.26098  1.0000
  C   C1366     1.0  0.55604  0.63760  0.31410  1.0000
  C   C1367     1.0  0.54932  0.36999  0.23481  1.0000
  H   H1617     1.0  0.57898  0.57692  0.30135  1.0000
  C   C1368     1.0  0.61703  0.34431  0.41128  1.0000
  C   C1369     1.0  0.56564  0.63139  0.27081  1.0000
  C   C1370     1.0  0.68567  0.65094  0.11072  1.0000
  H   H1618     1.0  0.65164  0.41791  0.46830  1.0000
  H   H1619     1.0  0.62872  0.59992  0.10818  1.0000
  Fe  Fe179     1.0  0.49891  0.65325  0.40665  1.0000
  C   C1371     1.0  0.59262  0.65858  0.14878  1.0000
  C   C1372     1.0  0.67235  0.65500  0.12666  1.0000
  S   S361      1.0  0.53747  0.34035  0.42537  1.0000
  H   H1620     1.0  0.69800  0.44257  0.45149  1.0000
  C   C1373     1.0  0.66418  0.57073  0.09941  1.0000
  H   H1621     1.0  0.51615  0.59495  0.31108  1.0000
  H   H1622     1.0  0.56178  0.57643  0.27088  1.0000
  H   H1623     1.0  0.69597  0.61222  0.13592  1.0000
  C   C1374     1.0  0.50901  0.62021  0.31681  1.0000
  H   H1624     1.0  0.57252  0.35404  0.31457  1.0000
  N   N92       1.0  0.64321  0.54374  0.12899  1.0000
  C   C1375     1.0  0.64333  0.54573  0.15265  1.0000
  C   C1376     1.0  0.62449  0.53221  0.12713  1.0000
  C   C1377     1.0  0.65678  0.53316  0.12248  1.0000
  H   H1625     1.0  0.64164  0.53206  0.16349  1.0000
  H   H1626     1.0  0.62139  0.51766  0.13654  1.0000
  H   H1627     1.0  0.62336  0.53133  0.10942  1.0000
  H   H1628     1.0  0.67109  0.54031  0.12455  1.0000
  H   H1629     1.0  0.65325  0.51904  0.13311  1.0000
  H   H1630     1.0  0.65718  0.53102  0.10487  1.0000
  H   H1631     1.0  0.62219  0.56879  0.13056  1.0000
  H   H1632     1.0  0.74136  0.57994  0.16302  1.0000
  H   H1633     1.0  0.53523  0.66010  0.14476  1.0000
  H   H1634     1.0  0.63759  0.44327  0.45947  1.0000
  C   C1378     1.0  0.64741  0.56259  0.11524  1.0000
  C   C1379     1.0  0.51769  0.48285  0.17650  1.0000
  H   H1635     1.0  0.52639  0.35626  0.27334  1.0000
  S   S362      1.0  0.52088  0.63717  0.24072  1.0000
  H   H1636     1.0  0.53965  0.40201  0.23782  1.0000
  H   H1637     1.0  0.50824  0.52210  0.19220  1.0000
  H   H1638     1.0  0.57833  0.34709  0.44454  1.0000
  C   C1380     1.0  0.60348  0.34567  0.47290  1.0000
  H   H1639     1.0  0.67484  0.56358  0.09635  1.0000
  H   H1640     1.0  0.65653  0.55552  0.15457  1.0000
  H   H1641     1.0  0.71471  0.52584  0.20175  1.0000
  C   C1381     1.0  0.57429  0.58928  0.30525  1.0000
  C   C1382     1.0  0.61471  0.40796  0.46174  1.0000
  H   H1642     1.0  0.70232  0.62751  0.08856  1.0000
  H   H1643     1.0  0.60507  0.36831  0.29558  1.0000
  H   H1644     1.0  0.56414  0.40653  0.23469  1.0000
  H   H1645     1.0  0.52851  0.37801  0.28368  1.0000
  H   H1646     1.0  0.55162  0.63975  0.33090  1.0000
  C   C1383     1.0  0.58493  0.38442  0.47106  1.0000
  C   C1384     1.0  0.74213  0.52910  0.18329  1.0000
  C   C1385     1.0  0.69630  0.44924  0.46590  1.0000
  H   H1647     1.0  0.61187  0.38797  0.25800  1.0000
  C   C1386     1.0  0.58912  0.34988  0.42936  1.0000
  H   H1648     1.0  0.58663  0.39315  0.23932  1.0000
  C   C1387     1.0  0.53383  0.51504  0.19274  1.0000
  S   S363      1.0  0.51675  0.35433  0.17624  1.0000
  H   H1649     1.0  0.73145  0.55611  0.10732  1.0000
  H   H1650     1.0  0.61299  0.53766  0.13441  1.0000
  N   N93       1.0  0.60427  0.34111  0.43300  1.0000
  H   H1651     1.0  0.56855  0.62930  0.25376  1.0000
  C   C1388     1.0  0.72713  0.55392  0.18387  1.0000
  C   C1389     1.0  0.74419  0.43590  0.37641  1.0000
  H   H1652     1.0  0.59858  0.40501  0.33862  1.0000
  C   C1390     1.0  0.56060  0.36565  0.28795  1.0000
  C   C1391     1.0  0.66777  0.58869  0.08696  1.0000
  C   C1392     1.0  0.63214  0.36069  0.44653  1.0000
  C   C1393     1.0  0.61349  0.34900  0.45072  1.0000
  H   H1653     1.0  0.60020  0.39494  0.43769  1.0000
  C   C1394     1.0  0.56689  0.61813  0.28894  1.0000
  H   H1654     1.0  0.60969  0.33819  0.39830  1.0000
  S   S364      1.0  0.49730  0.36478  0.22314  1.0000
  C   C1395     1.0  0.54399  0.50226  0.18881  1.0000
  H   H1655     1.0  0.55728  0.59700  0.25773  1.0000
  H   H1656     1.0  0.64322  0.45344  0.48281  1.0000
  H   H1657     1.0  0.55007  0.66237  0.29863  1.0000
  H   H1658     1.0  0.57352  0.37493  0.46589  1.0000
  H   H1659     1.0  0.59016  0.61353  0.25253  1.0000
  C   C1396     1.0  0.68664  0.65853  0.08793  1.0000
  H   H1660     1.0  0.50834  0.65522  0.27573  1.0000
  S   S365      1.0  0.51204  0.66251  0.37036  1.0000
  H   H1661     1.0  0.74411  0.48128  0.41452  1.0000
  C   C1397     1.0  0.52672  0.66517  0.15762  1.0000
  C   C1398     1.0  0.53593  0.48621  0.18075  1.0000
  C   C1399     1.0  0.74240  0.56608  0.16893  1.0000
  H   H1662     1.0  0.71390  0.43597  0.48333  1.0000
  H   H1663     1.0  0.58843  0.64952  0.16486  1.0000
  H   H1664     1.0  0.72031  0.64235  0.13732  1.0000
  C   C1400     1.0  0.73909  0.41920  0.39183  1.0000
  C   C1401     1.0  0.74252  0.46655  0.42227  1.0000
  H   H1665     1.0  0.51749  0.65261  0.16934  1.0000
  H   H1666     1.0  0.71992  0.62787  0.10546  1.0000
  C   C1402     1.0  0.71028  0.65001  0.13201  1.0000
  H   H1667     1.0  0.74139  0.45806  0.40873  1.0000
  C   C1403     1.0  0.58754  0.66745  0.11137  1.0000
  C   C1404     1.0  0.54818  0.66665  0.18311  1.0000
  H   H1668     1.0  0.71876  0.66395  0.12253  1.0000
  H   H1669     1.0  0.55227  0.40150  0.63613  1.0000
  C   C1405     1.0  0.59914  0.39790  0.50029  1.0000
  C   C1406     1.0  0.51861  0.34356  0.64785  1.0000
  S   S366      1.0  0.52779  0.33542  0.60617  1.0000
  N   N94       1.0  0.73242  0.52919  0.75908  1.0000
  S   S367      1.0  0.61445  0.37066  0.54231  1.0000
  H   H1670     1.0  0.51338  0.51823  0.77798  1.0000
  Fe  Fe180     1.0  0.67619  0.43192  0.60147  1.0000
  S   S368      1.0  0.67918  0.45775  0.57678  1.0000
  S   S369      1.0  0.64762  0.41301  0.61604  1.0000
  Fe  Fe181     1.0  0.71760  0.44213  0.60408  1.0000
  S   S370      1.0  0.72381  0.46912  0.58004  1.0000
  C   C1407     1.0  0.61052  0.65798  0.80782  1.0000
  Fe  Fe182     1.0  0.69715  0.47202  0.59930  1.0000
  S   S371      1.0  0.69015  0.49662  0.61253  1.0000
  Fe  Fe183     1.0  0.70526  0.45200  0.56012  1.0000
  Fe  Fe184     1.0  0.59005  0.34555  0.55616  1.0000
  S   S372      1.0  0.69260  0.44634  0.62475  1.0000
  S   S373      1.0  0.70064  0.42479  0.58331  1.0000
  H   H1671     1.0  0.59678  0.65951  0.96171  1.0000
  H   H1672     1.0  0.56998  0.65575  0.73324  1.0000
  C   C1408     1.0  0.53977  0.39043  0.60966  1.0000
  H   H1673     1.0  0.70501  0.53105  0.77140  1.0000
  H   H1674     1.0  0.72860  0.63022  0.78557  1.0000
  H   H1675     1.0  0.56916  0.66099  0.94349  1.0000
  C   C1409     1.0  0.62661  0.42537  0.51476  1.0000
  H   H1676     1.0  0.59800  0.39783  0.51801  1.0000
  C   C1410     1.0  0.50343  0.64350  0.50090  1.0000
  H   H1677     1.0  0.72953  0.65076  0.76619  1.0000
  Fe  Fe185     1.0  0.52628  0.37449  0.71748  1.0000
  S   S374      1.0  0.53509  0.38252  0.74918  1.0000
  S   S375      1.0  0.49863  0.39852  0.75641  1.0000
  S   S376      1.0  0.50137  0.65199  0.57300  1.0000
  C   C1411     1.0  0.69136  0.46585  0.50376  1.0000
  Fe  Fe186     1.0  0.52822  0.40940  0.73818  1.0000
  S   S377      1.0  0.54543  0.43968  0.73242  1.0000
  C   C1412     1.0  0.74089  0.54203  0.77351  1.0000
  S   S378      1.0  0.52076  0.40184  0.70591  1.0000
  Fe  Fe187     1.0  0.66800  0.52653  0.77880  1.0000
  S   S379      1.0  0.67969  0.54066  0.74335  1.0000
  S   S380      1.0  0.68031  0.53349  0.80950  1.0000
  Fe  Fe188     1.0  0.63601  0.49786  0.76491  1.0000
  S   S381      1.0  0.64501  0.51013  0.72845  1.0000
  S   S382      1.0  0.61471  0.46999  0.77855  1.0000
  Fe  Fe189     1.0  0.67403  0.51186  0.73459  1.0000
  S   S383      1.0  0.69481  0.50060  0.71438  1.0000
  Fe  Fe190     1.0  0.64969  0.53773  0.74051  1.0000
  S   S384      1.0  0.64333  0.56348  0.72443  1.0000
  S   S385      1.0  0.66483  0.49781  0.77037  1.0000
  S   S386      1.0  0.63815  0.52538  0.77661  1.0000
  Fe  Fe191     1.0  0.55174  0.58576  0.75002  1.0000
  S   S387      1.0  0.54560  0.58870  0.78586  1.0000
  S   S388      1.0  0.55779  0.55879  0.74405  1.0000
  Fe  Fe192     1.0  0.54313  0.62215  0.73320  1.0000
  S   S389      1.0  0.53652  0.62787  0.76793  1.0000
  S   S390      1.0  0.54166  0.64437  0.70524  1.0000
  Fe  Fe193     1.0  0.56202  0.61890  0.77436  1.0000
  H   H1678     1.0  0.63828  0.43607  0.51891  1.0000
  Fe  Fe194     1.0  0.52091  0.59724  0.77583  1.0000
  H   H1679     1.0  0.73904  0.65558  0.92157  1.0000
  S   S391      1.0  0.56969  0.61521  0.73881  1.0000
  S   S392      1.0  0.52592  0.59223  0.74087  1.0000
  C   C1413     1.0  0.61944  0.56167  0.72795  1.0000
  C   C1414     1.0  0.60624  0.54449  0.73646  1.0000
  C   C1415     1.0  0.58720  0.54358  0.74058  1.0000
  C   C1416     1.0  0.58142  0.55992  0.73669  1.0000
  C   C1417     1.0  0.59461  0.57701  0.72785  1.0000
  C   C1418     1.0  0.61359  0.57784  0.72321  1.0000
  H   H1680     1.0  0.61070  0.53194  0.74005  1.0000
  H   H1681     1.0  0.57701  0.53031  0.74739  1.0000
  H   H1682     1.0  0.59022  0.58958  0.72440  1.0000
  H   H1683     1.0  0.62380  0.59110  0.71639  1.0000
  H   H1684     1.0  0.63648  0.36970  0.49871  1.0000
  C   C1419     1.0  0.71866  0.58463  0.79452  1.0000
  C   C1420     1.0  0.70519  0.56837  0.79251  1.0000
  C   C1421     1.0  0.69713  0.55434  0.81116  1.0000
  C   C1422     1.0  0.70243  0.55688  0.83184  1.0000
  H   H1685     1.0  0.72512  0.59520  0.77989  1.0000
  H   H1686     1.0  0.70121  0.56663  0.77652  1.0000
  H   H1687     1.0  0.51871  0.57175  0.69242  1.0000
  C   C1423     1.0  0.65454  0.57151  0.81819  1.0000
  C   C1424     1.0  0.56456  0.44779  0.74555  1.0000
  C   C1425     1.0  0.57497  0.46663  0.73953  1.0000
  C   C1426     1.0  0.59028  0.47369  0.74966  1.0000
  C   C1427     1.0  0.59519  0.46192  0.76601  1.0000
  C   C1428     1.0  0.58481  0.44306  0.77200  1.0000
  C   C1429     1.0  0.56959  0.43597  0.76172  1.0000
  H   H1688     1.0  0.57108  0.47586  0.72709  1.0000
  H   H1689     1.0  0.59817  0.48824  0.74497  1.0000
  H   H1690     1.0  0.58851  0.43391  0.78470  1.0000
  H   H1691     1.0  0.56161  0.42145  0.76651  1.0000
  H   H1692     1.0  0.69722  0.63371  0.82020  1.0000
  C   C1430     1.0  0.50446  0.62708  0.65413  1.0000
  C   C1431     1.0  0.50796  0.61342  0.66964  1.0000
  C   C1432     1.0  0.51925  0.61859  0.68541  1.0000
  C   C1433     1.0  0.52726  0.63750  0.68570  1.0000
  C   C1434     1.0  0.52382  0.65118  0.67013  1.0000
  N   N95       1.0  0.50579  0.51725  0.74545  1.0000
  H   H1693     1.0  0.52277  0.39979  0.65929  1.0000
  H   H1694     1.0  0.52205  0.60796  0.69700  1.0000
  H   H1695     1.0  0.60729  0.65103  0.93883  1.0000
  C   C1435     1.0  0.72201  0.64184  0.78244  1.0000
  C   C1436     1.0  0.50049  0.52951  0.72793  1.0000
  Fe  Fe195     1.0  0.50442  0.37061  0.76433  1.0000
  C   C1437     1.0  0.69099  0.49713  0.64107  1.0000
  C   C1438     1.0  0.68109  0.50762  0.65257  1.0000
  C   C1439     1.0  0.68177  0.50842  0.67522  1.0000
  C   C1440     1.0  0.69273  0.49906  0.68635  1.0000
  C   C1441     1.0  0.70251  0.48847  0.67490  1.0000
  C   C1442     1.0  0.70152  0.48737  0.65242  1.0000
  H   H1696     1.0  0.67309  0.51539  0.64386  1.0000
  H   H1697     1.0  0.67433  0.51679  0.68381  1.0000
  H   H1698     1.0  0.71110  0.48127  0.68334  1.0000
  H   H1699     1.0  0.70949  0.47952  0.64365  1.0000
  H   H1700     1.0  0.51076  0.64508  0.51479  1.0000
  H   H1701     1.0  0.72640  0.52862  0.72568  1.0000
  C   C1443     1.0  0.73302  0.66520  0.92983  1.0000
  C   C1444     1.0  0.53306  0.34464  0.63022  1.0000
  H   H1702     1.0  0.57976  0.65011  0.92275  1.0000
  C   C1445     1.0  0.73980  0.53539  0.79655  1.0000
  N   N96       1.0  0.72270  0.65294  0.80070  1.0000
  C   C1446     1.0  0.62339  0.38248  0.56293  1.0000
  C   C1447     1.0  0.61256  0.38030  0.58403  1.0000
  C   C1448     1.0  0.62003  0.38971  0.60037  1.0000
  C   C1449     1.0  0.63825  0.40148  0.59551  1.0000
  C   C1450     1.0  0.64889  0.40407  0.57421  1.0000
  C   C1451     1.0  0.64150  0.39451  0.55797  1.0000
  H   H1703     1.0  0.59839  0.37156  0.58773  1.0000
  H   H1704     1.0  0.61170  0.38784  0.61675  1.0000
  H   H1705     1.0  0.66291  0.41325  0.57029  1.0000
  H   H1706     1.0  0.64993  0.39630  0.54167  1.0000
  C   C1452     1.0  0.51241  0.64600  0.65440  1.0000
  H   H1707     1.0  0.52352  0.37767  0.58696  1.0000
  C   C1453     1.0  0.60578  0.66400  0.94490  1.0000
  H   H1708     1.0  0.62162  0.65264  0.80060  1.0000
  C   C1454     1.0  0.54116  0.35787  0.66954  1.0000
  H   H1709     1.0  0.50203  0.59879  0.66929  1.0000
  H   H1710     1.0  0.68959  0.47248  0.51820  1.0000
  N   N97       1.0  0.62990  0.42365  0.49082  1.0000
  H   H1711     1.0  0.55295  0.39065  0.59981  1.0000
  C   C1455     1.0  0.71174  0.64068  0.82173  1.0000
  C   C1456     1.0  0.70283  0.45382  0.50289  1.0000
  C   C1457     1.0  0.71582  0.57321  0.83389  1.0000
  H   H1712     1.0  0.49727  0.40867  0.66997  1.0000
  H   H1713     1.0  0.70537  0.51146  0.75746  1.0000
  C   C1458     1.0  0.73171  0.66407  0.95281  1.0000
  H   H1714     1.0  0.74081  0.50568  0.77441  1.0000
  C   C1459     1.0  0.50856  0.52671  0.76492  1.0000
  H   H1715     1.0  0.71109  0.64877  0.83559  1.0000
  C   C1460     1.0  0.57765  0.66432  0.74424  1.0000
  C   C1461     1.0  0.74213  0.51434  0.75779  1.0000
  H   H1716     1.0  0.57305  0.65660  0.76169  1.0000
  C   C1462     1.0  0.74244  0.65895  0.80376  1.0000
  H   H1717     1.0  0.59257  0.66491  0.73933  1.0000
  C   C1463     1.0  0.55153  0.35266  0.63221  1.0000
  C   C1464     1.0  0.52265  0.35019  0.66749  1.0000
  C   C1465     1.0  0.57803  0.65769  0.81360  1.0000
  C   C1466     1.0  0.50601  0.38213  0.61546  1.0000
  N   N98       1.0  0.63890  0.44666  0.72596  1.0000
  C   C1467     1.0  0.62905  0.43276  0.74629  1.0000
  C   C1468     1.0  0.65314  0.46137  0.73289  1.0000
  C   C1469     1.0  0.62543  0.45573  0.71693  1.0000
  C   C1470     1.0  0.64680  0.43719  0.70893  1.0000
  C   C1471     1.0  0.66612  0.44234  0.69946  1.0000
  C   C1472     1.0  0.63495  0.42252  0.70099  1.0000
  C   C1473     1.0  0.67303  0.43308  0.68335  1.0000
  C   C1474     1.0  0.64203  0.41337  0.68486  1.0000
  C   C1475     1.0  0.66104  0.41861  0.67610  1.0000
  H   H1718     1.0  0.62386  0.43958  0.75994  1.0000
  H   H1719     1.0  0.61656  0.42247  0.74332  1.0000
  H   H1720     1.0  0.63847  0.42488  0.75284  1.0000
  H   H1721     1.0  0.66381  0.45564  0.73997  1.0000
  H   H1722     1.0  0.64677  0.46785  0.74610  1.0000
  H   H1723     1.0  0.66024  0.47297  0.71871  1.0000
  H   H1724     1.0  0.61274  0.44539  0.71451  1.0000
  H   H1725     1.0  0.62050  0.46442  0.72843  1.0000
  H   H1726     1.0  0.63194  0.46517  0.70071  1.0000
  H   H1727     1.0  0.67622  0.45356  0.70409  1.0000
  H   H1728     1.0  0.62008  0.41807  0.70716  1.0000
  H   H1729     1.0  0.68782  0.43725  0.67632  1.0000
  H   H1730     1.0  0.63275  0.40223  0.67893  1.0000
  H   H1731     1.0  0.66644  0.41161  0.66338  1.0000
  N   N99       1.0  0.63227  0.46159  0.63882  1.0000
  C   C1476     1.0  0.63640  0.48215  0.63794  1.0000
  C   C1477     1.0  0.64861  0.45585  0.64503  1.0000
  C   C1478     1.0  0.63042  0.45792  0.61598  1.0000
  C   C1479     1.0  0.61519  0.45069  0.65485  1.0000
  C   C1480     1.0  0.60931  0.43086  0.65734  1.0000
  C   C1481     1.0  0.60393  0.45919  0.66831  1.0000
  C   C1482     1.0  0.59319  0.42025  0.67228  1.0000
  C   C1483     1.0  0.58783  0.44842  0.68320  1.0000
  C   C1484     1.0  0.58248  0.42902  0.68520  1.0000
  H   H1732     1.0  0.63896  0.48609  0.65429  1.0000
  H   H1733     1.0  0.64932  0.48983  0.62566  1.0000
  H   H1734     1.0  0.62495  0.48765  0.63265  1.0000
  H   H1735     1.0  0.65055  0.45818  0.66212  1.0000
  H   H1736     1.0  0.66171  0.46392  0.63345  1.0000
  H   H1737     1.0  0.64747  0.44092  0.64423  1.0000
  H   H1738     1.0  0.61785  0.46131  0.61091  1.0000
  H   H1739     1.0  0.64284  0.46636  0.60341  1.0000
  H   H1740     1.0  0.62931  0.44307  0.61451  1.0000
  H   H1741     1.0  0.61715  0.42340  0.64765  1.0000
  H   H1742     1.0  0.60717  0.47414  0.66765  1.0000
  H   H1743     1.0  0.58884  0.40512  0.67380  1.0000
  H   H1744     1.0  0.57931  0.45511  0.69330  1.0000
  H   H1745     1.0  0.56994  0.42080  0.69676  1.0000
  N   N100      1.0  0.60638  0.58276  0.79428  1.0000
  C   C1485     1.0  0.59537  0.56526  0.78844  1.0000
  C   C1486     1.0  0.59373  0.58883  0.81071  1.0000
  C   C1487     1.0  0.61226  0.59751  0.77404  1.0000
  C   C1488     1.0  0.62303  0.57943  0.80261  1.0000
  C   C1489     1.0  0.63635  0.57339  0.78885  1.0000
  C   C1490     1.0  0.62639  0.58162  0.82446  1.0000
  C   C1491     1.0  0.65183  0.56951  0.79660  1.0000
  H   H1746     1.0  0.59108  0.55364  0.80304  1.0000
  H   H1747     1.0  0.58252  0.56705  0.78239  1.0000
  H   H1748     1.0  0.60337  0.56051  0.77491  1.0000
  H   H1749     1.0  0.58808  0.57807  0.82608  1.0000
  H   H1750     1.0  0.58146  0.59128  0.80378  1.0000
  H   H1751     1.0  0.60085  0.60237  0.81525  1.0000
  H   H1752     1.0  0.62102  0.59369  0.76033  1.0000
  H   H1753     1.0  0.60004  0.60025  0.76721  1.0000
  H   H1754     1.0  0.62039  0.61098  0.77780  1.0000
  H   H1755     1.0  0.63477  0.57131  0.77204  1.0000
  H   H1756     1.0  0.61713  0.58619  0.83613  1.0000
  H   H1757     1.0  0.66162  0.56455  0.78596  1.0000
  C   C1492     1.0  0.55557  0.35900  0.65190  1.0000
  H   H1758     1.0  0.50431  0.33735  0.64642  1.0000
  S   S393      1.0  0.56182  0.34424  0.54733  1.0000
  C   C1493     1.0  0.64192  0.57765  0.83204  1.0000
  H   H1759     1.0  0.71023  0.51094  0.78500  1.0000
  C   C1494     1.0  0.52346  0.51328  0.73645  1.0000
  H   H1760     1.0  0.73274  0.52103  0.80401  1.0000
  H   H1761     1.0  0.53543  0.52607  0.73196  1.0000
  C   C1495     1.0  0.58461  0.38541  0.49357  1.0000
  C   C1496     1.0  0.72414  0.58708  0.81516  1.0000
  H   H1762     1.0  0.69620  0.54611  0.84637  1.0000
  S   S394      1.0  0.71564  0.45007  0.52421  1.0000
  H   H1763     1.0  0.53001  0.66583  0.67019  1.0000
  H   H1764     1.0  0.64409  0.57907  0.84887  1.0000
  H   H1765     1.0  0.66633  0.56808  0.82427  1.0000
  S   S395      1.0  0.73777  0.63442  0.86777  1.0000
  H   H1766     1.0  0.68689  0.65110  0.79445  1.0000
  H   H1767     1.0  0.57301  0.37648  0.50592  1.0000
  H   H1768     1.0  0.71996  0.57485  0.84984  1.0000
  C   C1497     1.0  0.50876  0.55850  0.70021  1.0000
  H   H1769     1.0  0.52756  0.50346  0.74878  1.0000
  C   C1498     1.0  0.59225  0.65064  0.80417  1.0000
  H   H1770     1.0  0.56391  0.65215  0.81104  1.0000
  C   C1499     1.0  0.52314  0.38317  0.60242  1.0000
  H   H1771     1.0  0.70750  0.63524  0.78047  1.0000
  H   H1772     1.0  0.51923  0.54048  0.76036  1.0000
  H   H1773     1.0  0.73016  0.59914  0.97795  1.0000
  C   C1500     1.0  0.71246  0.52027  0.76865  1.0000
  H   H1774     1.0  0.52217  0.50690  0.72118  1.0000
  S   S396      1.0  0.58797  0.63234  0.78825  1.0000
  S   S397      1.0  0.54699  0.36552  0.69411  1.0000
  H   H1775     1.0  0.52615  0.55221  0.72286  1.0000
  H   H1776     1.0  0.73628  0.50457  0.74675  1.0000
  C   C1501     1.0  0.52233  0.39551  0.64327  1.0000
  H   H1777     1.0  0.56273  0.35416  0.61853  1.0000
  C   C1502     1.0  0.50510  0.38844  0.63631  1.0000
  H   H1778     1.0  0.56992  0.36501  0.65337  1.0000
  H   H1779     1.0  0.61359  0.42953  0.51932  1.0000
  H   H1780     1.0  0.65927  0.42796  0.49127  1.0000
  C   C1503     1.0  0.51291  0.54717  0.71769  1.0000
  C   C1504     1.0  0.53936  0.39655  0.63008  1.0000
  H   H1781     1.0  0.54846  0.33599  0.50238  1.0000
  C   C1505     1.0  0.73332  0.53860  0.73590  1.0000
  H   H1782     1.0  0.62569  0.41205  0.52580  1.0000
  H   H1783     1.0  0.50980  0.65662  0.64249  1.0000
  H   H1784     1.0  0.51154  0.34895  0.68126  1.0000
  H   H1785     1.0  0.73670  0.65367  0.96232  1.0000
  S   S398      1.0  0.73873  0.43046  0.61930  1.0000
  H   H1786     1.0  0.72597  0.54978  0.73572  1.0000
  H   H1787     1.0  0.60379  0.35054  0.50663  1.0000
  S   S399      1.0  0.74216  0.60721  0.81621  1.0000
  H   H1788     1.0  0.71797  0.62918  0.82701  1.0000
  S   S400      1.0  0.73731  0.61386  0.93073  1.0000
  C   C1506     1.0  0.57911  0.66381  0.92743  1.0000
  C   C1507     1.0  0.74285  0.61050  0.97434  1.0000
  H   H1789     1.0  0.64591  0.40392  0.49581  1.0000
  H   H1790     1.0  0.74588  0.54204  0.82829  1.0000
  C   C1508     1.0  0.69566  0.66521  0.79266  1.0000
  H   H1791     1.0  0.61230  0.66672  0.90147  1.0000
  H   H1792     1.0  0.74393  0.66694  0.81773  1.0000
  S   S401      1.0  0.63988  0.74737  0.00917  1.0000
  C   C1509     1.0  0.55212  0.69347  0.15278  1.0000
  S   S402      1.0  0.50902  0.81058  0.40925  1.0000
  S   S403      1.0  0.51519  0.76190  0.40067  1.0000
  H   H1793     1.0  0.60382  0.87231  0.15682  1.0000
  H   H1794     1.0  0.70446  0.96073  0.14600  1.0000
  H   H1795     1.0  0.71940  0.77028  0.05209  1.0000
  S   S404      1.0  0.51926  0.85309  0.35873  1.0000
  S   S405      1.0  0.67459  0.94651  0.00454  1.0000
  H   H1796     1.0  0.49985  0.86965  0.27079  1.0000
  C   C1510     1.0  0.59720  0.89683  0.07323  1.0000
  Fe  Fe196     1.0  0.54879  0.89092  0.23242  1.0000
  S   S406      1.0  0.54076  0.89614  0.19887  1.0000
  S   S407      1.0  0.53675  0.86228  0.25342  1.0000
  Fe  Fe197     1.0  0.57377  0.93031  0.22678  1.0000
  S   S408      1.0  0.56784  0.93905  0.19275  1.0000
  S   S409      1.0  0.59052  0.94936  0.24636  1.0000
  Fe  Fe198     1.0  0.53813  0.92343  0.20783  1.0000
  S   S410      1.0  0.51442  0.93626  0.20420  1.0000
  Fe  Fe199     1.0  0.57114  0.91099  0.18674  1.0000
  S   S411      1.0  0.58433  0.90438  0.15447  1.0000
  S   S412      1.0  0.54377  0.91705  0.24239  1.0000
  S   S413      1.0  0.57946  0.90344  0.21977  1.0000
  Fe  Fe200     1.0  0.68181  0.92919  0.08441  1.0000
  S   S414      1.0  0.70456  0.91475  0.08414  1.0000
  S   S415      1.0  0.67057  0.93812  0.11588  1.0000
  Fe  Fe201     1.0  0.68527  0.93448  0.03391  1.0000
  S   S416      1.0  0.70884  0.92133  0.02975  1.0000
  H   H1797     1.0  0.55688  0.67510  0.19333  1.0000
  Fe  Fe202     1.0  0.69143  0.89928  0.05862  1.0000
  S   S417      1.0  0.68031  0.86887  0.05425  1.0000
  Fe  Fe203     1.0  0.71959  0.93820  0.05534  1.0000
  S   S418      1.0  0.66727  0.91212  0.06152  1.0000
  S   S419      1.0  0.69740  0.95304  0.05694  1.0000
  Fe  Fe204     1.0  0.65357  0.74096  0.03867  1.0000
  S   S420      1.0  0.68443  0.75348  0.03419  1.0000
  Fe  Fe205     1.0  0.65038  0.72263  0.08677  1.0000
  S   S421      1.0  0.68122  0.73404  0.08579  1.0000
  S   S422      1.0  0.63479  0.70468  0.12004  1.0000
  Fe  Fe206     1.0  0.67833  0.76125  0.06796  1.0000
  S   S423      1.0  0.69497  0.78852  0.07688  1.0000
  Fe  Fe207     1.0  0.68469  0.72546  0.05231  1.0000
  S   S424      1.0  0.70531  0.71078  0.03787  1.0000
  S   S425      1.0  0.64717  0.75052  0.07151  1.0000
  S   S426      1.0  0.65410  0.71226  0.05427  1.0000
  H   H1798     1.0  0.71356  0.95214  0.10060  1.0000
  N   N101      1.0  0.52102  0.99559  0.20390  1.0000
  H   H1799     1.0  0.57499  0.91234  0.33650  1.0000
  H   H1800     1.0  0.51736  0.67443  0.19795  1.0000
  H   H1801     1.0  0.62770  0.87288  0.12516  1.0000
  H   H1802     1.0  0.64936  0.94215  0.07758  1.0000
  H   H1803     1.0  0.57301  0.97528  0.21701  1.0000
  C   C1511     1.0  0.54046  0.76177  0.44683  1.0000
  C   C1512     1.0  0.71874  0.69992  0.05383  1.0000
  C   C1513     1.0  0.72010  0.70265  0.07567  1.0000
  H   H1804     1.0  0.60232  0.95108  0.08336  1.0000
  H   H1805     1.0  0.71210  0.71089  0.08354  1.0000
  C   C1514     1.0  0.62425  0.96037  0.04322  1.0000
  C   C1515     1.0  0.68524  0.84690  0.06024  1.0000
  C   C1516     1.0  0.69936  0.84441  0.07196  1.0000
  C   C1517     1.0  0.70215  0.82647  0.07691  1.0000
  C   C1518     1.0  0.69088  0.81084  0.07027  1.0000
  C   C1519     1.0  0.67671  0.81335  0.05868  1.0000
  C   C1520     1.0  0.67393  0.83126  0.05372  1.0000
  H   H1806     1.0  0.70816  0.85627  0.07714  1.0000
  H   H1807     1.0  0.71316  0.82470  0.08589  1.0000
  H   H1808     1.0  0.66793  0.80149  0.05346  1.0000
  H   H1809     1.0  0.66293  0.83298  0.04470  1.0000
  H   H1810     1.0  0.52043  0.71047  0.48156  1.0000
  C   C1521     1.0  0.58387  0.71206  0.13506  1.0000
  H   H1811     1.0  0.58568  0.88739  0.08531  1.0000
  C   C1522     1.0  0.60839  0.91373  0.14453  1.0000
  C   C1523     1.0  0.61659  0.90742  0.12626  1.0000
  C   C1524     1.0  0.63568  0.91467  0.11754  1.0000
  C   C1525     1.0  0.64670  0.92841  0.12699  1.0000
  C   C1526     1.0  0.63855  0.93470  0.14536  1.0000
  C   C1527     1.0  0.61940  0.92735  0.15416  1.0000
  H   H1812     1.0  0.60810  0.89675  0.11896  1.0000
  H   H1813     1.0  0.64182  0.90962  0.10351  1.0000
  H   H1814     1.0  0.64700  0.94532  0.15278  1.0000
  H   H1815     1.0  0.61315  0.93229  0.16828  1.0000
  H   H1816     1.0  0.62739  0.81645  0.15370  1.0000
  H   H1817     1.0  0.73876  0.94171  0.11653  1.0000
  C   C1528     1.0  0.61257  0.96959  0.20712  1.0000
  C   C1529     1.0  0.60691  0.96909  0.22988  1.0000
  C   C1530     1.0  0.61429  0.98453  0.23963  1.0000
  H   H1818     1.0  0.62585  0.89770  0.02507  1.0000
  C   C1531     1.0  0.57590  0.86301  0.28527  1.0000
  H   H1819     1.0  0.60705  0.95766  0.19954  1.0000
  H   H1820     1.0  0.57836  0.68949  0.16176  1.0000
  C   C1532     1.0  0.52703  0.68570  0.18475  1.0000
  H   H1821     1.0  0.60992  0.98417  0.25725  1.0000
  H   H1822     1.0  0.60378  0.81683  0.18462  1.0000
  H   H1823     1.0  0.55213  0.72795  0.10982  1.0000
  H   H1824     1.0  0.55772  0.91175  0.30567  1.0000
  Fe  Fe208     1.0  0.50220  0.82463  0.37792  1.0000
  H   H1825     1.0  0.71852  0.76472  0.09048  1.0000
  H   H1826     1.0  0.51622  0.72360  0.40601  1.0000
  H   H1827     1.0  0.65292  0.96631  0.06614  1.0000
  C   C1533     1.0  0.72891  0.68887  0.04392  1.0000
  H   H1828     1.0  0.59716  0.91931  0.09056  1.0000
  H   H1829     1.0  0.51823  0.69305  0.17600  1.0000
  H   H1830     1.0  0.60845  0.69127  0.09089  1.0000
  C   C1534     1.0  0.66360  0.91123  0.99413  1.0000
  H   H1831     1.0  0.73698  0.75937  0.10276  1.0000
  C   C1535     1.0  0.58135  0.89031  0.30409  1.0000
  H   H1832     1.0  0.62907  0.97539  0.04469  1.0000
  C   C1536     1.0  0.50858  0.74458  0.38461  1.0000
  H   H1833     1.0  0.65522  0.71583  0.00556  1.0000
  C   C1537     1.0  0.51013  0.72656  0.39147  1.0000
  H   H1834     1.0  0.61551  0.91395  0.29168  1.0000
  C   C1538     1.0  0.52395  0.85557  0.32945  1.0000
  C   C1539     1.0  0.52161  0.83997  0.31892  1.0000
  C   C1540     1.0  0.52546  0.84223  0.29559  1.0000
  C   C1541     1.0  0.53187  0.86013  0.28258  1.0000
  C   C1542     1.0  0.53417  0.87582  0.29300  1.0000
  C   C1543     1.0  0.53023  0.87353  0.31642  1.0000
  H   H1835     1.0  0.51610  0.69086  0.46718  1.0000
  H   H1836     1.0  0.52371  0.83003  0.28762  1.0000
  H   H1837     1.0  0.53901  0.88964  0.28303  1.0000
  H   H1838     1.0  0.53193  0.88562  0.32454  1.0000
  H   H1839     1.0  0.56963  0.91485  0.27749  1.0000
  H   H1840     1.0  0.73889  0.99069  0.04638  1.0000
  H   H1841     1.0  0.60866  0.93531  0.28641  1.0000
  H   H1842     1.0  0.50961  0.98721  0.23895  1.0000
  C   C1544     1.0  0.57138  0.91804  0.29436  1.0000
  C   C1545     1.0  0.53397  0.77733  0.44922  1.0000
  H   H1843     1.0  0.50402  0.82315  0.45138  1.0000
  C   C1546     1.0  0.54538  0.70508  0.13762  1.0000
  H   H1844     1.0  0.53574  0.69584  0.19334  1.0000
  N   N102      1.0  0.62666  0.94789  0.06280  1.0000
  C   C1547     1.0  0.54870  0.98408  0.21104  1.0000
  C   C1548     1.0  0.54442  0.75153  0.46529  1.0000
  H   H1845     1.0  0.49865  0.88875  0.25130  1.0000
  H   H1846     1.0  0.52301  0.97421  0.18400  1.0000
  C   C1549     1.0  0.60398  0.91538  0.07602  1.0000
  C   C1550     1.0  0.58844  0.91694  0.32446  1.0000
  H   H1847     1.0  0.59886  0.71470  0.13386  1.0000
  C   C1551     1.0  0.57057  0.85098  0.30578  1.0000
  C   C1552     1.0  0.51039  0.82595  0.48406  1.0000
  C   C1553     1.0  0.50345  0.71222  0.37975  1.0000
  C   C1554     1.0  0.57181  0.69752  0.15113  1.0000
  H   H1848     1.0  0.72141  0.74155  0.09239  1.0000
  H   H1849     1.0  0.63795  0.93003  0.02938  1.0000
  H   H1850     1.0  0.73649  0.97335  0.01316  1.0000
  H   H1851     1.0  0.51740  0.67186  0.14904  1.0000
  H   H1852     1.0  0.57453  0.93353  0.29284  1.0000
  C   C1555     1.0  0.57680  0.72290  0.12015  1.0000
  H   H1853     1.0  0.59903  0.91139  0.33199  1.0000
  H   H1854     1.0  0.50006  0.76232  0.35996  1.0000
  H   H1855     1.0  0.54092  0.96988  0.21092  1.0000
  C   C1556     1.0  0.60418  0.68214  0.10698  1.0000
  H   H1856     1.0  0.54970  0.73956  0.46324  1.0000
  C   C1557     1.0  0.61747  0.95286  0.08325  1.0000
  H   H1857     1.0  0.57515  0.85733  0.26998  1.0000
  H   H1858     1.0  0.51726  0.82612  0.32865  1.0000
  C   C1558     1.0  0.74054  0.68075  0.05561  1.0000
  C   C1559     1.0  0.50828  0.98202  0.22294  1.0000
  H   H1859     1.0  0.70836  0.97320  0.10644  1.0000
  C   C1560     1.0  0.55758  0.71949  0.12150  1.0000
  C   C1561     1.0  0.53139  0.78274  0.47007  1.0000
  H   H1860     1.0  0.62329  0.83708  0.09674  1.0000
  H   H1861     1.0  0.63241  0.95886  0.02734  1.0000
  H   H1862     1.0  0.62359  0.96771  0.08465  1.0000
  H   H1863     1.0  0.59971  0.87611  0.05279  1.0000
  H   H1864     1.0  0.58419  0.89106  0.26807  1.0000
  C   C1562     1.0  0.64686  0.95176  0.06364  1.0000
  H   H1865     1.0  0.72794  0.68670  0.02701  1.0000
  N   N103      1.0  0.53887  0.67800  0.16931  1.0000
  H   H1866     1.0  0.57459  0.88219  0.34069  1.0000
  C   C1563     1.0  0.71989  0.96656  0.10337  1.0000
  H   H1867     1.0  0.63397  0.86190  0.09229  1.0000
  H   H1868     1.0  0.53084  0.78520  0.43477  1.0000
  H   H1869     1.0  0.63897  0.81555  0.11713  1.0000
  H   H1870     1.0  0.60934  0.95727  0.04131  1.0000
  C   C1564     1.0  0.61978  0.90260  0.03940  1.0000
  H   H1871     1.0  0.54242  0.75769  0.43057  1.0000
  C   C1565     1.0  0.57039  0.85826  0.32547  1.0000
  C   C1566     1.0  0.58108  0.88238  0.28437  1.0000
  H   H1872     1.0  0.59176  0.84453  0.18650  1.0000
  C   C1567     1.0  0.73868  0.98585  0.12496  1.0000
  N   N104      1.0  0.58628  0.91089  0.30268  1.0000
  C   C1568     1.0  0.72888  0.76115  0.04977  1.0000
  C   C1569     1.0  0.61488  0.68531  0.12369  1.0000
  H   H1873     1.0  0.65516  0.95014  0.04796  1.0000
  H   H1874     1.0  0.49889  0.73194  0.44256  1.0000
  H   H1875     1.0  0.52637  0.79498  0.47098  1.0000
  H   H1876     1.0  0.60311  0.91836  0.26941  1.0000
  H   H1877     1.0  0.73693  0.76606  0.03248  1.0000
  H   H1878     1.0  0.74370  0.79134  0.06522  1.0000
  N   N105      1.0  0.73009  0.96636  0.12231  1.0000
  H   H1879     1.0  0.71049  0.94039  0.13967  1.0000
  H   H1880     1.0  0.59305  0.93247  0.32264  1.0000
  H   H1881     1.0  0.66516  0.90592  0.01081  1.0000
  H   H1882     1.0  0.61912  0.94420  0.09867  1.0000
  H   H1883     1.0  0.51096  0.96805  0.22459  1.0000
  H   H1884     1.0  0.56587  0.83599  0.30643  1.0000
  H   H1885     1.0  0.64639  0.84704  0.08093  1.0000
  H   H1886     1.0  0.58629  0.73387  0.10745  1.0000
  H   H1887     1.0  0.63006  0.98579  0.17656  1.0000
  H   H1888     1.0  0.71986  0.74668  0.05095  1.0000
  C   C1570     1.0  0.71660  0.95495  0.14228  1.0000
  C   C1571     1.0  0.73214  0.69496  0.08716  1.0000
  H   H1889     1.0  0.72337  0.95387  0.15722  1.0000
  C   C1572     1.0  0.57566  0.87762  0.32477  1.0000
  C   C1573     1.0  0.60416  0.91990  0.28696  1.0000
  C   C1574     1.0  0.62564  0.98549  0.19415  1.0000
  C   C1575     1.0  0.49861  0.82008  0.46907  1.0000
  C   C1576     1.0  0.61909  0.92812  0.06052  1.0000
  H   H1890     1.0  0.52491  0.83330  0.47781  1.0000
  H   H1891     1.0  0.56542  0.84884  0.34140  1.0000
  C   C1577     1.0  0.56711  0.98703  0.21445  1.0000
  N   N106      1.0  0.64437  0.84532  0.11660  1.0000
  C   C1578     1.0  0.66106  0.86120  0.11546  1.0000
  C   C1579     1.0  0.65065  0.82800  0.11732  1.0000
  C   C1580     1.0  0.63663  0.84796  0.09582  1.0000
  C   C1581     1.0  0.63009  0.84479  0.13604  1.0000
  C   C1582     1.0  0.62282  0.82900  0.15351  1.0000
  C   C1583     1.0  0.62286  0.86041  0.13779  1.0000
  C   C1584     1.0  0.60917  0.82900  0.17147  1.0000
  C   C1585     1.0  0.60921  0.86024  0.15581  1.0000
  C   C1586     1.0  0.60238  0.84457  0.17260  1.0000
  H   H1892     1.0  0.66652  0.86039  0.13140  1.0000
  H   H1893     1.0  0.67258  0.86135  0.10189  1.0000
  H   H1894     1.0  0.65818  0.87503  0.11194  1.0000
  H   H1895     1.0  0.65713  0.82539  0.13223  1.0000
  H   H1896     1.0  0.66146  0.82893  0.10253  1.0000
  C   C1587     1.0  0.51266  0.70427  0.46899  1.0000
  H   H1897     1.0  0.51828  0.71364  0.45255  1.0000
  C   C1588     1.0  0.62665  0.92115  0.04205  1.0000
  H   H1898     1.0  0.53060  0.70294  0.13798  1.0000
  C   C1589     1.0  0.72909  0.75666  0.08902  1.0000
  C   C1590     1.0  0.60508  0.89045  0.05498  1.0000
  H   H1899     1.0  0.72912  0.97415  0.08743  1.0000
  C   C1591     1.0  0.50100  0.74840  0.36555  1.0000
  H   H1900     1.0  0.68392  0.99212  0.09494  1.0000
  H   H1901     1.0  0.72307  0.98511  0.15821  1.0000
  C   C1592     1.0  0.53522  0.77261  0.48929  1.0000
  H   H1902     1.0  0.50355  0.89144  0.29834  1.0000
  C   C1593     1.0  0.54053  0.99914  0.20764  1.0000
  C   C1594     1.0  0.73355  0.99330  0.14425  1.0000
  C   C1595     1.0  0.74480  0.95668  0.11755  1.0000
  H   H1903     1.0  0.50443  0.69827  0.38532  1.0000
  H   H1904     1.0  0.61725  0.67576  0.15755  1.0000
  C   C1596     1.0  0.74224  0.96893  0.99832  1.0000
  C   C1597     1.0  0.60906  0.67340  0.14453  1.0000
  H   H1905     1.0  0.50183  0.89595  0.20823  1.0000
  Fe  Fe209     1.0  0.50069  0.78440  0.39495  1.0000
  N   N107      1.0  0.74126  0.76193  0.06667  1.0000
  H   H1906     1.0  0.73353  0.69755  0.10382  1.0000
  C   C1598     1.0  0.51936  0.98771  0.18315  1.0000
  C   C1599     1.0  0.54180  0.75674  0.48629  1.0000
  H   H1907     1.0  0.52879  0.99750  0.16849  1.0000
  H   H1908     1.0  0.50485  0.98487  0.17974  1.0000
  H   H1909     1.0  0.71553  0.95670  0.99115  1.0000
  C   C1600     1.0  0.74239  0.68396  0.07718  1.0000
  H   H1910     1.0  0.65303  0.68156  0.09290  1.0000
  H   H1911     1.0  0.67620  0.67544  0.06427  1.0000
  H   H1912     1.0  0.50090  0.90995  0.27871  1.0000
  H   H1913     1.0  0.74660  0.73978  0.03377  1.0000
  C   C1601     1.0  0.67495  0.66942  0.08169  1.0000
  C   C1602     1.0  0.62714  0.00057  0.22657  1.0000
  C   C1603     1.0  0.66199  0.67302  0.09777  1.0000
  H   H1914     1.0  0.65069  0.66899  0.13257  1.0000
  H   H1915     1.0  0.62830  0.70855  0.76982  1.0000
  C   C1604     1.0  0.72511  0.68778  0.79228  1.0000
  Fe  Fe210     1.0  0.51469  0.83639  0.60516  1.0000
  C   C1605     1.0  0.62693  0.99405  0.73832  1.0000
  S   S427      1.0  0.52914  0.86225  0.61770  1.0000
  H   H1916     1.0  0.73953  0.69195  0.79429  1.0000
  H   H1917     1.0  0.59086  0.74007  0.95443  1.0000
  H   H1918     1.0  0.66988  0.81848  0.90484  1.0000
  S   S428      1.0  0.52722  0.81791  0.58554  1.0000
  C   C1606     1.0  0.56881  0.97571  0.76746  1.0000
  H   H1919     1.0  0.50330  0.76449  0.51900  1.0000
  Fe  Fe211     1.0  0.66403  0.90102  0.90371  1.0000
  S   S429      1.0  0.65005  0.88976  0.93955  1.0000
  Fe  Fe212     1.0  0.66596  0.91640  0.85458  1.0000
  S   S430      1.0  0.69620  0.91713  0.84592  1.0000
  S   S431      1.0  0.65534  0.92829  0.82470  1.0000
  Fe  Fe213     1.0  0.68710  0.88845  0.86749  1.0000
  H   H1920     1.0  0.70229  0.91646  0.95933  1.0000
  S   S432      1.0  0.65678  0.88717  0.87453  1.0000
  S   S433      1.0  0.66978  0.93012  0.88465  1.0000
  Fe  Fe214     1.0  0.55735  0.88408  0.72862  1.0000
  S   S434      1.0  0.54075  0.88437  0.76179  1.0000
  S   S435      1.0  0.55203  0.85801  0.71298  1.0000
  Fe  Fe215     1.0  0.58143  0.92386  0.72512  1.0000
  S   S436      1.0  0.56656  0.92751  0.75776  1.0000
  S   S437      1.0  0.60383  0.94673  0.70163  1.0000
  Fe  Fe216     1.0  0.56845  0.89858  0.77021  1.0000
  S   S438      1.0  0.57598  0.88939  0.80354  1.0000
  Fe  Fe217     1.0  0.54043  0.91315  0.74633  1.0000
  S   S439      1.0  0.51613  0.92579  0.74672  1.0000
  S   S440      1.0  0.58513  0.89590  0.73825  1.0000
  S   S441      1.0  0.55519  0.91193  0.71260  1.0000
  S   S442      1.0  0.71948  0.95353  0.88750  1.0000
  Fe  Fe218     1.0  0.67453  0.72689  0.84821  1.0000
  S   S443      1.0  0.65399  0.70075  0.86765  1.0000
  S   S444      1.0  0.70125  0.72651  0.82678  1.0000
  Fe  Fe219     1.0  0.65172  0.75288  0.86330  1.0000
  S   S445      1.0  0.62939  0.72839  0.88424  1.0000
  S   S446      1.0  0.64486  0.78092  0.86361  1.0000
  Fe  Fe220     1.0  0.65283  0.71806  0.89472  1.0000
  S   S447      1.0  0.65411  0.70441  0.92923  1.0000
  Fe  Fe221     1.0  0.63215  0.71310  0.85530  1.0000
  S   S448      1.0  0.60450  0.69686  0.84711  1.0000
  S   S449      1.0  0.67508  0.74345  0.87617  1.0000
  S   S450      1.0  0.65286  0.73833  0.83349  1.0000
  H   H1921     1.0  0.58544  0.70304  0.90718  1.0000
  C   C1607     1.0  0.66704  0.93050  0.98700  1.0000
  C   C1608     1.0  0.71220  0.92492  0.96842  1.0000
  H   H1922     1.0  0.67642  0.84978  0.90657  1.0000
  H   H1923     1.0  0.72133  0.96700  0.93461  1.0000
  C   C1609     1.0  0.67230  0.79343  0.92266  1.0000
  H   H1924     1.0  0.58264  0.73228  0.91853  1.0000
  C   C1610     1.0  0.50676  0.91572  0.65973  1.0000
  H   H1925     1.0  0.64211  0.83009  0.97129  1.0000
  H   H1926     1.0  0.51432  0.94867  0.78024  1.0000
  Fe  Fe222     1.0  0.69952  0.92913  0.87723  1.0000
  C   C1611     1.0  0.73642  0.72541  0.83073  1.0000
  C   C1612     1.0  0.71760  0.71539  0.83620  1.0000
  C   C1613     1.0  0.71277  0.69638  0.84600  1.0000
  C   C1614     1.0  0.61009  0.67959  0.90720  1.0000
  C   C1615     1.0  0.60056  0.69798  0.95707  1.0000
  H   H1927     1.0  0.55994  0.69863  0.77818  1.0000
  C   C1616     1.0  0.61457  0.67218  0.82078  1.0000
  C   C1617     1.0  0.64043  0.74181  0.96587  1.0000
  C   C1618     1.0  0.64382  0.73261  0.94787  1.0000
  C   C1619     1.0  0.65081  0.71702  0.95092  1.0000
  C   C1620     1.0  0.65488  0.71103  0.97179  1.0000
  C   C1621     1.0  0.67007  0.97345  0.84904  1.0000
  H   H1928     1.0  0.63459  0.75359  0.96360  1.0000
  H   H1929     1.0  0.64056  0.73729  0.93184  1.0000
  C   C1622     1.0  0.67184  0.78290  0.94329  1.0000
  C   C1623     1.0  0.59201  0.72696  0.94962  1.0000
  C   C1624     1.0  0.71726  0.68958  0.95140  1.0000
  S   S451      1.0  0.51913  0.82818  0.52537  1.0000
  H   H1930     1.0  0.57382  0.68568  0.70717  1.0000
  C   C1625     1.0  0.61816  0.97598  0.75017  1.0000
  C   C1626     1.0  0.61169  0.96132  0.73884  1.0000
  C   C1627     1.0  0.61392  0.96463  0.71559  1.0000
  C   C1628     1.0  0.62341  0.98257  0.70360  1.0000
  H   H1931     1.0  0.69826  0.68838  0.84960  1.0000
  H   H1932     1.0  0.61616  0.97328  0.76822  1.0000
  H   H1933     1.0  0.60504  0.94742  0.74817  1.0000
  C   C1629     1.0  0.73410  0.97536  0.87267  1.0000
  C   C1630     1.0  0.68224  0.84069  0.85976  1.0000
  C   C1631     1.0  0.69037  0.82603  0.85668  1.0000
  C   C1632     1.0  0.67921  0.80760  0.85799  1.0000
  C   C1633     1.0  0.65975  0.80367  0.86227  1.0000
  C   C1634     1.0  0.65165  0.81834  0.86532  1.0000
  C   C1635     1.0  0.66278  0.83674  0.86400  1.0000
  H   H1934     1.0  0.70541  0.82893  0.85330  1.0000
  H   H1935     1.0  0.68565  0.79647  0.85553  1.0000
  H   H1936     1.0  0.63661  0.81544  0.86866  1.0000
  H   H1937     1.0  0.65625  0.84780  0.86626  1.0000
  C   C1636     1.0  0.63320  0.91736  0.81916  1.0000
  C   C1637     1.0  0.62843  0.92316  0.79860  1.0000
  C   C1638     1.0  0.61093  0.91467  0.79360  1.0000
  C   C1639     1.0  0.59803  0.90043  0.80925  1.0000
  C   C1640     1.0  0.60280  0.89467  0.82983  1.0000
  C   C1641     1.0  0.62037  0.90302  0.83475  1.0000
  H   H1938     1.0  0.63828  0.93426  0.78647  1.0000
  H   H1939     1.0  0.60737  0.91920  0.77771  1.0000
  H   H1940     1.0  0.59284  0.88369  0.84203  1.0000
  H   H1941     1.0  0.62387  0.89851  0.85068  1.0000
  H   H1942     1.0  0.67485  0.78777  0.90752  1.0000
  C   C1642     1.0  0.71262  0.95373  0.94539  1.0000
  C   C1643     1.0  0.65810  0.89875  0.97960  1.0000
  C   C1644     1.0  0.65660  0.90552  0.95771  1.0000
  C   C1645     1.0  0.66025  0.92479  0.95057  1.0000
  C   C1646     1.0  0.66510  0.93722  0.96532  1.0000
  H   H1943     1.0  0.51010  0.99093  0.80364  1.0000
  C   C1647     1.0  0.50350  0.82233  0.50705  1.0000
  H   H1944     1.0  0.65892  0.93012  0.93381  1.0000
  H   H1945     1.0  0.66768  0.95209  0.95974  1.0000
  H   H1946     1.0  0.65813  0.99296  0.77541  1.0000
  C   C1648     1.0  0.55376  0.68017  0.74695  1.0000
  C   C1649     1.0  0.72687  0.68752  0.84998  1.0000
  C   C1650     1.0  0.58138  0.69312  0.71919  1.0000
  C   C1651     1.0  0.60379  0.69702  0.75628  1.0000
  C   C1652     1.0  0.73036  0.95926  0.98564  1.0000
  H   H1947     1.0  0.54360  0.96056  0.75883  1.0000
  C   C1653     1.0  0.57361  0.98540  0.70944  1.0000
  H   H1948     1.0  0.62399  0.68886  0.90781  1.0000
  N   N108      1.0  0.66192  0.83743  0.94019  1.0000
  C   C1654     1.0  0.53386  0.86012  0.64497  1.0000
  C   C1655     1.0  0.53708  0.87605  0.65497  1.0000
  C   C1656     1.0  0.54184  0.87531  0.67623  1.0000
  C   C1657     1.0  0.54383  0.85868  0.68750  1.0000
  C   C1658     1.0  0.54028  0.84258  0.67769  1.0000
  C   C1659     1.0  0.53512  0.84324  0.65651  1.0000
  H   H1949     1.0  0.53627  0.88914  0.64602  1.0000
  H   H1950     1.0  0.54441  0.88774  0.68355  1.0000
  H   H1951     1.0  0.54176  0.82963  0.68636  1.0000
  H   H1952     1.0  0.53264  0.83085  0.64888  1.0000
  N   N109      1.0  0.72445  0.94216  0.95369  1.0000
  N   N110      1.0  0.59862  0.89495  0.65796  1.0000
  C   C1660     1.0  0.61902  0.90337  0.65128  1.0000
  C   C1661     1.0  0.59319  0.89546  0.68197  1.0000
  C   C1662     1.0  0.59446  0.87495  0.65548  1.0000
  C   C1663     1.0  0.58884  0.90584  0.64436  1.0000
  C   C1664     1.0  0.57864  0.89848  0.62820  1.0000
  C   C1665     1.0  0.58978  0.92464  0.64665  1.0000
  C   C1666     1.0  0.56972  0.90923  0.61552  1.0000
  C   C1667     1.0  0.58076  0.93523  0.63392  1.0000
  C   C1668     1.0  0.57073  0.92753  0.61840  1.0000
  H   H1953     1.0  0.62330  0.91804  0.65427  1.0000
  H   H1954     1.0  0.62694  0.89543  0.66091  1.0000
  H   H1955     1.0  0.62366  0.90364  0.63320  1.0000
  H   H1956     1.0  0.59839  0.90958  0.68620  1.0000
  H   H1957     1.0  0.59871  0.88587  0.69292  1.0000
  H   H1958     1.0  0.57779  0.89107  0.68706  1.0000
  H   H1959     1.0  0.59950  0.87329  0.63818  1.0000
  H   H1960     1.0  0.60125  0.86689  0.66666  1.0000
  H   H1961     1.0  0.57920  0.86796  0.66002  1.0000
  H   H1962     1.0  0.57691  0.88430  0.62531  1.0000
  H   H1963     1.0  0.59751  0.93132  0.65834  1.0000
  H   H1964     1.0  0.56166  0.90308  0.60367  1.0000
  H   H1965     1.0  0.58160  0.94951  0.63615  1.0000
  H   H1966     1.0  0.56371  0.93575  0.60858  1.0000
  N   N111      1.0  0.66242  0.86997  0.80118  1.0000
  C   C1669     1.0  0.66635  0.88222  0.81790  1.0000
  C   C1670     1.0  0.67775  0.86081  0.79801  1.0000
  C   C1671     1.0  0.66297  0.88182  0.77955  1.0000
  C   C1672     1.0  0.64373  0.85653  0.80895  1.0000
  C   C1673     1.0  0.62742  0.86287  0.80989  1.0000
  C   C1674     1.0  0.64113  0.83712  0.81648  1.0000
  C   C1675     1.0  0.60963  0.85052  0.81732  1.0000
  C   C1676     1.0  0.62328  0.82490  0.82408  1.0000
  C   C1677     1.0  0.60757  0.83157  0.82440  1.0000
  H   H1967     1.0  0.66687  0.87391  0.83407  1.0000
  H   H1968     1.0  0.67999  0.89304  0.81248  1.0000
  H   H1969     1.0  0.65551  0.88972  0.82113  1.0000
  H   H1970     1.0  0.67940  0.85311  0.81409  1.0000
  H   H1971     1.0  0.69153  0.87121  0.79151  1.0000
  H   H1972     1.0  0.67535  0.85090  0.78607  1.0000
  H   H1973     1.0  0.65417  0.89165  0.78126  1.0000
  H   H1974     1.0  0.67729  0.89087  0.77232  1.0000
  H   H1975     1.0  0.65808  0.87306  0.76714  1.0000
  H   H1976     1.0  0.62822  0.87748  0.80509  1.0000
  H   H1977     1.0  0.65264  0.83097  0.81698  1.0000
  H   H1978     1.0  0.59739  0.85577  0.81770  1.0000
  H   H1979     1.0  0.62168  0.81016  0.82996  1.0000
  H   H1980     1.0  0.59376  0.82207  0.83031  1.0000
  N   N112      1.0  0.57429  0.68306  0.74248  1.0000
  C   C1678     1.0  0.57483  0.70062  0.77531  1.0000
  H   H1981     1.0  0.50460  0.92645  0.64675  1.0000
  H   H1982     1.0  0.73196  0.70894  0.88481  1.0000
  C   C1679     1.0  0.54455  0.79807  0.50942  1.0000
  H   H1983     1.0  0.54514  0.74817  0.49985  1.0000
  H   H1984     1.0  0.54060  0.80845  0.49773  1.0000
  C   C1680     1.0  0.51276  0.77870  0.51751  1.0000
  C   C1681     1.0  0.73742  0.95287  0.96641  1.0000
  H   H1985     1.0  0.72609  0.98993  0.81463  1.0000
  C   C1682     1.0  0.58462  0.71023  0.78993  1.0000
  H   H1986     1.0  0.57688  0.96721  0.76016  1.0000
  H   H1987     1.0  0.58720  0.98606  0.71356  1.0000
  H   H1988     1.0  0.65970  0.86099  0.91730  1.0000
  H   H1989     1.0  0.67414  0.76914  0.94422  1.0000
  C   C1683     1.0  0.57751  0.99012  0.77773  1.0000
  H   H1990     1.0  0.67631  0.98174  0.77687  1.0000
  H   H1991     1.0  0.57725  0.71505  0.80338  1.0000
  H   H1992     1.0  0.50252  0.88041  0.64308  1.0000
  H   H1993     1.0  0.54341  0.80297  0.52579  1.0000
  C   C1684     1.0  0.54437  0.96587  0.70375  1.0000
  Fe  Fe223     1.0  0.50289  0.79443  0.60447  1.0000
  C   C1685     1.0  0.58417  0.69363  0.75802  1.0000
  H   H1994     1.0  0.55946  0.79900  0.50358  1.0000
  C   C1686     1.0  0.53710  0.76676  0.52961  1.0000
  H   H1995     1.0  0.69772  0.72690  0.91719  1.0000
  H   H1996     1.0  0.64651  0.98346  0.84343  1.0000
  H   H1997     1.0  0.55206  0.76694  0.52655  1.0000
  H   H1998     1.0  0.53448  0.77160  0.54585  1.0000
  C   C1687     1.0  0.70328  0.71704  0.92773  1.0000
  C   C1688     1.0  0.58915  0.70577  0.92305  1.0000
  N   N113      1.0  0.53251  0.77878  0.51113  1.0000
  H   H1999     1.0  0.51370  0.92310  0.67217  1.0000
  H   H2000     1.0  0.57961  0.70752  0.71728  1.0000
  H   H2001     1.0  0.70379  0.95745  0.95911  1.0000
  C   C1689     1.0  0.67139  0.99366  0.78189  1.0000
  H   H2002     1.0  0.61123  0.72011  0.79966  1.0000
  H   H2003     1.0  0.72295  0.67533  0.98148  1.0000
  C   C1690     1.0  0.71833  0.69107  0.92788  1.0000
  C   C1691     1.0  0.66549  0.81882  0.94089  1.0000
  H   H2004     1.0  0.66765  0.99128  0.80036  1.0000
  H   H2005     1.0  0.66742  0.78149  0.97883  1.0000
  H   H2006     1.0  0.60226  0.71825  0.97904  1.0000
  N   N114      1.0  0.51860  0.97869  0.77546  1.0000
  C   C1692     1.0  0.59839  0.71462  0.96348  1.0000
  C   C1693     1.0  0.72622  0.71690  0.89665  1.0000
  C   C1694     1.0  0.51566  0.97971  0.75199  1.0000
  H   H2007     1.0  0.60436  0.68666  0.89388  1.0000
  H   H2008     1.0  0.74281  0.92721  0.93918  1.0000
  H   H2009     1.0  0.73807  0.72455  0.90383  1.0000
  N   N115      1.0  0.71106  0.70467  0.91447  1.0000
  C   C1695     1.0  0.69593  0.69443  0.90397  1.0000
  C   C1696     1.0  0.74576  0.69775  0.84421  1.0000
  C   C1697     1.0  0.70674  0.99900  0.79600  1.0000
  C   C1698     1.0  0.66815  0.78995  0.96276  1.0000
  H   H2010     1.0  0.50211  0.88028  0.67985  1.0000
  Fe  Fe224     1.0  0.50749  0.82192  0.56220  1.0000
  C   C1699     1.0  0.58739  0.72254  0.92944  1.0000
  C   C1700     1.0  0.73399  0.93637  0.93414  1.0000
  H   H2011     1.0  0.50834  0.78803  0.50508  1.0000
  C   C1701     1.0  0.61340  0.70654  0.77107  1.0000
  H   H2012     1.0  0.51022  0.78368  0.53367  1.0000
  H   H2013     1.0  0.72497  0.71672  0.78584  1.0000
  C   C1702     1.0  0.50232  0.74896  0.60285  1.0000
  C   C1703     1.0  0.66247  0.84709  0.91726  1.0000
  C   C1704     1.0  0.69703  0.99636  0.85511  1.0000
  S   S452      1.0  0.69686  0.86368  0.85789  1.0000
  H   H2014     1.0  0.66317  0.95916  0.84790  1.0000
  C   C1705     1.0  0.59597  0.69303  0.93656  1.0000
  C   C1706     1.0  0.72392  0.67627  0.96356  1.0000
  S   S453      1.0  0.69383  0.90048  0.89793  1.0000
  C   C1707     1.0  0.66927  0.81115  0.92137  1.0000
  C   C1708     1.0  0.66072  0.98722  0.84650  1.0000
  H   H2015     1.0  0.72126  0.72741  0.88631  1.0000
  H   H2016     1.0  0.52356  0.99357  0.74179  1.0000
  C   C1709     1.0  0.68821  0.97802  0.85329  1.0000
  C   C1710     1.0  0.60383  0.71313  0.78785  1.0000
  H   H2017     1.0  0.55007  0.69370  0.74498  1.0000
  H   H2018     1.0  0.73123  0.98882  0.90134  1.0000
  H   H2019     1.0  0.54739  0.67208  0.76400  1.0000
  C   C1711     1.0  0.73783  0.99047  0.88416  1.0000
  H   H2020     1.0  0.66028  0.69897  0.97428  1.0000
  H   H2021     1.0  0.62533  0.98515  0.68557  1.0000
  C   C1712     1.0  0.53828  0.98174  0.69856  1.0000
  H   H2022     1.0  0.51131  0.95795  0.80541  1.0000
  H   H2023     1.0  0.62868  0.67771  0.82339  1.0000
  H   H2024     1.0  0.68422  0.68516  0.91687  1.0000
  H   H2025     1.0  0.69006  0.70419  0.89372  1.0000
  C   C1713     1.0  0.54977  0.97211  0.76671  1.0000
  H   H2026     1.0  0.53534  0.95210  0.70380  1.0000
  H   H2027     1.0  0.57091  0.67697  0.83415  1.0000
  H   H2028     1.0  0.69647  0.98569  0.80206  1.0000
  H   H2029     1.0  0.50069  0.97768  0.75068  1.0000
  C   C1714     1.0  0.62986  0.99733  0.71498  1.0000
  C   C1715     1.0  0.69817  0.69833  0.78548  1.0000
  H   H2030     1.0  0.67410  0.86407  0.94922  1.0000
  H   H2031     1.0  0.72053  0.91599  0.97550  1.0000
  H   H2032     1.0  0.69544  0.96724  0.85549  1.0000
  H   H2033     1.0  0.52447  0.98024  0.69443  1.0000
  H   H2034     1.0  0.70345  0.92806  0.98264  1.0000
  C   C1716     1.0  0.67615  0.84978  0.95001  1.0000
  H   H2035     1.0  0.56683  0.95539  0.71305  1.0000
  C   C1717     1.0  0.50254  0.73074  0.61149  1.0000
  C   C1718     1.0  0.64318  0.83538  0.95326  1.0000
  H   H2036     1.0  0.65163  0.83888  0.90914  1.0000
  C   C1719     1.0  0.56203  0.96772  0.70911  1.0000
  H   H2037     1.0  0.72321  0.67287  0.85731  1.0000
  H   H2038     1.0  0.63217  0.82552  0.94697  1.0000
  H   H2039     1.0  0.52836  0.75201  0.53215  1.0000
  H   H2040     1.0  0.59228  0.99285  0.77830  1.0000
  H   H2041     1.0  0.70294  0.94632  0.93525  1.0000
  H   H2042     1.0  0.63965  0.84902  0.95222  1.0000
  H   H2043     1.0  0.67568  0.84437  0.96787  1.0000
  H   H2044     1.0  0.51682  0.90903  0.65154  1.0000
  H   H2045     1.0  0.72379  0.92828  0.92507  1.0000
  H   H2046     1.0  0.71128  0.69845  0.96088  1.0000
  H   H2047     1.0  0.52001  0.96865  0.74404  1.0000
  C   C1720     1.0  0.53884  0.98304  0.77610  1.0000
  H   H2048     1.0  0.59640  0.69434  0.71375  1.0000
  H   H2049     1.0  0.60621  0.68949  0.96833  1.0000
  H   H2050     1.0  0.74034  0.73995  0.82276  1.0000
  C   C1721     1.0  0.50932  0.99167  0.78561  1.0000
  C   C1722     1.0  0.66507  0.80766  0.96165  1.0000
  H   H2051     1.0  0.71402  0.72566  0.93562  1.0000
  S   S454      1.0  0.50542  0.76630  0.61968  1.0000
  H   H2052     1.0  0.69046  0.85133  0.94087  1.0000
  H   H2053     1.0  0.72790  0.67877  0.89967  1.0000
  C   C1723     1.0  0.71693  0.70227  0.78731  1.0000
  C   C1724     1.0  0.54823  0.99786  0.78616  1.0000
  H   H2054     1.0  0.69128  0.70883  0.94096  1.0000
  H   H2055     1.0  0.50159  0.84134  0.69477  1.0000
  C   C1725     1.0  0.64453  0.73583  0.98675  1.0000
  H   H2056     1.0  0.69181  0.70970  0.78258  1.0000
  H   H2057     1.0  0.70078  0.68555  0.89272  1.0000
  H   H2058     1.0  0.66222  0.81246  0.97724  1.0000
  C   C1726     1.0  0.50912  0.95948  0.78779  1.0000
  H   H2059     1.0  0.71100  0.99915  0.85877  1.0000
  H   H2060     1.0  0.61183  0.69204  0.74367  1.0000
  C   C1727     1.0  0.50030  0.71679  0.59813  1.0000
  H   H2061     1.0  0.50466  0.72748  0.62847  1.0000
  C   C1728     1.0  0.60031  0.67908  0.83044  1.0000
  C   C1729     1.0  0.72652  0.67850  0.91748  1.0000
  C   C1730     1.0  0.68756  0.67984  0.78804  1.0000
  H   H2062     1.0  0.49887  0.89419  0.70051  1.0000
  H   H2063     1.0  0.50086  0.70287  0.60474  1.0000
  H   H2064     1.0  0.65530  0.88385  0.98522  1.0000
  H   H2065     1.0  0.50480  0.88550  0.75009  1.0000
  N   N116      1.0  0.59776  0.67539  0.92933  1.0000
  H   H2066     1.0  0.74273  0.94872  0.92168  1.0000
  C   C1731     1.0  0.74300  0.97775  0.85052  1.0000
  H   H2067     1.0  0.74064  0.96609  0.84165  1.0000
  H   H2068     1.0  0.67293  0.67686  0.78671  1.0000
  C   C1732     1.0  0.54971  0.99952  0.69899  1.0000
  H   H2069     1.0  0.54676  0.67199  0.73512  1.0000
  C   C1733     1.0  0.49951  0.75307  0.58094  1.0000
  C   C1734     1.0  0.49793  0.72112  0.57606  1.0000
  H   H2070     1.0  0.57299  0.67074  0.91435  1.0000
  C   C1735     1.0  0.65198  0.72054  0.98957  1.0000
  H   H2071     1.0  0.49927  0.76700  0.57418  1.0000
  C   C1736     1.0  0.49715  0.73912  0.56769  1.0000
  C   C1737     1.0  0.71464  0.66872  0.79523  1.0000
  C   C1738     1.0  0.58204  0.67172  0.82679  1.0000
  H   H2072     1.0  0.62003  0.67194  0.94667  1.0000
  S   S455      1.0  0.49705  0.84242  0.58005  1.0000
  Fe  Fe225     1.0  0.77712  0.09825  0.03405  1.0000
  S   S456      1.0  0.80425  0.09216  0.02315  1.0000
  C   C1739     1.0  0.76858  0.23125  0.29143  1.0000
  Fe  Fe226     1.0  0.78008  0.09186  0.08281  1.0000
  S   S457      1.0  0.80762  0.08522  0.07540  1.0000
  C   C1740     1.0  0.90225  0.30780  0.28191  1.0000
  Fe  Fe227     1.0  0.81548  0.11016  0.04754  1.0000
  S   S458      1.0  0.84135  0.13534  0.03472  1.0000
  Fe  Fe228     1.0  0.79362  0.06793  0.05190  1.0000
  S   S459      1.0  0.79735  0.03885  0.05055  1.0000
  S   S460      1.0  0.78862  0.11771  0.05655  1.0000
  S   S461      1.0  0.76572  0.07301  0.06128  1.0000
  C   C1741     1.0  0.88644  0.29497  0.29540  1.0000
  H   H2073     1.0  0.80693  0.26318  0.47674  1.0000
  C   C1742     1.0  0.98077  0.27727  0.10974  1.0000
  Fe  Fe229     1.0  0.92553  0.21243  0.06960  1.0000
  S   S462      1.0  0.91460  0.23781  0.06793  1.0000
  S   S463      1.0  0.90650  0.18233  0.07850  1.0000
  Fe  Fe230     1.0  0.96673  0.23708  0.06452  1.0000
  S   S464      1.0  0.95831  0.26366  0.06266  1.0000
  H   H2074     1.0  0.95589  0.32492  0.10441  1.0000
  Fe  Fe231     1.0  0.93475  0.24798  0.09053  1.0000
  S   S465      1.0  0.92751  0.25668  0.12385  1.0000
  Fe  Fe232     1.0  0.93938  0.25087  0.04026  1.0000
  C   C1743     1.0  0.75588  0.02336  0.12888  1.0000
  S   S466      1.0  0.94437  0.22187  0.09390  1.0000
  S   S467      1.0  0.94911  0.22497  0.04046  1.0000
  Fe  Fe233     1.0  0.85800  0.29383  0.37259  1.0000
  S   S468      1.0  0.83188  0.29064  0.35806  1.0000
  N   N117      1.0  0.75021  0.19971  0.28578  1.0000
  Fe  Fe234     1.0  0.83813  0.26731  0.41603  1.0000
  S   S469      1.0  0.81037  0.26224  0.40524  1.0000
  S   S470      1.0  0.83825  0.25317  0.45059  1.0000
  Fe  Fe235     1.0  0.82625  0.26023  0.37248  1.0000
  S   S471      1.0  0.81598  0.23573  0.35603  1.0000
  Fe  Fe236     1.0  0.81879  0.29298  0.39228  1.0000
  S   S472      1.0  0.85363  0.26310  0.38414  1.0000
  S   S473      1.0  0.84532  0.29839  0.40599  1.0000
  C   C1744     1.0  0.85260  0.26857  0.46401  1.0000
  H   H2075     1.0  0.80171  0.14505  0.14430  1.0000
  C   C1745     1.0  0.82799  0.15919  0.10601  1.0000
  C   C1746     1.0  0.80558  0.13444  0.13498  1.0000
  H   H2076     1.0  0.75163  0.17459  0.42306  1.0000
  C   C1747     1.0  0.86780  0.28276  0.45162  1.0000
  C   C1748     1.0  0.76459  0.24215  0.35272  1.0000
  H   H2077     1.0  0.82782  0.16508  0.07021  1.0000
  H   H2078     1.0  0.87144  0.28357  0.43378  1.0000
  C   C1749     1.0  0.79223  0.23141  0.35491  1.0000
  C   C1750     1.0  0.78353  0.24585  0.35445  1.0000
  C   C1751     1.0  0.87837  0.29590  0.46233  1.0000
  H   H2079     1.0  0.76258  0.03766  0.13034  1.0000
  H   H2080     1.0  0.79938  0.03081  0.00334  1.0000
  C   C1752     1.0  0.78197  0.21328  0.35405  1.0000
  H   H2081     1.0  0.79146  0.25992  0.35504  1.0000
  H   H2082     1.0  0.78668  0.21539  0.40852  1.0000
  H   H2083     1.0  0.79302  0.12215  0.13797  1.0000
  H   H2084     1.0  0.78872  0.20211  0.35432  1.0000
  H   H2085     1.0  0.98702  0.33090  0.29971  1.0000
  H   H2086     1.0  0.75787  0.25334  0.35223  1.0000
  H   H2087     1.0  0.97859  0.32808  0.26266  1.0000
  H   H2088     1.0  0.91133  0.23346  0.01740  1.0000
  H   H2089     1.0  0.87709  0.32664  0.25099  1.0000
  C   C1753     1.0  0.89067  0.31208  0.32604  1.0000
  C   C1754     1.0  0.88052  0.29720  0.31737  1.0000
  C   C1755     1.0  0.91206  0.32288  0.29052  1.0000
  H   H2090     1.0  0.76509  0.06979  0.00855  1.0000
  H   H2091     1.0  0.86844  0.28712  0.32773  1.0000
  C   C1756     1.0  0.78297  0.20576  0.29514  1.0000
  C   C1757     1.0  0.94625  0.31589  0.13983  1.0000
  C   C1758     1.0  0.93748  0.30054  0.15677  1.0000
  C   C1759     1.0  0.93167  0.28254  0.15152  1.0000
  C   C1760     1.0  0.93458  0.27971  0.12934  1.0000
  C   C1761     1.0  0.94337  0.29504  0.11234  1.0000
  C   C1762     1.0  0.94925  0.31307  0.11761  1.0000
  H   H2092     1.0  0.93500  0.30255  0.17392  1.0000
  H   H2093     1.0  0.92478  0.27076  0.16475  1.0000
  H   H2094     1.0  0.94550  0.29304  0.09517  1.0000
  H   H2095     1.0  0.77187  0.02552  0.09635  1.0000
  C   C1763     1.0  0.85941  0.14811  0.04728  1.0000
  C   C1764     1.0  0.87040  0.16592  0.03603  1.0000
  C   C1765     1.0  0.88482  0.17661  0.04525  1.0000
  C   C1766     1.0  0.88856  0.16955  0.06586  1.0000
  C   C1767     1.0  0.87775  0.15163  0.07697  1.0000
  C   C1768     1.0  0.86331  0.14097  0.06775  1.0000
  H   H2096     1.0  0.86771  0.17161  0.02014  1.0000
  H   H2097     1.0  0.89303  0.19030  0.03643  1.0000
  H   H2098     1.0  0.88065  0.14593  0.09279  1.0000
  H   H2099     1.0  0.85553  0.12707  0.07626  1.0000
  H   H2100     1.0  0.81204  0.22351  0.42932  1.0000
  H   H2101     1.0  0.76198  0.17806  0.27530  1.0000
  C   C1769     1.0  0.85975  0.19080  0.09538  1.0000
  H   H2102     1.0  0.89163  0.21580  0.99394  1.0000
  C   C1770     1.0  0.81756  0.12750  0.09988  1.0000
  H   H2103     1.0  0.96676  0.26922  0.10756  1.0000
  C   C1771     1.0  0.76109  0.20438  0.46146  1.0000
  C   C1772     1.0  0.79776  0.21810  0.43826  1.0000
  C   C1773     1.0  0.87330  0.29525  0.48527  1.0000
  H   H2104     1.0  0.92436  0.33267  0.28049  1.0000
  C   C1774     1.0  0.76243  0.07480  0.99231  1.0000
  C   C1775     1.0  0.79964  0.23660  0.30019  1.0000
  H   H2105     1.0  0.86223  0.18516  0.12976  1.0000
  C   C1776     1.0  0.74941  0.21930  0.40915  1.0000
  H   H2106     1.0  0.95994  0.25631  0.14892  1.0000
  C   C1777     1.0  0.80952  0.27812  0.47878  1.0000
  C   C1778     1.0  0.79575  0.14619  0.10187  1.0000
  H   H2107     1.0  0.98756  0.29922  0.04913  1.0000
  N   N118      1.0  0.93336  0.28463  0.33700  1.0000
  C   C1779     1.0  0.92821  0.29674  0.35264  1.0000
  C   C1780     1.0  0.91577  0.27235  0.33289  1.0000
  C   C1781     1.0  0.94346  0.27241  0.34798  1.0000
  C   C1782     1.0  0.94556  0.29637  0.31639  1.0000
  C   C1783     1.0  0.94131  0.29505  0.29472  1.0000
  C   C1784     1.0  0.96247  0.30955  0.31764  1.0000
  C   C1785     1.0  0.76110  0.01652  0.10975  1.0000
  C   C1786     1.0  0.97422  0.32083  0.29845  1.0000
  C   C1787     1.0  0.90635  0.32497  0.31251  1.0000
  H   H2108     1.0  0.92225  0.30736  0.34423  1.0000
  H   H2109     1.0  0.91748  0.28862  0.36732  1.0000
  H   H2110     1.0  0.94027  0.30441  0.35936  1.0000
  H   H2111     1.0  0.90753  0.28073  0.32468  1.0000
  H   H2112     1.0  0.90657  0.26411  0.34867  1.0000
  H   H2113     1.0  0.91847  0.26211  0.32221  1.0000
  H   H2114     1.0  0.95619  0.28058  0.35314  1.0000
  H   H2115     1.0  0.93457  0.26305  0.36331  1.0000
  H   H2116     1.0  0.94795  0.26342  0.33650  1.0000
  H   H2117     1.0  0.92875  0.28564  0.29187  1.0000
  H   H2118     1.0  0.96672  0.31126  0.33349  1.0000
  H   H2119     1.0  0.75764  0.02376  0.04509  1.0000
  H   H2120     1.0  0.78412  0.26659  0.45382  1.0000
  C   C1788     1.0  0.84978  0.18519  0.07887  1.0000
  H   H2121     1.0  0.76449  0.19192  0.39938  1.0000
  C   C1789     1.0  0.83843  0.16537  0.12253  1.0000
  H   H2122     1.0  0.97177  0.24007  0.12347  1.0000
  C   C1790     1.0  0.86607  0.32968  0.28411  1.0000
  C   C1791     1.0  0.85138  0.32914  0.46416  1.0000
  H   H2123     1.0  0.78323  0.13383  0.10631  1.0000
  C   C1792     1.0  0.98634  0.24815  0.12372  1.0000
  H   H2124     1.0  0.83506  0.15823  0.13963  1.0000
  H   H2125     1.0  0.82982  0.12420  0.10597  1.0000
  N   N119      1.0  0.79287  0.28497  0.47696  1.0000
  H   H2126     1.0  0.78500  0.25767  0.29712  1.0000
  C   C1793     1.0  0.78268  0.01617  0.05057  1.0000
  S   S474      1.0  0.95601  0.32426  0.20863  1.0000
  H   H2127     1.0  0.87878  0.28324  0.28887  1.0000
  C   C1794     1.0  0.76300  0.20953  0.35282  1.0000
  C   C1795     1.0  0.91349  0.23852  0.99965  1.0000
  H   H2128     1.0  0.82146  0.13182  0.08143  1.0000
  H   H2129     1.0  0.97171  0.27897  0.15240  1.0000
  H   H2130     1.0  0.81636  0.12922  0.14247  1.0000
  C   C1796     1.0  0.78310  0.21344  0.42653  1.0000
  H   H2131     1.0  0.85457  0.19262  0.06183  1.0000
  H   H2132     1.0  0.85766  0.31526  0.28857  1.0000
  H   H2133     1.0  0.85472  0.31764  0.45617  1.0000
  S   S475      1.0  0.90993  0.30409  0.25488  1.0000
  H   H2134     1.0  0.83616  0.32721  0.46561  1.0000
  S   S476      1.0  0.94151  0.26765  0.00632  1.0000
  H   H2135     1.0  0.94944  0.30536  0.25935  1.0000
  C   C1797     1.0  0.84812  0.26737  0.48712  1.0000
  S   S477      1.0  0.76200  0.10746  0.00751  1.0000
  C   C1798     1.0  0.95316  0.30640  0.27567  1.0000
  H   H2136     1.0  0.80609  0.11430  0.10328  1.0000
  H   H2137     1.0  0.82158  0.06025  0.00650  1.0000
  C   C1799     1.0  0.76725  0.21208  0.29090  1.0000
  S   S478      1.0  0.76893  0.09092  0.11918  1.0000
  C   C1800     1.0  0.85410  0.18092  0.11714  1.0000
  H   H2138     1.0  0.79839  0.14968  0.08336  1.0000
  H   H2139     1.0  0.78328  0.19143  0.29539  1.0000
  C   C1801     1.0  0.98795  0.30154  0.00296  1.0000
  H   H2140     1.0  0.79393  0.31710  0.44629  1.0000
  N   N120      1.0  0.74895  0.20229  0.42485  1.0000
  C   C1802     1.0  0.97409  0.26543  0.14927  1.0000
  C   C1803     1.0  0.78754  0.28171  0.45513  1.0000
  C   C1804     1.0  0.79415  0.21616  0.46140  1.0000
  H   H2141     1.0  0.77509  0.28658  0.45238  1.0000
  H   H2142     1.0  0.87225  0.20248  0.09115  1.0000
  S   S479      1.0  0.88494  0.31412  0.35415  1.0000
  H   H2143     1.0  0.99045  0.27935  0.09368  1.0000
  C   C1805     1.0  0.83431  0.16948  0.08395  1.0000
  N   N121      1.0  0.81199  0.14218  0.11079  1.0000
  C   C1806     1.0  0.79719  0.30487  0.47964  1.0000
  H   H2144     1.0  0.80554  0.22019  0.47035  1.0000
  C   C1807     1.0  0.96954  0.31927  0.27751  1.0000
  H   H2145     1.0  0.97915  0.25925  0.16387  1.0000
  H   H2146     1.0  0.97954  0.29121  0.11282  1.0000
  H   H2147     1.0  0.79192  0.15807  0.10853  1.0000
  S   S480      1.0  0.80016  0.31130  0.39973  1.0000
  C   C1808     1.0  0.74805  0.20631  0.26272  1.0000
  C   C1809     1.0  0.76389  0.01234  0.04782  1.0000
  C   C1810     1.0  0.77590  0.20911  0.47298  1.0000
  H   H2148     1.0  0.89013  0.30690  0.45274  1.0000
  C   C1811     1.0  0.75138  0.18748  0.41189  1.0000
  C   C1812     1.0  0.78452  0.24324  0.29611  1.0000
  H   H2149     1.0  0.81055  0.21280  0.30351  1.0000
  H   H2150     1.0  0.76050  0.20654  0.25045  1.0000
  H   H2151     1.0  0.75528  0.19551  0.35231  1.0000
  H   H2152     1.0  0.81178  0.24580  0.30447  1.0000
  N   N122      1.0  0.98729  0.26734  0.12818  1.0000
  C   C1813     1.0  0.76425  0.20663  0.43775  1.0000
  H   H2153     1.0  0.79920  0.28891  0.44102  1.0000
  H   H2154     1.0  0.74769  0.08989  0.16182  1.0000
  C   C1814     1.0  0.79731  0.31960  0.46235  1.0000
  H   H2155     1.0  0.82160  0.28632  0.46563  1.0000
  C   C1815     1.0  0.79888  0.21793  0.29970  1.0000
  H   H2156     1.0  0.75174  0.17391  0.30469  1.0000
  H   H2157     1.0  0.80515  0.00400  0.05546  1.0000
  C   C1816     1.0  0.75427  0.22392  0.35206  1.0000
  H   H2158     1.0  0.76260  0.22445  0.39684  1.0000
  C   C1817     1.0  0.81626  0.05901  0.99106  1.0000
  H   H2159     1.0  0.97649  0.29590  0.01765  1.0000
  H   H2160     1.0  0.99447  0.24837  0.10706  1.0000
  H   H2161     1.0  0.85450  0.32703  0.48134  1.0000
  C   C1818     1.0  0.75046  0.17981  0.28754  1.0000
  H   H2162     1.0  0.75718  0.23707  0.28858  1.0000
  H   H2163     1.0  0.98310  0.22149  0.00133  1.0000
  H   H2164     1.0  0.82991  0.14369  0.99236  1.0000
  H   H2165     1.0  0.74805  0.23094  0.41815  1.0000
  H   H2166     1.0  0.98913  0.31667  0.99789  1.0000
  H   H2167     1.0  0.84927  0.17318  0.99135  1.0000
  H   H2168     1.0  0.99330  0.27387  0.03251  1.0000
  H   H2169     1.0  0.83751  0.32694  0.37583  1.0000
  C   C1819     1.0  0.79068  0.00129  0.05351  1.0000
  Fe  Fe237     1.0  0.93133  0.32790  0.23107  1.0000
  H   H2170     1.0  0.81958  0.19299  0.48818  1.0000
  C   C1820     1.0  0.74771  0.09635  0.12656  1.0000
  H   H2171     1.0  0.99149  0.24002  0.13675  1.0000
  H   H2172     1.0  0.74732  0.19903  0.47156  1.0000
  H   H2173     1.0  0.95634  0.21350  0.99037  1.0000
  H   H2174     1.0  0.95649  0.23762  0.99036  1.0000
  C   C1821     1.0  0.82167  0.07413  0.97329  1.0000
  S   S481      1.0  0.77819  0.08670  0.83519  1.0000
  H   H2175     1.0  0.89593  0.21274  0.82864  1.0000
  H   H2176     1.0  0.98649  0.32812  0.72612  1.0000
  S   S482      1.0  0.79137  0.06894  0.88001  1.0000
  C   C1822     1.0  0.87290  0.17478  0.93958  1.0000
  Fe  Fe238     1.0  0.79177  0.09780  0.86334  1.0000
  S   S483      1.0  0.81285  0.12627  0.86240  1.0000
  Fe  Fe239     1.0  0.77496  0.05774  0.85429  1.0000
  S   S484      1.0  0.77481  0.03212  0.83804  1.0000
  H   H2177     1.0  0.81886  0.07017  0.90931  1.0000
  H   H2178     1.0  0.75475  0.11294  0.96268  1.0000
  H   H2179     1.0  0.90278  0.29607  0.89030  1.0000
  Fe  Fe240     1.0  0.90766  0.19471  0.88094  1.0000
  S   S485      1.0  0.88946  0.21373  0.88563  1.0000
  S   S486      1.0  0.89521  0.16403  0.87820  1.0000
  Fe  Fe241     1.0  0.94322  0.22602  0.88431  1.0000
  S   S487      1.0  0.92682  0.24698  0.88891  1.0000
  Fe  Fe242     1.0  0.90562  0.22305  0.91201  1.0000
  S   S488      1.0  0.89116  0.22205  0.94689  1.0000
  Fe  Fe243     1.0  0.91249  0.23557  0.86180  1.0000
  S   S489      1.0  0.90213  0.25087  0.83402  1.0000
  S   S490      1.0  0.92249  0.20262  0.90903  1.0000
  S   S491      1.0  0.93025  0.21600  0.85548  1.0000
  C   C1823     1.0  0.85819  0.27694  0.66137  1.0000
  H   H2180     1.0  0.94301  0.22373  0.97367  1.0000
  H   H2181     1.0  0.82580  0.27948  0.62805  1.0000
  Fe  Fe244     1.0  0.87385  0.31869  0.57907  1.0000
  H   H2182     1.0  0.82775  0.24743  0.66473  1.0000
  H   H2183     1.0  0.96924  0.26074  0.95208  1.0000
  Fe  Fe245     1.0  0.83932  0.29058  0.57148  1.0000
  S   S492      1.0  0.81811  0.26345  0.58818  1.0000
  S   S493      1.0  0.86995  0.29301  0.56309  1.0000
  C   C1824     1.0  0.80288  0.25256  0.57151  1.0000
  H   H2184     1.0  0.90696  0.19465  0.82586  1.0000
  H   H2185     1.0  0.86972  0.26741  0.62033  1.0000
  H   H2186     1.0  0.82989  0.24691  0.63550  1.0000
  C   C1825     1.0  0.79585  0.24622  0.53543  1.0000
  C   C1826     1.0  0.80795  0.25568  0.54825  1.0000
  H   H2187     1.0  0.87017  0.22121  0.82377  1.0000
  H   H2188     1.0  0.80010  0.24805  0.51759  1.0000
  H   H2189     1.0  0.82139  0.26495  0.54022  1.0000
  H   H2190     1.0  0.85450  0.28020  0.51549  1.0000
  C   C1827     1.0  0.86819  0.15147  0.97210  1.0000
  C   C1828     1.0  0.80180  0.05565  0.95196  1.0000
  N   N123      1.0  0.84749  0.27167  0.64361  1.0000
  C   C1829     1.0  0.80546  0.18440  0.52247  1.0000
  H   H2191     1.0  0.84504  0.16424  0.92080  1.0000
  C   C1830     1.0  0.91679  0.27164  0.81724  1.0000
  C   C1831     1.0  0.93487  0.27928  0.82081  1.0000
  C   C1832     1.0  0.94604  0.29613  0.80743  1.0000
  C   C1833     1.0  0.93916  0.30539  0.79049  1.0000
  C   C1834     1.0  0.92109  0.29775  0.78690  1.0000
  C   C1835     1.0  0.90994  0.28091  0.80027  1.0000
  H   H2192     1.0  0.94023  0.27224  0.83390  1.0000
  H   H2193     1.0  0.96001  0.30199  0.81027  1.0000
  H   H2194     1.0  0.91572  0.30476  0.77382  1.0000
  H   H2195     1.0  0.89594  0.27505  0.79749  1.0000
  C   C1836     1.0  0.80414  0.13752  0.95174  1.0000
  C   C1837     1.0  0.91913  0.25127  0.95357  1.0000
  C   C1838     1.0  0.90524  0.23479  0.96326  1.0000
  C   C1839     1.0  0.80072  0.17225  0.58148  1.0000
  H   H2196     1.0  0.86815  0.18621  0.93076  1.0000
  H   H2197     1.0  0.92128  0.25631  0.93583  1.0000
  H   H2198     1.0  0.78191  0.19761  0.57973  1.0000
  H   H2199     1.0  0.83396  0.23296  0.53099  1.0000
  C   C1840     1.0  0.83541  0.13560  0.86864  1.0000
  C   C1841     1.0  0.83995  0.15384  0.87351  1.0000
  C   C1842     1.0  0.85805  0.16263  0.87671  1.0000
  C   C1843     1.0  0.87189  0.15319  0.87539  1.0000
  C   C1844     1.0  0.86728  0.13478  0.87102  1.0000
  C   C1845     1.0  0.84921  0.12609  0.86746  1.0000
  H   H2200     1.0  0.82946  0.16141  0.87437  1.0000
  H   H2201     1.0  0.86128  0.17678  0.87998  1.0000
  H   H2202     1.0  0.87791  0.12739  0.86973  1.0000
  H   H2203     1.0  0.84617  0.11230  0.86303  1.0000
  C   C1846     1.0  0.80302  0.18912  0.54417  1.0000
  H   H2204     1.0  0.95474  0.24290  0.94041  1.0000
  H   H2205     1.0  0.78065  0.27355  0.51173  1.0000
  H   H2206     1.0  0.87443  0.16551  0.79863  1.0000
  H   H2207     1.0  0.87986  0.19795  0.77856  1.0000
  N   N124      1.0  0.88098  0.19052  0.81326  1.0000
  H   H2208     1.0  0.78156  0.23768  0.59974  1.0000
  H   H2209     1.0  0.83122  0.08667  0.97597  1.0000
  S   S494      1.0  0.97277  0.23102  0.89198  1.0000
  H   H2210     1.0  0.87612  0.16158  0.82791  1.0000
  H   H2211     1.0  0.83628  0.25651  0.49669  1.0000
  C   C1847     1.0  0.75014  0.00784  0.87368  1.0000
  H   H2212     1.0  0.90264  0.29457  0.67097  1.0000
  C   C1848     1.0  0.83790  0.25136  0.64876  1.0000
  H   H2213     1.0  0.80727  0.18501  0.58792  1.0000
  C   C1849     1.0  0.83556  0.15643  0.93575  1.0000
  H   H2214     1.0  0.85084  0.27179  0.60812  1.0000
  S   S495      1.0  0.84322  0.31490  0.58999  1.0000
  H   H2215     1.0  0.82784  0.11119  0.95170  1.0000
  C   C1850     1.0  0.85850  0.28100  0.70037  1.0000
  Fe  Fe246     1.0  0.86923  0.31204  0.53207  1.0000
  C   C1851     1.0  0.84877  0.27545  0.68350  1.0000
  H   H2216     1.0  0.98575  0.22137  0.93520  1.0000
  C   C1852     1.0  0.75563  0.08758  0.95011  1.0000
  C   C1853     1.0  0.77721  0.27349  0.49473  1.0000
  S   S496      1.0  0.95336  0.32664  0.77431  1.0000
  C   C1854     1.0  0.81793  0.19683  0.50460  1.0000
  H   H2217     1.0  0.77081  0.14866  0.57329  1.0000
  S   S497      1.0  0.88476  0.31333  0.49780  1.0000
  H   H2218     1.0  0.87213  0.18694  0.97794  1.0000
  H   H2219     1.0  0.88696  0.18169  0.94288  1.0000
  H   H2220     1.0  0.87492  0.16490  0.92805  1.0000
  C   C1855     1.0  0.75667  0.09911  0.96640  1.0000
  S   S498      1.0  0.89756  0.32566  0.59828  1.0000
  H   H2221     1.0  0.75985  0.22190  0.57692  1.0000
  S   S499      1.0  0.76421  0.09742  0.88359  1.0000
  H   H2222     1.0  0.81358  0.14856  0.91679  1.0000
  S   S500      1.0  0.75660  0.05474  0.93510  1.0000
  N   N125      1.0  0.97280  0.23322  0.96096  1.0000
  C   C1856     1.0  0.87780  0.33075  0.66151  1.0000
  H   H2223     1.0  0.97630  0.20556  0.96114  1.0000
  S   S501      1.0  0.74733  0.05546  0.87449  1.0000
  H   H2224     1.0  0.78642  0.02782  0.96864  1.0000
  C   C1857     1.0  0.82823  0.21423  0.50767  1.0000
  H   H2225     1.0  0.79292  0.08265  0.92381  1.0000
  H   H2226     1.0  0.86679  0.29078  0.61609  1.0000
  H   H2227     1.0  0.84812  0.24298  0.65012  1.0000
  S   S502      1.0  0.83822  0.30730  0.53882  1.0000
  H   H2228     1.0  0.88534  0.29272  0.70873  1.0000
  C   C1858     1.0  0.82780  0.17797  0.82968  1.0000
  C   C1859     1.0  0.83321  0.28213  0.64231  1.0000
  H   H2229     1.0  0.97843  0.25134  0.92868  1.0000
  C   C1860     1.0  0.84572  0.17632  0.82273  1.0000
  H   H2230     1.0  0.75295  0.09255  0.93387  1.0000
  C   C1861     1.0  0.82607  0.21932  0.52865  1.0000
  H   H2231     1.0  0.88264  0.15826  0.97432  1.0000
  H   H2232     1.0  0.89664  0.17056  0.80705  1.0000
  H   H2233     1.0  0.76869  0.18991  0.55902  1.0000
  H   H2234     1.0  0.82215  0.27813  0.65742  1.0000
  C   C1862     1.0  0.90413  0.32518  0.88096  1.0000
  C   C1863     1.0  0.80317  0.09405  0.92891  1.0000
  H   H2235     1.0  0.79582  0.09779  0.94390  1.0000
  H   H2236     1.0  0.94036  0.27449  0.95950  1.0000
  C   C1864     1.0  0.82703  0.14493  0.97555  1.0000
  H   H2237     1.0  0.84653  0.16265  0.81977  1.0000
  C   C1865     1.0  0.77331  0.23108  0.56887  1.0000
  H   H2238     1.0  0.81214  0.21187  0.56243  1.0000
  C   C1866     1.0  0.87786  0.28783  0.69583  1.0000
  N   N126      1.0  0.81996  0.08847  0.93380  1.0000
  H   H2239     1.0  0.79017  0.15026  0.55213  1.0000
  C   C1867     1.0  0.82848  0.08233  0.91391  1.0000
  C   C1868     1.0  0.83363  0.10543  0.93741  1.0000
  C   C1869     1.0  0.81458  0.07287  0.95308  1.0000
  H   H2240     1.0  0.96108  0.21168  0.94294  1.0000
  C   C1870     1.0  0.81359  0.20706  0.54662  1.0000
  H   H2241     1.0  0.90754  0.31514  0.82063  1.0000
  H   H2242     1.0  0.85101  0.28031  0.71699  1.0000
  C   C1871     1.0  0.85830  0.28086  0.49772  1.0000
  H   H2243     1.0  0.84688  0.10241  0.94053  1.0000
  C   C1872     1.0  0.76023  0.09279  0.98745  1.0000
  H   H2244     1.0  0.74791  0.08268  0.80579  1.0000
  C   C1873     1.0  0.84091  0.15542  0.95711  1.0000
  H   H2245     1.0  0.80252  0.29972  0.51371  1.0000
  H   H2246     1.0  0.83232  0.09359  0.89898  1.0000
  N   N127      1.0  0.79017  0.17627  0.56360  1.0000
  H   H2247     1.0  0.76499  0.17545  0.58595  1.0000
  C   C1874     1.0  0.78560  0.24011  0.58177  1.0000
  C   C1875     1.0  0.91212  0.33402  0.63519  1.0000
  S   S503      1.0  0.76364  0.22262  0.52888  1.0000
  H   H2248     1.0  0.79146  0.16222  0.59613  1.0000
  H   H2249     1.0  0.98187  0.26124  0.85304  1.0000
  C   C1876     1.0  0.77846  0.23400  0.54566  1.0000
  C   C1877     1.0  0.87801  0.28360  0.65744  1.0000
  C   C1878     1.0  0.88759  0.28889  0.67451  1.0000
  C   C1879     1.0  0.97401  0.21723  0.94965  1.0000
  H   H2250     1.0  0.88649  0.28547  0.64117  1.0000
  C   C1880     1.0  0.90237  0.22851  0.98633  1.0000
  C   C1881     1.0  0.88199  0.17119  0.81162  1.0000
  H   H2251     1.0  0.81581  0.16584  0.83183  1.0000
  H   H2252     1.0  0.88963  0.21740  0.79142  1.0000
  C   C1882     1.0  0.88873  0.20240  0.79101  1.0000
  C   C1883     1.0  0.86178  0.19171  0.82057  1.0000
  C   C1884     1.0  0.85868  0.20882  0.82532  1.0000
  H   H2253     1.0  0.90312  0.20173  0.78476  1.0000
  C   C1885     1.0  0.85930  0.27563  0.62113  1.0000
  C   C1886     1.0  0.89307  0.19742  0.82922  1.0000
  H   H2254     1.0  0.88652  0.19055  0.84661  1.0000
  C   C1887     1.0  0.84070  0.21028  0.83231  1.0000
  C   C1888     1.0  0.82529  0.19487  0.83454  1.0000
  C   C1889     1.0  0.81743  0.14752  0.93321  1.0000
  H   H2255     1.0  0.81137  0.19596  0.84018  1.0000
  H   H2256     1.0  0.83874  0.22344  0.83614  1.0000
  C   C1890     1.0  0.75916  0.01030  0.85159  1.0000
  H   H2257     1.0  0.79543  0.05374  0.93739  1.0000
  C   C1891     1.0  0.92987  0.26159  0.96699  1.0000
  C   C1892     1.0  0.87859  0.32778  0.63932  1.0000
  C   C1893     1.0  0.92714  0.25518  0.99002  1.0000
  H   H2258     1.0  0.83967  0.29746  0.64007  1.0000
  H   H2259     1.0  0.86599  0.32438  0.63240  1.0000
  C   C1894     1.0  0.99367  0.26289  0.86157  1.0000
  H   H2260     1.0  0.83377  0.27023  0.68786  1.0000
  C   C1895     1.0  0.80685  0.32882  0.50262  1.0000
  C   C1896     1.0  0.96877  0.24778  0.94496  1.0000
  H   H2261     1.0  0.84127  0.07818  0.91683  1.0000
  H   H2262     1.0  0.86884  0.14002  0.96249  1.0000
  H   H2263     1.0  0.80663  0.10621  0.91498  1.0000
  H   H2264     1.0  0.81203  0.16605  0.57531  1.0000
  C   C1897     1.0  0.90658  0.31846  0.83724  1.0000
  H   H2265     1.0  0.79785  0.17124  0.51880  1.0000
  H   H2266     1.0  0.85226  0.19013  0.96658  1.0000
  N   N128      1.0  0.85975  0.16510  0.96061  1.0000
  H   H2267     1.0  0.79002  0.13089  0.94983  1.0000
  C   C1898     1.0  0.77586  0.18519  0.57244  1.0000
  H   H2268     1.0  0.86445  0.32930  0.67178  1.0000
  C   C1899     1.0  0.99275  0.25020  0.88085  1.0000
  Fe  Fe247     1.0  0.76347  0.06842  0.89890  1.0000
  C   C1900     1.0  0.95659  0.22677  0.97968  1.0000
  H   H2269     1.0  0.83735  0.11682  0.92252  1.0000
  C   C1901     1.0  0.79652  0.04065  0.96981  1.0000
  H   H2270     1.0  0.90316  0.32768  0.89802  1.0000
  C   C1902     1.0  0.85824  0.17938  0.97477  1.0000
  C   C1903     1.0  0.80897  0.13616  0.97283  1.0000
  H   H2271     1.0  0.77127  0.15985  0.54574  1.0000
  C   C1904     1.0  0.75758  0.06950  0.95510  1.0000
  C   C1905     1.0  0.78027  0.15802  0.55830  1.0000
  H   H2272     1.0  0.75310  0.01914  0.88300  1.0000
  C   C1906     1.0  0.90391  0.30735  0.87669  1.0000
  C   C1907     1.0  0.89576  0.32930  0.62615  1.0000
  C   C1908     1.0  0.90511  0.30400  0.85488  1.0000
  H   H2273     1.0  0.76196  0.04901  0.98038  1.0000
  H   H2274     1.0  0.83780  0.22383  0.49370  1.0000
  C   C1909     1.0  0.76071  0.06306  0.97633  1.0000
  H   H2275     1.0  0.90489  0.29008  0.85162  1.0000
  Fe  Fe248     1.0  0.84466  0.33176  0.55640  1.0000
  C   C1910     1.0  0.80211  0.31009  0.49987  1.0000
  C   C1911     1.0  0.80371  0.04234  0.98935  1.0000
  Fe  Fe249     1.0  0.75086  0.08448  0.85669  1.0000
  C   C1912     1.0  0.99063  0.24023  0.96882  1.0000
  H   H2276     1.0  0.77331  0.25848  0.49289  1.0000
  H   H2277     1.0  0.75108  0.01977  0.80238  1.0000
  H   H2278     1.0  0.81397  0.27905  0.49518  1.0000
  H   H2279     1.0  0.76458  0.27861  0.49441  1.0000
  H   H2280     1.0  0.98292  0.29414  0.98949  1.0000
  H   H2281     1.0  0.99383  0.32673  0.75235  1.0000
  H   H2282     1.0  0.89230  0.33373  0.80263  1.0000
  H   H2283     1.0  0.86033  0.14498  0.98917  1.0000
  H   H2284     1.0  0.77320  0.20735  0.49103  1.0000
  H   H2285     1.0  0.81070  0.33247  0.51819  1.0000
  H   H2286     1.0  0.79858  0.12846  0.98727  1.0000
  C   C1913     1.0  0.99369  0.23247  0.98994  1.0000
  H   H2287     1.0  0.97045  0.44756  0.22670  1.0000
  Fe  Fe250     1.0  0.94032  0.36938  0.21350  1.0000
  S   S504      1.0  0.94815  0.35302  0.24215  1.0000
  S   S505      1.0  0.92888  0.39237  0.22481  1.0000
  Fe  Fe251     1.0  0.97182  0.35117  0.21715  1.0000
  H   H2288     1.0  0.99321  0.49145  0.18957  1.0000
  S   S506      1.0  0.96573  0.36986  0.18928  1.0000
  N   N129      1.0  0.75826  0.46460  0.43374  1.0000
  C   C1914     1.0  0.77285  0.42135  0.45553  1.0000
  Fe  Fe252     1.0  0.79101  0.62274  0.08506  1.0000
  S   S507      1.0  0.77324  0.60240  0.06744  1.0000
  S   S508      1.0  0.81522  0.61310  0.09685  1.0000
  Fe  Fe253     1.0  0.77392  0.62819  0.04361  1.0000
  H   H2289     1.0  0.99414  0.46442  0.17090  1.0000
  Fe  Fe254     1.0  0.94846  0.34287  0.18187  1.0000
  S   S509      1.0  0.79257  0.64828  0.06046  1.0000
  S   S510      1.0  0.76594  0.62574  0.10751  1.0000
  Fe  Fe255     1.0  0.94730  0.52869  0.21761  1.0000
  S   S511      1.0  0.95376  0.52201  0.25212  1.0000
  S   S512      1.0  0.93670  0.55382  0.20808  1.0000
  Fe  Fe256     1.0  0.95646  0.49461  0.20280  1.0000
  S   S513      1.0  0.96417  0.48552  0.23533  1.0000
  S   S514      1.0  0.95843  0.47672  0.17640  1.0000
  Fe  Fe257     1.0  0.93859  0.49232  0.25103  1.0000
  S   S515      1.0  0.91932  0.46907  0.27754  1.0000
  Fe  Fe258     1.0  0.97875  0.51570  0.23368  1.0000
  H   H2290     1.0  0.82562  0.63705  0.00614  1.0000
  S   S516      1.0  0.92975  0.49946  0.21823  1.0000
  S   S517      1.0  0.97348  0.52440  0.19934  1.0000
  S   S518      1.0  0.93026  0.62447  0.06738  1.0000
  H   H2291     1.0  0.84570  0.46002  0.29943  1.0000
  H   H2292     1.0  0.83676  0.39920  0.45187  1.0000
  Fe  Fe259     1.0  0.94808  0.61806  0.09242  1.0000
  S   S519      1.0  0.94925  0.58881  0.10559  1.0000
  H   H2293     1.0  0.90451  0.39310  0.29762  1.0000
  Fe  Fe260     1.0  0.82067  0.44209  0.38865  1.0000
  S   S520      1.0  0.83541  0.46154  0.40918  1.0000
  S   S521      1.0  0.80042  0.45186  0.36949  1.0000
  Fe  Fe261     1.0  0.84518  0.41565  0.39521  1.0000
  S   S522      1.0  0.86179  0.43300  0.41635  1.0000
  S   S523      1.0  0.85533  0.39203  0.38405  1.0000
  Fe  Fe262     1.0  0.83396  0.43529  0.43262  1.0000
  S   S524      1.0  0.82239  0.42919  0.46971  1.0000
  Fe  Fe263     1.0  0.86166  0.45735  0.39077  1.0000
  S   S525      1.0  0.88644  0.48129  0.37342  1.0000
  S   S526      1.0  0.81724  0.41594  0.41325  1.0000
  S   S527      1.0  0.84686  0.43978  0.36873  1.0000
  C   C1915     1.0  0.76310  0.44558  0.36917  1.0000
  H   H2294     1.0  0.87692  0.47646  0.28674  1.0000
  S   S528      1.0  0.74734  0.63128  0.06222  1.0000
  C   C1916     1.0  0.84727  0.46430  0.31586  1.0000
  H   H2295     1.0  0.97744  0.60925  0.14826  1.0000
  H   H2296     1.0  0.95299  0.47057  0.30106  1.0000
  H   H2297     1.0  0.78327  0.58934  0.16971  1.0000
  C   C1917     1.0  0.99415  0.60105  0.17142  1.0000
  C   C1918     1.0  0.85013  0.48874  0.33765  1.0000
  H   H2298     1.0  0.78797  0.55347  0.13290  1.0000
  Fe  Fe264     1.0  0.74827  0.60736  0.08819  1.0000
  H   H2299     1.0  0.85717  0.45869  0.46016  1.0000
  C   C1919     1.0  0.83896  0.37030  0.38713  1.0000
  C   C1920     1.0  0.82057  0.36689  0.39818  1.0000
  C   C1921     1.0  0.80830  0.34883  0.40153  1.0000
  H   H2300     1.0  0.77786  0.46593  0.40414  1.0000
  H   H2301     1.0  0.76956  0.59939  0.15239  1.0000
  C   C1922     1.0  0.84494  0.35582  0.37918  1.0000
  H   H2302     1.0  0.81586  0.37806  0.40434  1.0000
  H   H2303     1.0  0.79413  0.34607  0.41027  1.0000
  H   H2304     1.0  0.75608  0.39273  0.46316  1.0000
  H   H2305     1.0  0.85921  0.35831  0.37106  1.0000
  C   C1923     1.0  0.91155  0.47294  0.30444  1.0000
  C   C1924     1.0  0.91531  0.49084  0.31000  1.0000
  C   C1925     1.0  0.90792  0.49332  0.33138  1.0000
  C   C1926     1.0  0.89686  0.47791  0.34728  1.0000
  C   C1927     1.0  0.89362  0.46001  0.34183  1.0000
  C   C1928     1.0  0.90080  0.45756  0.32047  1.0000
  H   H2306     1.0  0.92360  0.50280  0.29774  1.0000
  H   H2307     1.0  0.91054  0.50721  0.33549  1.0000
  H   H2308     1.0  0.88576  0.44797  0.35418  1.0000
  H   H2309     1.0  0.89801  0.44366  0.31637  1.0000
  C   C1929     1.0  0.94214  0.56512  0.17988  1.0000
  C   C1930     1.0  0.95295  0.55888  0.16379  1.0000
  C   C1931     1.0  0.95569  0.56690  0.14115  1.0000
  C   C1932     1.0  0.94776  0.58128  0.13440  1.0000
  C   C1933     1.0  0.93772  0.58822  0.15057  1.0000
  C   C1934     1.0  0.93488  0.58011  0.17326  1.0000
  H   H2310     1.0  0.95882  0.54759  0.16873  1.0000
  H   H2311     1.0  0.96372  0.56180  0.12868  1.0000
  H   H2312     1.0  0.93154  0.59932  0.14553  1.0000
  H   H2313     1.0  0.92661  0.58512  0.18564  1.0000
  C   C1935     1.0  0.83915  0.62590  0.09332  1.0000
  C   C1936     1.0  0.84496  0.64547  0.08891  1.0000
  H   H2314     1.0  0.85850  0.33560  0.31638  1.0000
  H   H2315     1.0  0.94854  0.44302  0.28395  1.0000
  C   C1937     1.0  0.87166  0.62563  0.09392  1.0000
  C   C1938     1.0  0.85263  0.61607  0.09580  1.0000
  H   H2316     1.0  0.76324  0.56322  0.11685  1.0000
  H   H2317     1.0  0.88183  0.61785  0.09591  1.0000
  H   H2318     1.0  0.84833  0.60094  0.09926  1.0000
  H   H2319     1.0  0.89052  0.36434  0.44193  1.0000
  C   C1939     1.0  0.93666  0.41542  0.21006  1.0000
  C   C1940     1.0  0.93029  0.42924  0.21935  1.0000
  C   C1941     1.0  0.93696  0.44801  0.20897  1.0000
  C   C1942     1.0  0.94961  0.45304  0.18883  1.0000
  C   C1943     1.0  0.95556  0.43917  0.17907  1.0000
  C   C1944     1.0  0.94930  0.42036  0.18986  1.0000
  H   H2320     1.0  0.92033  0.42546  0.23482  1.0000
  H   H2321     1.0  0.93218  0.45857  0.21656  1.0000
  H   H2322     1.0  0.96520  0.44297  0.16335  1.0000
  H   H2323     1.0  0.95412  0.40971  0.18252  1.0000
  C   C1945     1.0  0.75749  0.44484  0.44179  1.0000
  C   C1946     1.0  0.77696  0.43863  0.37738  1.0000
  H   H2324     1.0  0.78648  0.45033  0.44693  1.0000
  H   H2325     1.0  0.78246  0.41608  0.39852  1.0000
  C   C1947     1.0  0.81449  0.33430  0.39378  1.0000
  C   C1948     1.0  0.86393  0.65503  0.08749  1.0000
  N   N130      1.0  0.97586  0.43226  0.25607  1.0000
  H   H2326     1.0  0.77945  0.58608  0.11031  1.0000
  H   H2327     1.0  0.85919  0.38261  0.33341  1.0000
  S   S529      1.0  0.92218  0.34424  0.20345  1.0000
  H   H2328     1.0  0.77573  0.48830  0.40934  1.0000
  H   H2329     1.0  0.84361  0.34537  0.42691  1.0000
  Fe  Fe265     1.0  0.76574  0.64940  0.08091  1.0000
  C   C1949     1.0  0.85871  0.34796  0.42775  1.0000
  C   C1950     1.0  0.96259  0.45203  0.28124  1.0000
  C   C1951     1.0  0.97785  0.44860  0.26758  1.0000
  H   H2330     1.0  0.91436  0.33640  0.31916  1.0000
  H   H2331     1.0  0.95588  0.40671  0.25318  1.0000
  S   S530      1.0  0.95377  0.33867  0.14590  1.0000
  C   C1952     1.0  0.78013  0.59141  0.15252  1.0000
  C   C1953     1.0  0.82970  0.48655  0.31058  1.0000
  H   H2332     1.0  0.88141  0.54418  0.27693  1.0000
  H   H2333     1.0  0.93488  0.61961  0.01620  1.0000
  H   H2334     1.0  0.76694  0.45860  0.35742  1.0000
  H   H2335     1.0  0.84911  0.50302  0.33929  1.0000
  C   C1954     1.0  0.75756  0.47432  0.45316  1.0000
  C   C1955     1.0  0.77189  0.42167  0.39231  1.0000
  H   H2336     1.0  0.86395  0.48788  0.34140  1.0000
  C   C1956     1.0  0.95457  0.64151  0.99188  1.0000
  H   H2337     1.0  0.79293  0.60090  0.14143  1.0000
  H   H2338     1.0  0.82813  0.50069  0.31204  1.0000
  H   H2339     1.0  0.80215  0.34930  0.45184  1.0000
  C   C1957     1.0  0.77339  0.43995  0.44803  1.0000
  H   H2340     1.0  0.76948  0.47402  0.46194  1.0000
  H   H2341     1.0  0.85208  0.37769  0.30752  1.0000
  H   H2342     1.0  0.89548  0.55710  0.15744  1.0000
  H   H2343     1.0  0.83518  0.45497  0.32824  1.0000
  H   H2344     1.0  0.98399  0.49346  0.29526  1.0000
  C   C1958     1.0  0.93917  0.62580  0.99872  1.0000
  H   H2345     1.0  0.82781  0.48405  0.29348  1.0000
  H   H2346     1.0  0.76880  0.53530  0.16324  1.0000
  C   C1959     1.0  0.84575  0.39097  0.48234  1.0000
  H   H2347     1.0  0.84201  0.40195  0.49019  1.0000
  H   H2348     1.0  0.96198  0.50583  0.13921  1.0000
  H   H2349     1.0  0.74811  0.60690  0.00821  1.0000
  C   C1960     1.0  0.83695  0.43992  0.48705  1.0000
  H   H2350     1.0  0.90430  0.53235  0.25431  1.0000
  H   H2351     1.0  0.87647  0.47461  0.48527  1.0000
  C   C1961     1.0  0.86546  0.51680  0.29489  1.0000
  C   C1962     1.0  0.88000  0.52927  0.27914  1.0000
  S   S531      1.0  0.96691  0.65237  0.01102  1.0000
  C   C1963     1.0  0.87688  0.49097  0.28504  1.0000
  N   N131      1.0  0.84795  0.48433  0.31519  1.0000
  H   H2352     1.0  0.85600  0.52263  0.30464  1.0000
  N   N132      1.0  0.93500  0.50927  0.13485  1.0000
  C   C1964     1.0  0.92513  0.48962  0.14547  1.0000
  C   C1965     1.0  0.93968  0.50965  0.11046  1.0000
  C   C1966     1.0  0.95275  0.51489  0.14323  1.0000
  C   C1967     1.0  0.92347  0.52193  0.14054  1.0000
  C   C1968     1.0  0.92026  0.53559  0.12427  1.0000
  C   C1969     1.0  0.91595  0.52157  0.16314  1.0000
  C   C1970     1.0  0.90997  0.54786  0.13039  1.0000
  C   C1971     1.0  0.90569  0.53389  0.16907  1.0000
  C   C1972     1.0  0.90273  0.54702  0.15272  1.0000
  H   H2353     1.0  0.91102  0.48526  0.14105  1.0000
  H   H2354     1.0  0.93303  0.47966  0.14039  1.0000
  H   H2355     1.0  0.92350  0.48738  0.16397  1.0000
  H   H2356     1.0  0.92684  0.50617  0.10300  1.0000
  H   H2357     1.0  0.94759  0.49936  0.10676  1.0000
  H   H2358     1.0  0.94879  0.52356  0.10160  1.0000
  H   H2359     1.0  0.95039  0.51389  0.16168  1.0000
  C   C1973     1.0  0.88662  0.36485  0.33029  1.0000
  H   H2360     1.0  0.96062  0.52956  0.13581  1.0000
  H   H2361     1.0  0.83479  0.65327  0.08708  1.0000
  H   H2362     1.0  0.91856  0.51227  0.17653  1.0000
  H   H2363     1.0  0.92606  0.53764  0.10676  1.0000
  H   H2364     1.0  0.90083  0.53388  0.18654  1.0000
  H   H2365     1.0  0.75609  0.58295  0.12439  1.0000
  N   N133      1.0  0.87834  0.37251  0.31188  1.0000
  C   C1974     1.0  0.75830  0.56022  0.16115  1.0000
  H   H2366     1.0  0.88555  0.34814  0.46778  1.0000
  C   C1975     1.0  0.75299  0.41185  0.39927  1.0000
  C   C1976     1.0  0.87777  0.36038  0.29469  1.0000
  C   C1977     1.0  0.88863  0.36650  0.27282  1.0000
  C   C1978     1.0  0.86659  0.34152  0.29988  1.0000
  C   C1979     1.0  0.88818  0.35442  0.25730  1.0000
  H   H2367     1.0  0.86651  0.36153  0.41678  1.0000
  C   C1980     1.0  0.75766  0.54124  0.16867  1.0000
  H   H2368     1.0  0.98315  0.58875  0.17998  1.0000
  C   C1981     1.0  0.80205  0.33829  0.46531  1.0000
  H   H2369     1.0  0.87816  0.35057  0.33871  1.0000
  H   H2370     1.0  0.74912  0.39874  0.41084  1.0000
  C   C1982     1.0  0.84281  0.38938  0.46074  1.0000
  H   H2371     1.0  0.99372  0.55466  0.24080  1.0000
  H   H2372     1.0  0.88413  0.39871  0.28926  1.0000
  C   C1983     1.0  0.85609  0.36256  0.46154  1.0000
  C   C1984     1.0  0.84024  0.64017  0.00763  1.0000
  H   H2373     1.0  0.89780  0.38046  0.26721  1.0000
  H   H2374     1.0  0.81059  0.35737  0.48758  1.0000
  H   H2375     1.0  0.89680  0.35926  0.24084  1.0000
  C   C1985     1.0  0.84514  0.63790  0.02864  1.0000
  N   N134      1.0  0.86193  0.34777  0.45107  1.0000
  H   H2376     1.0  0.80267  0.57655  0.12955  1.0000
  C   C1986     1.0  0.79076  0.56603  0.14105  1.0000
  Fe  Fe266     1.0  0.96987  0.65884  0.08945  1.0000
  H   H2377     1.0  0.92649  0.66287  0.99636  1.0000
  H   H2378     1.0  0.89894  0.62552  0.02111  1.0000
  C   C1987     1.0  0.84793  0.37548  0.45033  1.0000
  H   H2379     1.0  0.88777  0.37379  0.34342  1.0000
  C   C1988     1.0  0.89291  0.52266  0.26637  1.0000
  C   C1989     1.0  0.88957  0.39217  0.30334  1.0000
  H   H2380     1.0  0.94616  0.42559  0.25687  1.0000
  H   H2381     1.0  0.95316  0.41330  0.28017  1.0000
  N   N135      1.0  0.77409  0.57322  0.14485  1.0000
  H   H2382     1.0  0.90843  0.55873  0.11782  1.0000
  C   C1990     1.0  0.88215  0.35012  0.45072  1.0000
  H   H2383     1.0  0.89483  0.63524  0.04602  1.0000
  C   C1991     1.0  0.85859  0.36440  0.48370  1.0000
  H   H2384     1.0  0.85023  0.35909  0.33008  1.0000
  H   H2385     1.0  0.91747  0.64174  0.02974  1.0000
  C   C1992     1.0  0.90242  0.63845  0.02849  1.0000
  C   C1993     1.0  0.85917  0.37297  0.32104  1.0000
  C   C1994     1.0  0.75638  0.40718  0.45779  1.0000
  H   H2386     1.0  0.86004  0.46128  0.32089  1.0000
  C   C1995     1.0  0.95693  0.41892  0.26196  1.0000
  C   C1996     1.0  0.87741  0.64520  0.08999  1.0000
  C   C1997     1.0  0.76794  0.57654  0.12318  1.0000
  H   H2387     1.0  0.78539  0.41791  0.45927  1.0000
  H   H2388     1.0  0.78838  0.47650  0.42549  1.0000
  H   H2389     1.0  0.83926  0.47883  0.35104  1.0000
  S   S532      1.0  0.94371  0.64013  0.11229  1.0000
  H   H2390     1.0  0.84552  0.37534  0.43343  1.0000
  C   C1998     1.0  0.83271  0.33794  0.38226  1.0000
  S   S533      1.0  0.97470  0.63622  0.07101  1.0000
  C   C1999     1.0  0.85316  0.45430  0.47807  1.0000
  C   C2000     1.0  0.89133  0.50357  0.26936  1.0000
  Fe  Fe267     1.0  0.92762  0.64801  0.08558  1.0000
  Fe  Fe268     1.0  0.95658  0.64488  0.04811  1.0000
  H   H2391     1.0  0.88719  0.33965  0.44221  1.0000
  S   S534      1.0  0.78448  0.63349  0.00637  1.0000
  H   H2392     1.0  0.90163  0.49847  0.25979  1.0000
  H   H2393     1.0  0.88925  0.40106  0.31650  1.0000
  H   H2394     1.0  0.75787  0.48923  0.44807  1.0000
  C   C2001     1.0  0.86337  0.49722  0.29825  1.0000
  S   S535      1.0  0.90117  0.65807  0.08769  1.0000
  H   H2395     1.0  0.81782  0.47650  0.32267  1.0000
  C   C2002     1.0  0.97975  0.43886  0.23158  1.0000
  C   C2003     1.0  0.77579  0.47418  0.41759  1.0000
  H   H2396     1.0  0.90080  0.36371  0.32398  1.0000
  H   H2397     1.0  0.83432  0.63291  0.04344  1.0000
  H   H2398     1.0  0.86696  0.64048  0.04745  1.0000
  C   C2004     1.0  0.86392  0.64223  0.03078  1.0000
  C   C2005     1.0  0.87846  0.64895  0.01190  1.0000
  C   C2006     1.0  0.99087  0.61258  0.15357  1.0000
  C   C2007     1.0  0.87697  0.33606  0.26292  1.0000
  C   C2008     1.0  0.96493  0.46794  0.29127  1.0000
  H   H2399     1.0  0.97744  0.42698  0.22223  1.0000
  H   H2400     1.0  0.79567  0.56260  0.15695  1.0000
  C   C2009     1.0  0.98236  0.48086  0.28802  1.0000
  N   N136      1.0  0.89821  0.65424  0.01485  1.0000
  C   C2010     1.0  0.91179  0.65949  0.99349  1.0000
  H   H2401     1.0  0.98714  0.40850  0.25506  1.0000
  C   C2011     1.0  0.98933  0.42175  0.26193  1.0000
  H   H2402     1.0  0.99110  0.38894  0.21609  1.0000
  H   H2403     1.0  0.98795  0.41801  0.28035  1.0000
  C   C2012     1.0  0.99542  0.46205  0.26469  1.0000
  C   C2013     1.0  0.80679  0.34288  0.48539  1.0000
  H   H2404     1.0  0.86342  0.33686  0.42018  1.0000
  H   H2405     1.0  0.99436  0.44755  0.22545  1.0000
  H   H2406     1.0  0.89244  0.66728  0.04338  1.0000
  C   C2014     1.0  0.75293  0.61493  0.99151  1.0000
  C   C2015     1.0  0.87299  0.65092  0.99063  1.0000
  Fe  Fe269     1.0  0.92473  0.37685  0.74610  1.0000
  S   S536      1.0  0.92935  0.38110  0.70874  1.0000
  S   S537      1.0  0.91077  0.39421  0.76600  1.0000
  H   H2407     1.0  0.90255  0.64279  0.83426  1.0000
  H   H2408     1.0  0.98595  0.35100  0.79804  1.0000
  Fe  Fe270     1.0  0.95681  0.37490  0.71140  1.0000
  H   H2409     1.0  0.89828  0.37164  0.57227  1.0000
  Fe  Fe271     1.0  0.91760  0.34986  0.71406  1.0000
  H   H2410     1.0  0.90759  0.36645  0.59659  1.0000
  S   S538      1.0  0.95318  0.37372  0.74833  1.0000
  S   S539      1.0  0.91158  0.34599  0.75161  1.0000
  C   C2016     1.0  0.81621  0.60451  0.92546  1.0000
  S   S540      1.0  0.77765  0.64891  0.88618  1.0000
  C   C2017     1.0  0.85413  0.64660  0.98866  1.0000
  H   H2411     1.0  0.86692  0.36693  0.59610  1.0000
  S   S541      1.0  0.77853  0.64296  0.83449  1.0000
  H   H2412     1.0  0.77019  0.40535  0.50297  1.0000
  Fe  Fe272     1.0  0.78958  0.63174  0.86402  1.0000
  S   S542      1.0  0.81709  0.62418  0.86500  1.0000
  H   H2413     1.0  0.85605  0.37991  0.51054  1.0000
  C   C2018     1.0  0.90588  0.61453  0.79611  1.0000
  S   S543      1.0  0.76465  0.60639  0.87417  1.0000
  H   H2414     1.0  0.91753  0.60579  0.98802  1.0000
  Fe  Fe273     1.0  0.95266  0.49947  0.75477  1.0000
  S   S544      1.0  0.95352  0.51379  0.72018  1.0000
  S   S545      1.0  0.96488  0.47516  0.75693  1.0000
  Fe  Fe274     1.0  0.93772  0.52801  0.77646  1.0000
  S   S546      1.0  0.93706  0.54482  0.74362  1.0000
  S   S547      1.0  0.92832  0.53465  0.81024  1.0000
  Fe  Fe275     1.0  0.92554  0.51694  0.73372  1.0000
  S   S548      1.0  0.90132  0.51230  0.71512  1.0000
  Fe  Fe276     1.0  0.96500  0.54013  0.73276  1.0000
  C   C2019     1.0  0.84561  0.60227  0.81118  1.0000
  S   S549      1.0  0.92363  0.50034  0.76763  1.0000
  S   S550      1.0  0.96677  0.52560  0.76634  1.0000
  C   C2020     1.0  0.85216  0.63516  0.81276  1.0000
  S   S551      1.0  0.95096  0.61912  0.82400  1.0000
  Fe  Fe277     1.0  0.86308  0.46370  0.57015  1.0000
  S   S552      1.0  0.83365  0.44987  0.58736  1.0000
  Fe  Fe278     1.0  0.87740  0.46772  0.61411  1.0000
  S   S553      1.0  0.84907  0.45434  0.63501  1.0000
  S   S554      1.0  0.90385  0.47511  0.62841  1.0000
  Fe  Fe279     1.0  0.84651  0.43401  0.61131  1.0000
  S   S555      1.0  0.83564  0.40333  0.62455  1.0000
  Fe  Fe280     1.0  0.83894  0.47157  0.60924  1.0000
  S   S556      1.0  0.81725  0.48682  0.61608  1.0000
  S   S557      1.0  0.87558  0.44590  0.59225  1.0000
  S   S558      1.0  0.86757  0.48690  0.59016  1.0000
  C   C2021     1.0  0.87459  0.37322  0.60871  1.0000
  S   S559      1.0  0.83206  0.35527  0.54813  1.0000
  C   C2022     1.0  0.78113  0.47729  0.53565  1.0000
  C   C2023     1.0  0.83454  0.39020  0.60313  1.0000
  C   C2024     1.0  0.82805  0.37070  0.60850  1.0000
  C   C2025     1.0  0.82753  0.35993  0.59157  1.0000
  C   C2026     1.0  0.83315  0.36868  0.56925  1.0000
  C   C2027     1.0  0.83952  0.38821  0.56381  1.0000
  C   C2028     1.0  0.84038  0.39898  0.58079  1.0000
  H   H2415     1.0  0.82350  0.36392  0.62579  1.0000
  S   S560      1.0  0.94556  0.34387  0.71328  1.0000
  H   H2416     1.0  0.84386  0.39501  0.54651  1.0000
  H   H2417     1.0  0.84550  0.41406  0.57657  1.0000
  C   C2029     1.0  0.90227  0.50181  0.69112  1.0000
  C   C2030     1.0  0.88624  0.49711  0.68151  1.0000
  C   C2031     1.0  0.88653  0.48881  0.66232  1.0000
  C   C2032     1.0  0.90295  0.48536  0.65250  1.0000
  C   C2033     1.0  0.91900  0.49008  0.66206  1.0000
  C   C2034     1.0  0.91863  0.49814  0.68141  1.0000
  H   H2418     1.0  0.87355  0.49992  0.68891  1.0000
  H   H2419     1.0  0.87412  0.48531  0.65499  1.0000
  H   H2420     1.0  0.93172  0.48741  0.65451  1.0000
  H   H2421     1.0  0.93100  0.50153  0.68870  1.0000
  H   H2422     1.0  0.83494  0.66485  0.85703  1.0000
  S   S561      1.0  0.98987  0.56082  0.71068  1.0000
  C   C2035     1.0  0.89415  0.33532  0.67061  1.0000
  C   C2036     1.0  0.93496  0.55809  0.81416  1.0000
  C   C2037     1.0  0.94545  0.57234  0.79670  1.0000
  C   C2038     1.0  0.95037  0.59095  0.80012  1.0000
  C   C2039     1.0  0.94491  0.59544  0.82101  1.0000
  C   C2040     1.0  0.93454  0.58121  0.83856  1.0000
  C   C2041     1.0  0.92954  0.56257  0.83509  1.0000
  H   H2423     1.0  0.94971  0.56901  0.78055  1.0000
  H   H2424     1.0  0.95843  0.60190  0.78648  1.0000
  H   H2425     1.0  0.93037  0.58452  0.85476  1.0000
  H   H2426     1.0  0.92147  0.55155  0.84867  1.0000
  H   H2427     1.0  0.79631  0.61226  0.96092  1.0000
  C   C2042     1.0  0.91883  0.41104  0.64972  1.0000
  C   C2043     1.0  0.83996  0.63795  0.86530  1.0000
  H   H2428     1.0  0.83901  0.43868  0.54238  1.0000
  C   C2044     1.0  0.85344  0.62871  0.87001  1.0000
  H   H2429     1.0  0.74806  0.64679  0.80795  1.0000
  H   H2430     1.0  0.84961  0.61359  0.87359  1.0000
  H   H2431     1.0  0.93687  0.53567  0.68979  1.0000
  H   H2432     1.0  0.92275  0.63784  0.82062  1.0000
  H   H2433     1.0  0.89636  0.64085  0.93005  1.0000
  C   C2045     1.0  0.83192  0.43431  0.51028  1.0000
  H   H2434     1.0  0.83572  0.58918  0.81044  1.0000
  C   C2046     1.0  0.87073  0.63595  0.81404  1.0000
  C   C2047     1.0  0.77166  0.45394  0.51278  1.0000
  C   C2048     1.0  0.99601  0.64898  0.82355  1.0000
  C   C2049     1.0  0.83357  0.48793  0.53290  1.0000
  H   H2435     1.0  0.90954  0.38112  0.81371  1.0000
  H   H2436     1.0  0.75794  0.38743  0.58984  1.0000
  H   H2437     1.0  0.80102  0.60027  0.92482  1.0000
  C   C2050     1.0  0.85337  0.64504  0.92303  1.0000
  S   S562      1.0  0.95033  0.66155  0.84646  1.0000
  C   C2051     1.0  0.85105  0.61492  0.94492  1.0000
  C   C2052     1.0  0.91531  0.39198  0.64924  1.0000
  H   H2438     1.0  0.81937  0.59222  0.93465  1.0000
  C   C2053     1.0  0.85366  0.37854  0.49377  1.0000
  C   C2054     1.0  0.92526  0.41703  0.76295  1.0000
  C   C2055     1.0  0.91929  0.43032  0.77385  1.0000
  C   C2056     1.0  0.93109  0.44854  0.77144  1.0000
  C   C2057     1.0  0.94894  0.45330  0.75842  1.0000
  C   C2058     1.0  0.95461  0.44014  0.74710  1.0000
  C   C2059     1.0  0.94277  0.42209  0.74926  1.0000
  H   H2439     1.0  0.90568  0.42650  0.78438  1.0000
  H   H2440     1.0  0.92666  0.45866  0.78028  1.0000
  H   H2441     1.0  0.96818  0.44398  0.73654  1.0000
  H   H2442     1.0  0.94718  0.41205  0.74036  1.0000
  C   C2060     1.0  0.77437  0.43988  0.62715  1.0000
  C   C2061     1.0  0.79200  0.45224  0.62604  1.0000
  C   C2062     1.0  0.79487  0.47145  0.61933  1.0000
  C   C2063     1.0  0.78004  0.47828  0.61392  1.0000
  H   H2443     1.0  0.93822  0.35756  0.81437  1.0000
  H   H2444     1.0  0.80332  0.44692  0.63060  1.0000
  H   H2445     1.0  0.78215  0.49317  0.60905  1.0000
  H   H2446     1.0  0.89266  0.35769  0.79618  1.0000
  H   H2447     1.0  0.82240  0.34485  0.59576  1.0000
  H   H2448     1.0  0.81940  0.42323  0.51728  1.0000
  H   H2449     1.0  0.80901  0.41135  0.58237  1.0000
  C   C2064     1.0  0.90527  0.41524  0.61651  1.0000
  H   H2450     1.0  0.77574  0.43608  0.56076  1.0000
  N   N137      1.0  0.89354  0.43274  0.71372  1.0000
  C   C2065     1.0  0.89142  0.45179  0.70727  1.0000
  C   C2066     1.0  0.88423  0.42591  0.73735  1.0000
  C   C2067     1.0  0.91377  0.43448  0.71209  1.0000
  C   C2068     1.0  0.88555  0.41936  0.69959  1.0000
  C   C2069     1.0  0.87748  0.42462  0.68093  1.0000
  C   C2070     1.0  0.88583  0.40037  0.70424  1.0000
  C   C2071     1.0  0.86984  0.41149  0.66821  1.0000
  C   C2072     1.0  0.87822  0.38739  0.69133  1.0000
  C   C2073     1.0  0.87015  0.39293  0.67343  1.0000
  H   H2451     1.0  0.87650  0.45169  0.70846  1.0000
  H   H2452     1.0  0.89752  0.46158  0.71816  1.0000
  H   H2453     1.0  0.89877  0.45807  0.68998  1.0000
  H   H2454     1.0  0.86886  0.42359  0.73909  1.0000
  H   H2455     1.0  0.88942  0.43603  0.74829  1.0000
  H   H2456     1.0  0.88677  0.41254  0.74442  1.0000
  H   H2457     1.0  0.92125  0.43950  0.69454  1.0000
  H   H2458     1.0  0.92034  0.44454  0.72241  1.0000
  H   H2459     1.0  0.91654  0.42095  0.71807  1.0000
  H   H2460     1.0  0.87684  0.43876  0.67574  1.0000
  H   H2461     1.0  0.89195  0.39538  0.71795  1.0000
  H   H2462     1.0  0.86360  0.41574  0.65417  1.0000
  H   H2463     1.0  0.87863  0.37295  0.69521  1.0000
  H   H2464     1.0  0.86418  0.38285  0.66350  1.0000
  H   H2465     1.0  0.77214  0.42505  0.63267  1.0000
  H   H2466     1.0  0.92582  0.55404  0.69032  1.0000
  C   C2074     1.0  0.83957  0.61834  0.81163  1.0000
  H   H2467     1.0  0.82005  0.51231  0.50836  1.0000
  Fe  Fe281     1.0  0.94062  0.34305  0.75033  1.0000
  C   C2075     1.0  0.87275  0.64986  0.92170  1.0000
  H   H2468     1.0  0.78633  0.43779  0.58457  1.0000
  H   H2469     1.0  0.89902  0.60006  0.79400  1.0000
  S   S563      1.0  0.98530  0.38890  0.69060  1.0000
  H   H2470     1.0  0.92052  0.37552  0.83661  1.0000
  H   H2471     1.0  0.76018  0.40749  0.60323  1.0000
  N   N138      1.0  0.94680  0.55724  0.66086  1.0000
  C   C2076     1.0  0.96596  0.55491  0.65694  1.0000
  C   C2077     1.0  0.94831  0.57746  0.65503  1.0000
  C   C2078     1.0  0.93932  0.55101  0.68507  1.0000
  C   C2079     1.0  0.93410  0.54664  0.64775  1.0000
  C   C2080     1.0  0.91500  0.54649  0.65075  1.0000
  C   C2081     1.0  0.94018  0.53654  0.63153  1.0000
  C   C2082     1.0  0.90276  0.53675  0.63846  1.0000
  C   C2083     1.0  0.92780  0.52688  0.61931  1.0000
  C   C2084     1.0  0.90916  0.52699  0.62276  1.0000
  H   H2472     1.0  0.97501  0.56270  0.66746  1.0000
  H   H2473     1.0  0.96574  0.53995  0.66137  1.0000
  H   H2474     1.0  0.97304  0.56037  0.63932  1.0000
  H   H2475     1.0  0.95347  0.58262  0.63683  1.0000
  H   H2476     1.0  0.95808  0.58596  0.66422  1.0000
  H   H2477     1.0  0.93464  0.58051  0.65924  1.0000
  H   H2478     1.0  0.94911  0.55795  0.69540  1.0000
  H   H2479     1.0  0.90928  0.55368  0.66288  1.0000
  H   H2480     1.0  0.95433  0.53559  0.62818  1.0000
  H   H2481     1.0  0.88812  0.53636  0.64150  1.0000
  C   C2085     1.0  0.92944  0.61795  0.98277  1.0000
  H   H2482     1.0  0.89953  0.51894  0.61374  1.0000
  C   C2086     1.0  0.96038  0.64911  0.96915  1.0000
  N   N139      1.0  0.90833  0.35181  0.82189  1.0000
  C   C2087     1.0  0.81009  0.48980  0.56218  1.0000
  C   C2088     1.0  0.88778  0.40108  0.58151  1.0000
  H   H2483     1.0  0.76067  0.44476  0.50652  1.0000
  S   S564      1.0  0.89242  0.33788  0.69885  1.0000
  Fe  Fe282     1.0  0.92403  0.65828  0.87095  1.0000
  C   C2089     1.0  0.91375  0.42264  0.63344  1.0000
  H   H2484     1.0  0.91012  0.64781  0.98381  1.0000
  H   H2485     1.0  0.80747  0.37583  0.52725  1.0000
  H   H2486     1.0  0.87685  0.36144  0.61988  1.0000
  N   N140      1.0  0.89232  0.38736  0.59808  1.0000
  C   C2090     1.0  0.77729  0.40131  0.51619  1.0000
  H   H2487     1.0  0.95553  0.64710  0.93576  1.0000
  C   C2091     1.0  0.89635  0.60593  0.83606  1.0000
  H   H2488     1.0  0.82381  0.60713  0.90796  1.0000
  Fe  Fe283     1.0  0.76403  0.65773  0.85778  1.0000
  H   H2489     1.0  0.90416  0.36959  0.63296  1.0000
  C   C2092     1.0  0.76968  0.62921  0.98670  1.0000
  C   C2093     1.0  0.90832  0.63824  0.81895  1.0000
  H   H2490     1.0  0.83308  0.47338  0.54010  1.0000
  H   H2491     1.0  0.75188  0.56762  0.74817  1.0000
  C   C2094     1.0  0.78620  0.43130  0.56935  1.0000
  H   H2492     1.0  0.79388  0.44564  0.49447  1.0000
  C   C2095     1.0  0.90467  0.37805  0.58569  1.0000
  C   C2096     1.0  0.87045  0.61987  0.94336  1.0000
  C   C2097     1.0  0.76258  0.46583  0.61423  1.0000
  H   H2493     1.0  0.76487  0.58763  0.77327  1.0000
  C   C2098     1.0  0.78400  0.40285  0.55400  1.0000
  C   C2099     1.0  0.77448  0.40742  0.53658  1.0000
  H   H2494     1.0  0.79777  0.49482  0.56744  1.0000
  H   H2495     1.0  0.87727  0.61008  0.95089  1.0000
  H   H2496     1.0  0.92542  0.41681  0.66278  1.0000
  H   H2497     1.0  0.88189  0.63146  0.87406  1.0000
  H   H2498     1.0  0.98003  0.56849  0.75483  1.0000
  H   H2499     1.0  0.88131  0.66325  0.91218  1.0000
  H   H2500     1.0  0.88094  0.39426  0.56862  1.0000
  C   C2100     1.0  0.75981  0.44658  0.62058  1.0000
  C   C2101     1.0  0.87191  0.63883  0.86999  1.0000
  S   S565      1.0  0.91728  0.62709  0.87829  1.0000
  C   C2102     1.0  0.99455  0.57576  0.74850  1.0000
  H   H2501     1.0  0.80016  0.43733  0.55851  1.0000
  N   N141      1.0  0.89664  0.61977  0.81625  1.0000
  S   S566      1.0  0.87224  0.47045  0.53278  1.0000
  H   H2502     1.0  0.81502  0.62924  0.96792  1.0000
  H   H2503     1.0  0.91065  0.60659  0.83933  1.0000
  H   H2504     1.0  0.92401  0.34059  0.66419  1.0000
  H   H2505     1.0  0.77679  0.48609  0.54669  1.0000
  H   H2506     1.0  0.86818  0.59006  0.81201  1.0000
  Fe  Fe284     1.0  0.94443  0.63042  0.85568  1.0000
  H   H2507     1.0  0.75127  0.47114  0.60970  1.0000
  C   C2103     1.0  0.90556  0.33977  0.86344  1.0000
  N   N142      1.0  0.78175  0.41058  0.57483  1.0000
  H   H2508     1.0  0.90183  0.42506  0.60444  1.0000
  H   H2509     1.0  0.78858  0.65074  0.96129  1.0000
  H   H2510     1.0  0.89024  0.59126  0.83407  1.0000
  C   C2104     1.0  0.77583  0.63946  0.96501  1.0000
  C   C2105     1.0  0.84516  0.65753  0.86069  1.0000
  H   H2511     1.0  0.79260  0.41257  0.60558  1.0000
  C   C2106     1.0  0.87728  0.61973  0.81404  1.0000
  H   H2512     1.0  0.90584  0.62422  0.78075  1.0000
  C   C2107     1.0  0.81177  0.61685  0.95950  1.0000
  H   H2513     1.0  0.92793  0.36638  0.79200  1.0000
  S   S567      1.0  0.96086  0.63207  0.88344  1.0000
  Fe  Fe285     1.0  0.93440  0.63222  0.90520  1.0000
  S   S568      1.0  0.92274  0.61620  0.94015  1.0000
  C   C2108     1.0  0.93521  0.62570  0.96001  1.0000
  C   C2109     1.0  0.90840  0.37019  0.82848  1.0000
  C   C2110     1.0  0.99052  0.41463  0.71855  1.0000
  H   H2514     1.0  0.89525  0.36940  0.83984  1.0000
  H   H2515     1.0  0.97567  0.40983  0.72423  1.0000
  N   N143      1.0  0.82138  0.62140  0.93585  1.0000
  C   C2111     1.0  0.84188  0.62729  0.93465  1.0000
  H   H2516     1.0  0.91834  0.38815  0.57786  1.0000
  H   H2517     1.0  0.79866  0.63085  0.92500  1.0000
  C   C2112     1.0  0.91135  0.33711  0.65732  1.0000
  H   H2518     1.0  0.81662  0.64881  0.93169  1.0000
  H   H2519     1.0  0.87882  0.34348  0.82179  1.0000
  H   H2520     1.0  0.92068  0.61495  0.79699  1.0000
  C   C2113     1.0  0.81400  0.63590  0.92419  1.0000
  H   H2521     1.0  0.84329  0.60116  0.95394  1.0000
  H   H2522     1.0  0.80309  0.51440  0.53079  1.0000
  H   H2523     1.0  0.98921  0.64254  0.84104  1.0000
  H   H2524     1.0  0.86526  0.37957  0.61893  1.0000
  H   H2525     1.0  0.77053  0.64331  0.93154  1.0000
  H   H2526     1.0  0.87946  0.64934  0.81576  1.0000
  H   H2527     1.0  0.82012  0.63964  0.90612  1.0000
  H   H2528     1.0  0.82738  0.52103  0.53252  1.0000
  C   C2114     1.0  0.86420  0.60292  0.81222  1.0000
  C   C2115     1.0  0.95077  0.64122  0.95326  1.0000
  H   H2529     1.0  0.75214  0.40782  0.57734  1.0000
  C   C2116     1.0  0.90672  0.38446  0.63250  1.0000
  N   N144      1.0  0.81489  0.49127  0.53762  1.0000
  H   H2530     1.0  0.80728  0.47512  0.57092  1.0000
  H   H2531     1.0  0.93247  0.51871  0.60755  1.0000
  H   H2532     1.0  0.74796  0.54467  0.72698  1.0000
  H   H2533     1.0  0.84785  0.65531  0.91428  1.0000
  C   C2117     1.0  0.92589  0.35453  0.80597  1.0000
  H   H2534     1.0  0.87777  0.40791  0.58965  1.0000
  H   H2535     1.0  0.91912  0.38288  0.66197  1.0000
  H   H2536     1.0  0.82159  0.49848  0.56903  1.0000
  H   H2537     1.0  0.85028  0.64845  0.97234  1.0000
  H   H2538     1.0  0.98982  0.35736  0.75550  1.0000
  C   C2118     1.0  0.88128  0.63726  0.93167  1.0000
  C   C2119     1.0  0.87733  0.65837  0.86476  1.0000
  H   H2539     1.0  0.92546  0.33526  0.62503  1.0000
  C   C2120     1.0  0.79027  0.45447  0.50604  1.0000
  C   C2121     1.0  0.76712  0.46532  0.52756  1.0000
  C   C2122     1.0  0.81641  0.51060  0.52686  1.0000
  H   H2540     1.0  0.90971  0.64927  0.80430  1.0000
  C   C2123     1.0  0.76572  0.63511  0.94800  1.0000
  C   C2124     1.0  0.80441  0.46642  0.51402  1.0000
  H   H2541     1.0  0.81560  0.60533  0.96939  1.0000
  H   H2542     1.0  0.84417  0.49727  0.54034  1.0000
  H   H2543     1.0  0.91633  0.43750  0.63391  1.0000
  H   H2544     1.0  0.76486  0.41588  0.53862  1.0000
  H   H2545     1.0  0.88816  0.60843  0.85130  1.0000
  C   C2125     1.0  0.90148  0.39583  0.61554  1.0000
  C   C2126     1.0  0.79822  0.38467  0.52984  1.0000
  C   C2127     1.0  0.84297  0.44312  0.52452  1.0000
  C   C2128     1.0  0.78935  0.39017  0.51271  1.0000
  H   H2546     1.0  0.98423  0.64860  0.81436  1.0000
  H   H2547     1.0  0.84726  0.64752  0.81364  1.0000
  C   C2129     1.0  0.85897  0.45782  0.51554  1.0000
  H   H2548     1.0  0.79080  0.39073  0.59657  1.0000
  C   C2130     1.0  0.80023  0.47807  0.52936  1.0000
  H   H2549     1.0  0.82502  0.61771  0.81162  1.0000
  H   H2550     1.0  0.80271  0.38587  0.56284  1.0000
  H   H2551     1.0  0.90050  0.41206  0.57245  1.0000
  H   H2552     1.0  0.86453  0.35499  0.49339  1.0000
  C   C2131     1.0  0.79552  0.39075  0.55029  1.0000
  Fe  Fe286     1.0  0.75223  0.62438  0.89486  1.0000
  H   H2553     1.0  0.92611  0.34202  0.79821  1.0000
  C   C2132     1.0  0.79409  0.40604  0.59041  1.0000
  H   H2554     1.0  0.79187  0.38585  0.49669  1.0000
  H   H2555     1.0  0.83934  0.49060  0.51472  1.0000
  H   H2556     1.0  0.99474  0.43499  0.74034  1.0000
  C   C2133     1.0  0.76219  0.40300  0.58673  1.0000
  H   H2557     1.0  0.90563  0.35319  0.86799  1.0000
  H   H2558     1.0  0.81852  0.46638  0.50776  1.0000
  Fe  Fe287     1.0  0.75270  0.61875  0.84610  1.0000
  C   C2134     1.0  0.89235  0.34641  0.81017  1.0000
  H   H2559     1.0  0.98746  0.61454  0.81265  1.0000
  H   H2560     1.0  0.99204  0.50444  0.69819  1.0000
  H   H2561     1.0  0.99405  0.48478  0.78939  1.0000
  C   C2135     1.0  0.75813  0.57291  0.77956  1.0000
  C   C2136     1.0  0.75043  0.56121  0.76535  1.0000
  H   H2562     1.0  0.99658  0.61379  0.83810  1.0000
  S   S569      1.0  0.87562  0.33791  0.54710  1.0000
  C   C2137     1.0  0.99480  0.36179  0.73723  1.0000
  C   C2138     1.0  0.74947  0.62030  0.95238  1.0000
  H   H2563     1.0  0.75261  0.46495  0.53271  1.0000
  H   H2564     1.0  0.75729  0.52047  0.75104  1.0000
  H   H2565     1.0  0.76204  0.57527  0.81318  1.0000
  Fe  Fe288     1.0  0.96600  0.66331  0.87512  1.0000
  S   S570      1.0  0.94022  0.66347  0.89896  1.0000
  H   H2566     1.0  0.88299  0.65586  0.97526  1.0000
  H   H2567     1.0  0.97237  0.66118  0.96375  1.0000
  C   C2139     1.0  0.75660  0.56597  0.80212  1.0000
  H   H2568     1.0  0.98233  0.35858  0.72911  1.0000
  C   C2140     1.0  0.86408  0.46328  0.49230  1.0000
  C   C2141     1.0  0.74743  0.54726  0.81060  1.0000
  C   C2142     1.0  0.90682  0.33680  0.84094  1.0000
  C   C2143     1.0  0.76151  0.97873  0.05197  1.0000
  H   H2569     1.0  0.78537  0.71523  0.06167  1.0000
  C   C2144     1.0  0.90148  0.67046  0.02663  1.0000
  H   H2570     1.0  0.86819  0.67016  0.08446  1.0000
  H   H2571     1.0  0.76670  0.71926  0.03230  1.0000
  C   C2145     1.0  0.75270  0.99808  0.10782  1.0000
  H   H2572     1.0  0.76148  0.78360  0.07706  1.0000
  H   H2573     1.0  0.78684  0.97165  0.05679  1.0000
  C   C2146     1.0  0.78025  0.98286  0.05424  1.0000
  C   C2147     1.0  0.76515  0.74734  0.08072  1.0000
  H   H2574     1.0  0.76213  0.78602  0.04749  1.0000
  C   C2148     1.0  0.75368  0.74950  0.06458  1.0000
  C   C2149     1.0  0.75490  0.73932  0.04673  1.0000
  C   C2150     1.0  0.77704  0.72511  0.06214  1.0000
  C   C2151     1.0  0.77648  0.73516  0.07958  1.0000
  C   C2152     1.0  0.75266  0.78157  0.06402  1.0000
  S   S571      1.0  0.75715  0.67417  0.09213  1.0000
  H   H2575     1.0  0.78467  0.73323  0.09245  1.0000
  H   H2576     1.0  0.74843  0.67241  0.04769  1.0000
  H   H2577     1.0  0.75742  0.99342  0.09278  1.0000
  S   S572      1.0  0.99580  0.67273  0.10308  1.0000
  H   H2578     1.0  0.76526  0.75486  0.09452  1.0000
  C   C2153     1.0  0.76647  0.72738  0.04562  1.0000
  H   H2579     1.0  0.99386  0.67763  0.02788  1.0000
  H   H2580     1.0  0.89858  0.68275  0.01701  1.0000
  S   S573      1.0  0.74954  0.95460  0.05462  1.0000
  S   S574      1.0  0.95348  0.66895  0.06484  1.0000
  H   H2581     1.0  0.77062  0.98000  0.00226  1.0000
  H   H2582     1.0  0.75416  0.96284  0.10118  1.0000
  C   C2154     1.0  0.75330  0.99359  0.04845  1.0000
  H   H2583     1.0  0.91611  0.67471  0.02960  1.0000
  C   C2155     1.0  0.76149  0.97270  0.99217  1.0000
  H   H2584     1.0  0.75368  0.95726  0.13064  1.0000
  H   H2585     1.0  0.76483  0.72476  0.83039  1.0000
  H   H2586     1.0  0.78395  0.97005  0.96834  1.0000
  H   H2587     1.0  0.86779  0.68278  0.85628  1.0000
  S   S575      1.0  0.76446  0.68799  0.84788  1.0000
  H   H2588     1.0  0.76390  0.95328  0.94578  1.0000
  C   C2156     1.0  0.76894  0.96697  0.97314  1.0000
  C   C2157     1.0  0.75569  0.99508  0.84015  1.0000
  H   H2589     1.0  0.76299  0.99663  0.82327  1.0000
  C   C2158     1.0  0.75717  0.95722  0.96033  1.0000
  H   H2590     1.0  0.91048  0.67218  0.98292  1.0000
  H   H2591     1.0  0.99631  0.71239  0.87972  1.0000
  S   S576      1.0  0.90083  0.67153  0.86340  1.0000
  C   C2159     1.0  0.75033  0.71673  0.83490  1.0000
  C   C2160     1.0  0.86380  0.66766  0.86025  1.0000
  H   H2592     1.0  0.75174  0.66765  0.78833  1.0000
