data_image0
_chemical_formula_structural       SHFeS2FeS2FeSFeS3FeS2FeS2FeHFeS3H2CFeS2FeS2FeSFeS3FeSFeS2FeCFeHSC3SFeSFeSC7H4C2H2CHSHC6H4C6H4C2H2C2H4C2HCSH4C7H4C2H2C3FeH3CH2CHC7H4FeCHC3HSH2CH2NC9H15C2H2CNHCH2CH2C3H2C2H2NC4H2CH3CH4CHCH2CH2SCNH2CH2NHSH7CH2CH3SH3C3HCH2CH3CHCS2NHC2HC4H2SHC3H5SNC2H3SH2C2HC2H2CNCH3CHCH2FeCHCHC3H2NH3CHCH2CHC2HCH2C4H3CH2CHCFeH2NCSFeC2HCH2CHC5H5CH2CSHCH3C2HC2HSH2CH2CH2CH2C2SCHC2HSHC3HCHC3SCFeS2FeS2FeSFeS3FeS2FeS2FeSFeS3NHNFeS2FeS2FeSFeS3FeSFeS2FeSFeCSHC2SFeHFeSC6SH4C2H3CHSC6H4C6H4C3H2CHCH2C2HCSH2CHSC6H6C3H5C2HCH3C6H6NC9H14NC9H14C4HCHC2H2CNC5H14CH3SH5C3H6CFeSHSCHFe2H7CSCHCSCSC2FeH3CH2NC2FeHSH3CHC6SC4H2C2NHNC9H14CH2CH2C2HNH3CH2CHNH3SCH4CH3C2HC2HC4H3CH2C3HC2HCH2NHCSH2C2HC2HNHCHC2SH2C3HSHFeSCFeSHCSCHC2HC5HCHC3H5CH2CHCH4CFeH3CH4SH3CHC4HC2HSHCH2CHNSCFeSCSH2CSC2SHFeSH2SHC3H8CH7CHC2H2C2HNHCH3CFeHCHC7H4C2HCHC2HC3H2NH2CH2CSH2CH3C2FeSHCHCHSHCH2CHFeS2CHC6H4CH3CHCHSHCSFeHNCH2FeH2C3HC3H3C2HNHC3HSHCH4SH2CFeHSC2H2C2FeS2H2C6H4NCH2C3HSC2H2NH2CH2CHFeHNC2H2SC2H3SHCHSCH2CHCH2CFeS2FeS2FeSFeS3H4C3HS2FeS2FeSHFeSFeS3CSHFeSHFeSFeS2CFeS2FeSHFeSFeCS2C2SHC3H3C2SH3C6H2SHC6H4CHC4HCH2CSC6H4C6H6SCHC3HC3H2C2HCH2C6H4C6H4C2HCHCHNHSHN2C9H13C2HCN2HCHC2HCH2C2H2SH2C2HCHCNHCHCH2CH10NC3H3CH3CH3NH3NHC2H3CH5C2FeSCHCH2CH2CHCH3CNCHC3HC2HFeH5C2H2FeH2C2Fe2HC2HC2HC3H6C2HC2H2C2H2SHCH5CH2C3H5CH4NC2HCHCHCH2CSHSCSC2H2CH2FeHCH2C3HCH2CHCHCNC2H6C2H6FeH5CHCH5CHNC2H2C3H2SHCHSCFeS2FeS2FeSFeS3CH5CH3FeS2FeS2FeSFeS3FeSHFeSCFeSFeS3FeS2FeSHFeSFeS4FeSH3C3NH5C7H4C6H5C4H4SH2C6SH3C6H4C2HCHCH3C7H4C6H4C6SCH2C2HCH4CHCHC4NFeC5H3C2H2NHCS2H2CH4CH5C3HC3H3SCH4C2H3CHC3HCH2NH2CH6FeHCHFeCH3C2H8SCH4FeHNC2H2CNCH2CHCH2CH2CHC2HC4H3CHCHNHC3H2CHCHCHC2H3C5H2C2HC2NC2H2SH4NCHCHCH4C2H2C2HC4H2CH3C2H3CH5CH2CHC3HSC2H2NC4H2C2HSH3CH2CH2C5H2FeCHSCHCH2CHC2H2C2NCSCH4CH2CNH2SCFeS2FeSFeS3FeHSH3FeSH2SHFeS2FeS2FeSFeS3FeSFeS2FeSFeCS2FeS2FeS2FeSFeS3HS2CSHFeS2FeS2FeSFeS3C5H3C7H3Fe2HFeCH2CNHC6H4C6H4C6H3C7H4C6H5C3H4CHSCH3C6H4C6SH2CHCH2C2H2C5H3CH6C7HC7HCH3C3HSH2SH2FeSC3HFeC2HCHSC2NHCHCSHNSH2CHCFeCH4C3HCH3CSHNC9H14NCHNFeH3FeHC2SHC2HNC9H15SH2C2NH2CH2CHCHCH3S2CHNC9H8CH3CHCFeCH4C4S3C3H2CH2C2NC2HCNC2H2C2HC2H2CHCHFeCHSNC4H2CHCHCSHCH2CH4CH2CH3CH2C2H2CSH5CSNC2H5CH5SH6SCHCHCH2C2H5CH3CH2C2HCHC2FeH3CNHSH3C2SC2FeHCH3CHCHFeCHCHC3HC6NFeSCH3S2C2SCH7CHC2H2C4H2C2H4CHC4NHCH3CH2FeHC3H4CFeCNH3C4H3CSHNC3H2C3HNH3CHFeHCH2C2HCH2C8HCH4S2HCHC2H7C2H4C3HCH4CHCSH2C2H2C2H4CH3CH9CH2C5HCHCHC3SCH6C2H5C2HCHSCH4SH3CH2CH4FeH2FeS2FeSFeS3FeHSH2CFeSC2SHFeS2FeS2FeSFeS3FeSFeS2FeSFeCS2FeS2FeS2FeSFeS3FeSFeS2Fe2S2FeS2FeSFeS3C3H3CNC6H5C4H2CHSC2HC5H2C6H4C6H3C7H4C6H4CH3SHC3H6C6H4C6H4C2HC3H2C6H4SC2H2CHC4H3CHC5H2CHSC4H5CH2SNCH2C2H3CHCH2CHNCH2C2HC3H2CHC2NH2C3HCHC4H3CH3SH2SNC6SH7SH4CNC9H15SCHCH2CH4CNH5CFeH6C3HC2FeHNH3NH5SC3SHNC2H2C3H2CH3C2H4C2FeC2NCH2C2H7CHSH3CHCH2SCH4FeCH3SH2SH3NH2SC2HCH5CSHCH3C3SCFeNHC2HCHC2H2C3H2CHC3HCFeH8C2SH4CHCSC3H2NH3SFeHC2NC2H2C2HC3H4CHC2H3C3H2CH2C2SC2HSC2H3FeH2NCH2CH2CHC2HC2H2C2H3CFeHC3HC2H2FeH3C3H2CH3CH2CH2C2FeC2HC2FeSHCH5C2H3CH2S3C2H2CHCH2C4HCHCH2CNH2C4H3NC2SH2CHCH2C2NCH4CSHNHCH2NCH3NH2C3FeS2CH2NH2FeS2FeS2FeSFeS3FeS2H2FeSFeS2FeSHFeSFeS3FeS2FeS2FeSFeCSHC2HCH2FeSCFeS2FeS2FeSFeS3FeS2FeSCFeSFeS3C6H4C6H4C6H4C6H3CHCHC4H2CH2SC2HNH2C6H4C6H3C6H3SC6H4C6H4NC3H2CH2C7H6C6H2C6H4FeHCH4NCH8CHNC3H4SHC5SCHCSH2SFeHCH2CHCHC5H2CH4C2HCH3CHCHNCHC2NC2H2C3H2SHC2H2SCHNC9H18CNH2CH5C2H5C5H2C2HC3HCFeH4CH2NC9H14NHCHC3H2C2H2SHNCH7CH6C2H7S2CHNHSCHC4HCH3C2HCH2CHSCHFeH2CHSCH2CNH2FeH3C3H3SH3C4HC2HC4H3NC3SC3H3CHCH2CHFeCHCH2CSCHCHC2HC3H2C4H2NHCSNH4CHCH3C2H3NHFeCH5SC2H6SH6CH2CH3CHC3HC2HC2H2CSH2CHCHC2NH2CH2CH3C2H2CH4CH4FeS4H3Fe2S2FeS2FeSFeS3FeS2FeH2SFeS2FeSHFeSFeS3FeS2FeS2FeSFeHSC2HNSHCFeSHFeS2FeS2FeSFeS3FeS2FeSCFeSFeS3C6H4C6H4C6H4C6H4CSH2CH2C4FeC4H3C6H4C6H4C4H3FeHC6H4C6H5C3NH4C7H4CHC4H4C5H4CSCH2CH5C2NC9H12CHC3H3NC3H8NC9H14NCH3C4HNH2C2HCH2CSH3NS2C2HCHSHSCH4SCHSC3HNHC4HC2HCHC3HCHC2HFeC3HFeCHSCHCH2CHCH2C2H2CH2CSH4C5H3CH2NCHCSH2N2HCH3C3HCHCHCNCHC5HC2HNC2H4CHC2HCH2CH3CH2CHC4HCHCH4C3HCH4CH2C2H2C3FeHCHCHC2HCH2FeC2H5SH4CHNH2SH3CH3SHCH3CH7C4HCH4SC2H3C2HSC4H2CHCHCSC2HCH4SH9CH10CH3C2HCH2C3HCH3FeSHFeS2HCFeSHSFeS2H2FeSFeS3FeS2FeS2FeSFeS3H3FeS2FeSFeS3HS2FeS2FeS2FeSFeS3CS2HSCHCFeSHSFeHSCSCFeCH2SCHFeHCH4C6H4C6H2CHC6H5C2H2CFeC2HC6H4C3HCH4C2HCH3CHSC7H6C5HC6H4C6H3C7H4C6HSCH2C5H3FeC4H9C2H3SHCH2FeH2CH3NC2H2C5HCH5SH7SCSHNHNH6CH3NC9H14CH2Fe2S2C3H2CSHSCHC3HFeC2HC3H3CFeHSH3C2HC4NS2HC2H5CHCHCH2CSHC2H2CH2C2FeCHCHNC3HSH4CHCNHC3HCH4CHNCH2C2HCHCH2CFeC2FeH2CNH2CSHNHC3SHCHCH4CHCSC2HC3SC2NH2CFeH2SHC2HFeC3HCHCHSHC2HC2HSCH3C2H4CH2CHFeH4SHCH3C2SH2CH2C2HCH3CHCHNSCHCHC2HCHC2SH5C3HNH3C2FeHSH3NHC2H2CNCHCH2SCH3CH2C2H2CHC5H3FeCHC2HFeHCSH3CH3C2HC2HCHCFeSCFeS2HCFeSHSFeS2HSFeSFeS3FeS2FeS2FeSFeS4C2FeS2FeHFeCS2FeS2FeS2FeS2FeSFeS3HSC2SC3FeSCSHCSHCSFeCH2SCH2CHSH2CHC4H2C2HC2FeC3HC2HC6H4SHCSCH5C6H4CH5CH6CHNHCH2C6H4CHFeCFeCH2C6H4FeC5H3C7H4C4SH5CHC4H5C3H4CHCHC2HCH2C3H2C2HCSH6CNHSCHC2SCHNFeSNCFeH2NCNCFeSH2SH5C2H2SHCHCHNC9H15NC9H15CH7CH2CHCFeHCHCH2C3HCSH2CH2C2NH5CHCH2SH2NC6HCH6CHCFeSH3CHCH3CHC2FeC6HCH2CSHNCHC2H2CSCH2CH2C6HC3HC2H2CHSCN2C2H2CHCH2CH4C2HCH2C4H2C2NCSHCHCSFeCH2CNCHCH2SCH2CHCH3CSHCH2C3H6CHC3H2SC2HSHCHCHC2H2FeC2H3CH3CH2CHC3H4CH2C2H4CH4SC3H4CHCH3CSCNH2C2H4CHCHFeHCHFeCH2CH3FeH5CHCSH2FeS2C2HFeSCHCFeC3H2SHCH2SCH2C3HCH3C2H2FeC2H2CHCHCH3CFeHC2SHC3N2H2CHCH5S2H3SHSH2NCFeHCSC3FeSH2CH6FeH2FeHC3HC4H2CHC2H11C2H2C2SHS3C3HNC2HFeC2HSHCH6SCHCSC2H2CHCHCHSH2CHCH2CH3C2H2SCHCHCHCH2CHCHSHSHSHFeSH2SFe2H2FeS2FeSH2S2FeS2FeS2FeHFeS3FeSFeS2FeS3H2SFeHSCH2C2FeSHSFeSCFeS2FeSFeS3C6H4CSC5H3C6H6SC2HC4SH4C6H4CSC3FeNHC5NH2C6H4C6H4C6HCH2C6H4C6H3C3H2CHC3HNC9H15FeHCHCHC2H2C3H4C2H2SHNC9FeH11FeCHNCSH3CH3C2HCNCH2CFe2H3CHSC3SC3HFeH3Fe2HC3HCHCHCHNCHC2H5NH3C3H3FeNSCHNCH2C2H2SCH3CHNH4C2HCH2CHCHCHCHC2HFeCHC3H2SFeCHSHCH2C2H3CHC2HCH6CFeH4C2HCH2CHCSH2S2CH3C2HCH2CHCS2HNH2CS2CH2CHCHCHFeHCH8SHCH3CHC2HCHSCHSCSHC3H3CH3S2H2CH3CH2C2H4C2HCH2NHSCH3SHC3H3CH4CNHC4HC2H4NHCH3SH2CH2SC2S2HFeS4HFeH2FeS2FeSCHS2FeS2FeS2Fe3S3FeSFeS2FeS3HCSFeHSCFeH2CFeSHSFeSCFeS2FeSFeS3C6H4SC6H3C6H4C2HCHC3HCSFeH3C6H4C2H4CH3C2SH2C7H3SC6H6C4H4C6H4C6H5CH2C2H2FeHCHC2H4CHCHCH3CSHCH4NC9H15FeSH2CH2FeC6HS2HC3SNC9H14NC6H3SHSH3C4HSCNCH2CHFeH2FeHC2H3C4HC2H3CH6FeHC2NC2NCHCHCH2CHCH3CH4CHCHCNH2C2NHCHSCSH2CHNHSCHCH2CH3FeCHCHC3NS2H9C2H3SHC2HCHSHC2HCH3C2H2NC2SCFeCFeCHC3H2CH2CHCHFeH2C2HCHNH3CH2C2H2CSHCH2CHCHCHSC2HC2HCHCH5CHCH2C3H2CHSCSHCH3C
_chemical_formula_sum              "S768 H3456 Fe384 C2880 N192"
_cell_length_a       119.788
_cell_length_b       119.267
_cell_length_c       48.8905
_cell_angle_alpha    78.3638
_cell_angle_beta     78.3503
_cell_angle_gamma    102.166

_space_group_name_H-M_alt    "P 1"
_space_group_IT_number       1

loop_
  _space_group_symop_operation_xyz
  'x, y, z'

loop_
  _atom_site_type_symbol
  _atom_site_label
  _atom_site_symmetry_multiplicity
  _atom_site_fract_x
  _atom_site_fract_y
  _atom_site_fract_z
  _atom_site_occupancy
  S   S1        1.0  0.15046  0.62402  0.40674  1.0000
  H   H1        1.0  0.16007  0.57333  0.45139  1.0000
  Fe  Fe1       1.0  0.06674  0.52396  0.12086  1.0000
  S   S2        1.0  0.05642  0.51079  0.16354  1.0000
  S   S3        1.0  0.07783  0.52030  0.08143  1.0000
  Fe  Fe2       1.0  0.05961  0.54420  0.14057  1.0000
  S   S4        1.0  0.04852  0.53302  0.18379  1.0000
  S   S5        1.0  0.06196  0.56369  0.12472  1.0000
  Fe  Fe3       1.0  0.06382  0.52498  0.18505  1.0000
  S   S6        1.0  0.07013  0.52162  0.22704  1.0000
  Fe  Fe4       1.0  0.04182  0.51987  0.15954  1.0000
  S   S7        1.0  0.02160  0.51375  0.16810  1.0000
  S   S8        1.0  0.07528  0.53701  0.14270  1.0000
  S   S9        1.0  0.05184  0.53208  0.11601  1.0000
  Fe  Fe5       1.0  0.07844  0.62491  0.18377  1.0000
  S   S10       1.0  0.08824  0.62060  0.14461  1.0000
  S   S11       1.0  0.05813  0.61992  0.20007  1.0000
  Fe  Fe6       1.0  0.10109  0.63117  0.20738  1.0000
  S   S12       1.0  0.11202  0.62670  0.16973  1.0000
  S   S13       1.0  0.10822  0.63212  0.24830  1.0000
  Fe  Fe7       1.0  0.10284  0.63663  0.14084  1.0000
  H   H2        1.0  0.13324  0.59291  0.03935  1.0000
  Fe  Fe8       1.0  0.09682  0.61118  0.17541  1.0000
  S   S14       1.0  0.09863  0.59260  0.17788  1.0000
  S   S15       1.0  0.09245  0.64204  0.17840  1.0000
  S   S16       1.0  0.08646  0.61465  0.21469  1.0000
  H   H3        1.0  0.18253  0.65666  0.38696  1.0000
  H   H4        1.0  0.05270  0.49106  0.05903  1.0000
  C   C1        1.0  0.10993  0.66402  0.39352  1.0000
  Fe  Fe9       1.0  0.11152  0.57421  0.36741  1.0000
  S   S17       1.0  0.09520  0.56044  0.37031  1.0000
  S   S18       1.0  0.11095  0.59301  0.36494  1.0000
  Fe  Fe10      1.0  0.12715  0.55781  0.36345  1.0000
  S   S19       1.0  0.11196  0.54219  0.36588  1.0000
  S   S20       1.0  0.14662  0.55776  0.35681  1.0000
  Fe  Fe11      1.0  0.10602  0.55500  0.33452  1.0000
  S   S21       1.0  0.09810  0.55436  0.29503  1.0000
  Fe  Fe12      1.0  0.10182  0.54853  0.40152  1.0000
  S   S22       1.0  0.08696  0.53734  0.44080  1.0000
  S   S23       1.0  0.12205  0.56997  0.32949  1.0000
  S   S24       1.0  0.11733  0.56290  0.40138  1.0000
  Fe  Fe13      1.0  0.23291  0.60525  0.37323  1.0000
  S   S25       1.0  0.23525  0.62488  0.36174  1.0000
  Fe  Fe14      1.0  0.20557  0.59997  0.38497  1.0000
  S   S26       1.0  0.20666  0.61949  0.37451  1.0000
  S   S27       1.0  0.18645  0.58811  0.40103  1.0000
  Fe  Fe15      1.0  0.22170  0.62108  0.33698  1.0000
  C   C2        1.0  0.00382  0.55266  0.09247  1.0000
  Fe  Fe16      1.0  0.22013  0.62120  0.40055  1.0000
  H   H5        1.0  0.05410  0.50017  0.09956  1.0000
  S   S28       1.0  0.22007  0.60153  0.34587  1.0000
  C   C3        1.0  0.10716  0.64520  0.05004  1.0000
  C   C4        1.0  0.15195  0.61118  0.25050  1.0000
  C   C5        1.0  0.10337  0.55889  0.03480  1.0000
  S   S29       1.0  0.22193  0.62909  0.11009  1.0000
  Fe  Fe17      1.0  0.23278  0.62307  0.13995  1.0000
  S   S30       1.0  0.22596  0.61112  0.18512  1.0000
  Fe  Fe18      1.0  0.23443  0.62421  0.07622  1.0000
  S   S31       1.0  0.23047  0.61266  0.04629  1.0000
  C   C6        1.0  0.22470  0.62707  0.26293  1.0000
  C   C7        1.0  0.10458  0.60568  0.06374  1.0000
  C   C8        1.0  0.22650  0.62964  0.21131  1.0000
  C   C9        1.0  0.22576  0.61756  0.21449  1.0000
  C   C10       1.0  0.22466  0.61032  0.24181  1.0000
  C   C11       1.0  0.22426  0.61508  0.26587  1.0000
  C   C12       1.0  0.04663  0.61137  0.18853  1.0000
  H   H6        1.0  0.22413  0.60098  0.24433  1.0000
  H   H7        1.0  0.22348  0.60940  0.28665  1.0000
  H   H8        1.0  0.09145  0.65929  0.35043  1.0000
  H   H9        1.0  0.24450  0.65193  0.25022  1.0000
  C   C13       1.0  0.08662  0.53586  0.47796  1.0000
  C   C14       1.0  0.22647  0.61804  0.01448  1.0000
  H   H10       1.0  0.13249  0.63118  0.02291  1.0000
  H   H11       1.0  0.16014  0.55916  0.42431  1.0000
  C   C15       1.0  0.25281  0.65912  0.24056  1.0000
  H   H12       1.0  0.14747  0.62776  0.24991  1.0000
  S   S32       1.0  0.23341  0.66487  0.09030  1.0000
  H   H13       1.0  0.18493  0.64375  0.37616  1.0000
  C   C16       1.0  0.15798  0.56774  0.36532  1.0000
  C   C17       1.0  0.16960  0.56659  0.35854  1.0000
  C   C18       1.0  0.17868  0.57354  0.36720  1.0000
  C   C19       1.0  0.17626  0.58175  0.38283  1.0000
  C   C20       1.0  0.16473  0.58324  0.38854  1.0000
  C   C21       1.0  0.15565  0.57632  0.37984  1.0000
  H   H14       1.0  0.17153  0.56000  0.34734  1.0000
  H   H15       1.0  0.18741  0.57206  0.36313  1.0000
  H   H16       1.0  0.16267  0.58954  0.40057  1.0000
  H   H17       1.0  0.14681  0.57745  0.38501  1.0000
  C   C22       1.0  0.09090  0.54501  0.27562  1.0000
  C   C23       1.0  0.08819  0.53260  0.28415  1.0000
  C   C24       1.0  0.08203  0.52565  0.26883  1.0000
  C   C25       1.0  0.07853  0.53092  0.24454  1.0000
  C   C26       1.0  0.08141  0.54333  0.23573  1.0000
  C   C27       1.0  0.08749  0.55030  0.25117  1.0000
  H   H18       1.0  0.09077  0.52832  0.30267  1.0000
  H   H19       1.0  0.07989  0.51608  0.27596  1.0000
  H   H20       1.0  0.07888  0.54753  0.21708  1.0000
  H   H21       1.0  0.08958  0.55986  0.24406  1.0000
  C   C28       1.0  0.08034  0.52830  0.04480  1.0000
  C   C29       1.0  0.08913  0.52662  0.02327  1.0000
  H   H22       1.0  0.09971  0.64136  0.43528  1.0000
  H   H23       1.0  0.05753  0.61093  0.14819  1.0000
  C   C30       1.0  0.09956  0.64482  0.38970  1.0000
  C   C31       1.0  0.07348  0.53588  0.03651  1.0000
  H   H24       1.0  0.09451  0.52078  0.02935  1.0000
  H   H25       1.0  0.12667  0.61973  0.25335  1.0000
  H   H26       1.0  0.06930  0.54666  0.00081  1.0000
  H   H27       1.0  0.06674  0.53737  0.05267  1.0000
  C   C32       1.0  0.01078  0.50175  0.16394  1.0000
  C   C33       1.0  0.01359  0.49176  0.15651  1.0000
  H   H28       1.0  0.09930  0.67303  0.35512  1.0000
  C   C34       1.0  0.22909  0.61920  0.46831  1.0000
  S   S33       1.0  0.01632  0.58878  0.16091  1.0000
  H   H29       1.0  0.20454  0.65003  0.42497  1.0000
  H   H30       1.0  0.02251  0.49095  0.15410  1.0000
  H   H31       1.0  0.04630  0.50420  0.33211  1.0000
  H   H32       1.0  0.05417  0.50666  0.37316  1.0000
  C   C35       1.0  0.19973  0.65050  0.40772  1.0000
  C   C36       1.0  0.07260  0.57157  0.13849  1.0000
  C   C37       1.0  0.07680  0.58387  0.12772  1.0000
  C   C38       1.0  0.08500  0.59033  0.13930  1.0000
  C   C39       1.0  0.08908  0.58455  0.16157  1.0000
  C   C40       1.0  0.08520  0.57219  0.17162  1.0000
  C   C41       1.0  0.07683  0.56572  0.16040  1.0000
  H   H33       1.0  0.07357  0.58843  0.11074  1.0000
  H   H34       1.0  0.08818  0.59977  0.13080  1.0000
  H   H35       1.0  0.08843  0.56768  0.18864  1.0000
  H   H36       1.0  0.07349  0.55624  0.16920  1.0000
  C   C42       1.0  0.12546  0.65504  0.30363  1.0000
  C   C43       1.0  0.15644  0.55230  0.44523  1.0000
  H   H37       1.0  0.08865  0.65477  0.42974  1.0000
  H   H38       1.0  0.08656  0.56820  0.06065  1.0000
  C   C44       1.0  0.18166  0.64884  0.44269  1.0000
  C   C45       1.0  0.12290  0.58937  0.08289  1.0000
  C   C46       1.0  0.12547  0.58724  0.05562  1.0000
  Fe  Fe19      1.0  0.23594  0.64643  0.09761  1.0000
  H   H39       1.0  0.09669  0.59872  0.07569  1.0000
  H   H40       1.0  0.06944  0.53907  0.40832  1.0000
  H   H41       1.0  0.04628  0.51412  0.03357  1.0000
  C   C47       1.0  0.11845  0.63591  0.29316  1.0000
  H   H42       1.0  0.04110  0.59882  0.13410  1.0000
  H   H43       1.0  0.18711  0.61640  0.25651  1.0000
  C   C48       1.0  0.12068  0.62180  0.06315  1.0000
  H   H44       1.0  0.11714  0.62640  0.29885  1.0000
  C   C49       1.0  0.03935  0.60118  0.15449  1.0000
  C   C50       1.0  0.14020  0.61535  0.39329  1.0000
  C   C51       1.0  0.13813  0.60300  0.40032  1.0000
  C   C52       1.0  0.12929  0.59602  0.39133  1.0000
  C   C53       1.0  0.12254  0.60141  0.37521  1.0000
  C   C54       1.0  0.12496  0.61375  0.36720  1.0000
  C   C55       1.0  0.13382  0.62072  0.37603  1.0000
  H   H45       1.0  0.14327  0.59883  0.41299  1.0000
  H   H46       1.0  0.12765  0.58652  0.39726  1.0000
  H   H47       1.0  0.12005  0.61794  0.35391  1.0000
  H   H48       1.0  0.13584  0.63025  0.36898  1.0000
  Fe  Fe20      1.0  0.13282  0.65655  0.43287  1.0000
  C   C56       1.0  0.08789  0.55989  0.07302  1.0000
  H   H49       1.0  0.10186  0.58063  0.26087  1.0000
  C   C57       1.0  0.05337  0.52243  0.30835  1.0000
  C   C58       1.0  0.10181  0.54868  0.08351  1.0000
  C   C59       1.0  0.03503  0.60764  0.20647  1.0000
  H   H50       1.0  0.09842  0.56692  0.11571  1.0000
  S   S34       1.0  0.15687  0.65725  0.36461  1.0000
  H   H51       1.0  0.20105  0.66011  0.39781  1.0000
  H   H52       1.0  0.10059  0.64432  0.01228  1.0000
  C   C60       1.0  0.10577  0.57250  0.09821  1.0000
  H   H53       1.0  0.09862  0.64105  0.06513  1.0000
  H   H54       1.0  0.15555  0.59139  0.45972  1.0000
  N   N1        1.0  0.18575  0.61308  0.30218  1.0000
  C   C61       1.0  0.19070  0.60629  0.32347  1.0000
  C   C62       1.0  0.19103  0.61194  0.27299  1.0000
  C   C63       1.0  0.18956  0.62578  0.30207  1.0000
  C   C64       1.0  0.17275  0.60830  0.30950  1.0000
  C   C65       1.0  0.16476  0.61530  0.31571  1.0000
  C   C66       1.0  0.16772  0.59632  0.31017  1.0000
  C   C67       1.0  0.15255  0.61054  0.32187  1.0000
  C   C68       1.0  0.15548  0.59167  0.31642  1.0000
  C   C69       1.0  0.14791  0.59876  0.32240  1.0000
  H   H55       1.0  0.18927  0.59682  0.32311  1.0000
  H   H56       1.0  0.20043  0.60995  0.31921  1.0000
  H   H57       1.0  0.18660  0.60651  0.34589  1.0000
  H   H58       1.0  0.20073  0.61603  0.26602  1.0000
  H   H59       1.0  0.18981  0.60254  0.27202  1.0000
  H   H60       1.0  0.19936  0.62912  0.29631  1.0000
  H   H61       1.0  0.18649  0.63152  0.28584  1.0000
  H   H62       1.0  0.18634  0.62721  0.32379  1.0000
  H   H63       1.0  0.16765  0.62445  0.31616  1.0000
  H   H64       1.0  0.17320  0.59038  0.30621  1.0000
  H   H65       1.0  0.14662  0.61603  0.32644  1.0000
  H   H66       1.0  0.15183  0.58245  0.31709  1.0000
  H   H67       1.0  0.13842  0.59512  0.32749  1.0000
  H   H68       1.0  0.25137  0.60250  0.05764  1.0000
  H   H69       1.0  0.11111  0.54808  0.07822  1.0000
  C   C70       1.0  0.11305  0.58204  0.10411  1.0000
  C   C71       1.0  0.09973  0.63927  0.36650  1.0000
  H   H70       1.0  0.09929  0.54827  0.10691  1.0000
  H   H71       1.0  0.11237  0.55762  0.02800  1.0000
  C   C72       1.0  0.11820  0.57775  0.04940  1.0000
  N   N2        1.0  0.10047  0.55962  0.06532  1.0000
  H   H72       1.0  0.10263  0.59954  0.23134  1.0000
  C   C73       1.0  0.11491  0.64128  0.26899  1.0000
  H   H73       1.0  0.09725  0.55113  0.03148  1.0000
  H   H74       1.0  0.09617  0.54054  0.08046  1.0000
  C   C74       1.0  0.14422  0.61842  0.25117  1.0000
  H   H75       1.0  0.12082  0.57650  0.02800  1.0000
  H   H76       1.0  0.10262  0.56689  0.01979  1.0000
  C   C75       1.0  0.12482  0.62380  0.03325  1.0000
  C   C76       1.0  0.12373  0.64271  0.31016  1.0000
  C   C77       1.0  0.04872  0.60808  0.16241  1.0000
  H   H77       1.0  0.08451  0.55928  0.09627  1.0000
  H   H78       1.0  0.12854  0.59672  0.08766  1.0000
  C   C78       1.0  0.10807  0.57007  0.07061  1.0000
  C   C79       1.0  0.10833  0.64707  0.01996  1.0000
  H   H79       1.0  0.22867  0.61328  0.45426  1.0000
  H   H80       1.0  0.13561  0.65769  0.04804  1.0000
  N   N3        1.0  0.02313  0.55570  0.14563  1.0000
  C   C80       1.0  0.01718  0.55639  0.17471  1.0000
  C   C81       1.0  0.03103  0.54779  0.14902  1.0000
  C   C82       1.0  0.03071  0.56775  0.12961  1.0000
  C   C83       1.0  0.09978  0.62733  0.37043  1.0000
  H   H81       1.0  0.11815  0.66342  0.37929  1.0000
  H   H82       1.0  0.09412  0.56403  0.45659  1.0000
  C   C84       1.0  0.15084  0.57302  0.45866  1.0000
  H   H83       1.0  0.15779  0.54383  0.44072  1.0000
  H   H84       1.0  0.22586  0.60167  0.00186  1.0000
  H   H85       1.0  0.02542  0.57435  0.12721  1.0000
  C   C85       1.0  0.19118  0.62720  0.45154  1.0000
  H   H86       1.0  0.12750  0.54490  0.44552  1.0000
  H   H87       1.0  0.03525  0.54657  0.12777  1.0000
  H   H88       1.0  0.03820  0.55149  0.15859  1.0000
  H   H89       1.0  0.12511  0.62753  0.07457  1.0000
  C   C86       1.0  0.22494  0.61062  0.99593  1.0000
  H   H90       1.0  0.03733  0.57112  0.14109  1.0000
  C   C87       1.0  0.17916  0.62252  0.41903  1.0000
  H   H91       1.0  0.16187  0.55445  0.46038  1.0000
  H   H92       1.0  0.01143  0.56254  0.17317  1.0000
  C   C88       1.0  0.11057  0.61282  0.07833  1.0000
  H   H93       1.0  0.10011  0.61145  0.39989  1.0000
  H   H94       1.0  0.13495  0.59236  0.47537  1.0000
  S   S35       1.0  0.21827  0.60159  0.41372  1.0000
  C   C89       1.0  0.03780  0.54343  0.24253  1.0000
  N   N4        1.0  0.14376  0.55145  0.45725  1.0000
  H   H95       1.0  0.02631  0.53887  0.16351  1.0000
  H   H96       1.0  0.11111  0.58370  0.12539  1.0000
  C   C90       1.0  0.06768  0.58204  0.23532  1.0000
  H   H97       1.0  0.04621  0.58204  0.26817  1.0000
  H   H98       1.0  0.05473  0.53985  0.24107  1.0000
  N   N5        1.0  0.11497  0.59682  0.25703  1.0000
  H   H99       1.0  0.11359  0.61265  0.22862  1.0000
  S   S36       1.0  0.22371  0.63314  0.29307  1.0000
  H   H100      1.0  0.03816  0.48249  0.07848  1.0000
  H   H101      1.0  0.08198  0.55227  0.06867  1.0000
  H   H102      1.0  0.06735  0.50935  0.39989  1.0000
  H   H103      1.0  0.01153  0.54762  0.18850  1.0000
  H   H104      1.0  0.05400  0.59596  0.24225  1.0000
  H   H105      1.0  0.07170  0.59152  0.23358  1.0000
  H   H106      1.0  0.12640  0.63841  0.32847  1.0000
  C   C91       1.0  0.13228  0.61371  0.25328  1.0000
  H   H107      1.0  0.16121  0.61486  0.24884  1.0000
  H   H108      1.0  0.11018  0.59514  0.30285  1.0000
  C   C92       1.0  0.04457  0.49998  0.10258  1.0000
  H   H109      1.0  0.08795  0.66739  0.40414  1.0000
  H   H110      1.0  0.09811  0.59502  0.28604  1.0000
  H   H111      1.0  0.06994  0.54641  0.37268  1.0000
  S   S37       1.0  0.22063  0.63359  0.43028  1.0000
  H   H112      1.0  0.03325  0.61020  0.22659  1.0000
  H   H113      1.0  0.07049  0.54385  0.32886  1.0000
  H   H114      1.0  0.08053  0.65272  0.40318  1.0000
  C   C93       1.0  0.11206  0.60296  0.23091  1.0000
  C   C94       1.0  0.12766  0.60152  0.25504  1.0000
  C   C95       1.0  0.14773  0.59917  0.25219  1.0000
  H   H115      1.0  0.24830  0.63355  0.26476  1.0000
  C   C96       1.0  0.04991  0.54663  0.24007  1.0000
  H   H116      1.0  0.06676  0.57700  0.25778  1.0000
  H   H117      1.0  0.04100  0.58761  0.23728  1.0000
  C   C97       1.0  0.13576  0.59434  0.25457  1.0000
  H   H118      1.0  0.11749  0.60175  0.21089  1.0000
  H   H119      1.0  0.01683  0.59797  0.21265  1.0000
  H   H120      1.0  0.23473  0.58908  0.05046  1.0000
  C   C98       1.0  0.22585  0.63436  0.23557  1.0000
  H   H121      1.0  0.10871  0.60859  0.28134  1.0000
  C   C99       1.0  0.09952  0.63769  0.41680  1.0000
  S   S38       1.0  0.11597  0.64794  0.09799  1.0000
  S   S39       1.0  0.24410  0.61672  0.10716  1.0000
  N   N6        1.0  0.05610  0.58030  0.22790  1.0000
  H   H122      1.0  0.11618  0.58165  0.23987  1.0000
  C   C100      1.0  0.13676  0.58409  0.47231  1.0000
  C   C101      1.0  0.05595  0.51446  0.35566  1.0000
  H   H123      1.0  0.06331  0.58137  0.18336  1.0000
  C   C102      1.0  0.10770  0.59898  0.28290  1.0000
  C   C103      1.0  0.11672  0.65363  0.26236  1.0000
  C   C104      1.0  0.11146  0.58390  0.25924  1.0000
  C   C105      1.0  0.04898  0.58663  0.24477  1.0000
  H   H124      1.0  0.07434  0.57945  0.22019  1.0000
  H   H125      1.0  0.05619  0.53683  0.39592  1.0000
  S   S40       1.0  0.15013  0.65256  0.43565  1.0000
  H   H126      1.0  0.02367  0.55982  0.18634  1.0000
  C   C106      1.0  0.06588  0.53790  0.38941  1.0000
  C   C107      1.0  0.11696  0.64914  0.06045  1.0000
  C   C108      1.0  0.05820  0.58594  0.19683  1.0000
  H   H127      1.0  0.04315  0.50717  0.11308  1.0000
  H   H128      1.0  0.04935  0.52019  0.06286  1.0000
  H   H129      1.0  0.17457  0.62468  0.40266  1.0000
  H   H130      1.0  0.13971  0.54016  0.42894  1.0000
  H   H131      1.0  0.13177  0.60495  0.98833  1.0000
  S   S41       1.0  0.11646  0.65281  0.47070  1.0000
  N   N7        1.0  0.04113  0.50130  0.07486  1.0000
  C   C109      1.0  0.04322  0.49115  0.06307  1.0000
  C   C110      1.0  0.06288  0.52570  0.35578  1.0000
  H   H132      1.0  0.03255  0.57053  0.23172  1.0000
  H   H133      1.0  0.15376  0.59355  0.25182  1.0000
  H   H134      1.0  0.13309  0.58497  0.25596  1.0000
  S   S42       1.0  0.12940  0.64478  0.40317  1.0000
  H   H135      1.0  0.11310  0.57865  0.27886  1.0000
  H   H136      1.0  0.24816  0.60397  0.42284  1.0000
  C   C111      1.0  0.06480  0.53520  0.33111  1.0000
  C   C112      1.0  0.03762  0.56409  0.23491  1.0000
  H   H137      1.0  0.10736  0.61150  0.10144  1.0000
  C   C113      1.0  0.01257  0.55744  0.10516  1.0000
  C   C114      1.0  0.19066  0.61519  0.46099  1.0000
  H   H138      1.0  0.06532  0.56040  0.23297  1.0000
  H   H139      1.0  0.22642  0.63536  0.02098  1.0000
  C   C115      1.0  0.04907  0.51229  0.05406  1.0000
  N   N8        1.0  0.06854  0.52756  0.37938  1.0000
  C   C116      1.0  0.06465  0.51721  0.40505  1.0000
  H   H140      1.0  0.05839  0.51170  0.04845  1.0000
  H   H141      1.0  0.01162  0.52004  0.10134  1.0000
  H   H142      1.0  0.04978  0.58555  0.19031  1.0000
  C   C117      1.0  0.18570  0.63129  0.42971  1.0000
  H   H143      1.0  0.10006  0.64397  0.34488  1.0000
  C   C118      1.0  0.03168  0.55215  0.23979  1.0000
  H   H144      1.0  0.03930  0.49147  0.11828  1.0000
  H   H145      1.0  0.22614  0.64365  0.23309  1.0000
  Fe  Fe21      1.0  0.14730  0.64214  0.40316  1.0000
  C   C119      1.0  0.10868  0.60755  0.03386  1.0000
  H   H146      1.0  0.06324  0.59546  0.19109  1.0000
  C   C120      1.0  0.02553  0.51183  0.08854  1.0000
  H   H147      1.0  0.05491  0.51480  0.41410  1.0000
  C   C121      1.0  0.04986  0.56762  0.23353  1.0000
  C   C122      1.0  0.05590  0.55852  0.23547  1.0000
  C   C123      1.0  0.08149  0.52992  0.36838  1.0000
  H   H148      1.0  0.03195  0.51872  0.09255  1.0000
  H   H149      1.0  0.08524  0.53807  0.35032  1.0000
  N   N9        1.0  0.09938  0.65740  0.38653  1.0000
  H   H150      1.0  0.04079  0.49161  0.04213  1.0000
  H   H151      1.0  0.08611  0.53113  0.38561  1.0000
  H   H152      1.0  0.14120  0.53349  0.48174  1.0000
  C   C124      1.0  0.02775  0.59744  0.17244  1.0000
  H   H153      1.0  0.08387  0.52249  0.36003  1.0000
  C   C125      1.0  0.02871  0.50205  0.07970  1.0000
  H   H154      1.0  0.10380  0.58540  0.43469  1.0000
  H   H155      1.0  0.09999  0.62066  0.44107  1.0000
  C   C126      1.0  0.01943  0.49311  0.07662  1.0000
  H   H156      1.0  0.20425  0.64661  0.39118  1.0000
  C   C127      1.0  0.11891  0.61671  0.01762  1.0000
  C   C128      1.0  0.02568  0.60066  0.19864  1.0000
  H   H157      1.0  0.12235  0.55602  0.47595  1.0000
  C   C129      1.0  0.11933  0.65263  0.99987  1.0000
  H   H158      1.0  0.22390  0.64558  0.47480  1.0000
  H   H159      1.0  0.06877  0.51913  0.42274  1.0000
  C   C130      1.0  0.17849  0.61052  0.42905  1.0000
  C   C131      1.0  0.18124  0.64694  0.39501  1.0000
  C   C132      1.0  0.22644  0.63738  0.47995  1.0000
  C   C133      1.0  0.12920  0.65616  0.01031  1.0000
  H   H160      1.0  0.22726  0.63527  0.19032  1.0000
  H   H161      1.0  0.17152  0.64299  0.40229  1.0000
  H   H162      1.0  0.11411  0.65800  0.24396  1.0000
  C   C134      1.0  0.12798  0.65456  0.04032  1.0000
  H   H163      1.0  0.00724  0.53364  0.16292  1.0000
  H   H164      1.0  0.00712  0.47512  0.14647  1.0000
  C   C135      1.0  0.14158  0.56270  0.46258  1.0000
  H   H165      1.0  0.10011  0.62333  0.35230  1.0000
  C   C136      1.0  0.22525  0.62959  0.00673  1.0000
  Fe  Fe22      1.0  0.15866  0.66831  0.39696  1.0000
  H   H166      1.0  0.02231  0.54964  0.24108  1.0000
  H   H167      1.0  0.01773  0.56642  0.09460  1.0000
  N   N10       1.0  0.18701  0.64414  0.41883  1.0000
  C   C137      1.0  0.09978  0.62062  0.39726  1.0000
  S   S43       1.0  0.13170  0.66410  0.32505  1.0000
  Fe  Fe23      1.0  0.13891  0.66046  0.36578  1.0000
  C   C138      1.0  0.12189  0.66040  0.27957  1.0000
  C   C139      1.0  0.00479  0.48274  0.15242  1.0000
  H   H168      1.0  0.23270  0.65593  0.15005  1.0000
  C   C140      1.0  0.09934  0.66358  0.35693  1.0000
  H   H169      1.0  0.05014  0.52109  0.28974  1.0000
  H   H170      1.0  0.10542  0.53997  0.47205  1.0000
  C   C141      1.0  0.07499  0.54120  0.00702  1.0000
  H   H171      1.0  0.06192  0.54088  0.28902  1.0000
  C   C142      1.0  0.05999  0.53358  0.30798  1.0000
  C   C143      1.0  0.13722  0.54774  0.43641  1.0000
  C   C144      1.0  0.05131  0.51291  0.33218  1.0000
  C   C145      1.0  0.09088  0.53223  0.99379  1.0000
  C   C146      1.0  0.01387  0.51269  0.09362  1.0000
  H   H172      1.0  0.23763  0.57457  0.02175  1.0000
  H   H173      1.0  0.18216  0.65844  0.43514  1.0000
  H   H174      1.0  0.10661  0.59912  0.46598  1.0000
  H   H175      1.0  0.19546  0.61241  0.47658  1.0000
  H   H176      1.0  0.25003  0.61625  0.19279  1.0000
  C   C147      1.0  0.00778  0.49403  0.08197  1.0000
  H   H177      1.0  0.12318  0.66992  0.27403  1.0000
  H   H178      1.0  0.13770  0.66055  0.99528  1.0000
  C   C148      1.0  0.08865  0.65809  0.40678  1.0000
  S   S44       1.0  0.24744  0.64204  0.06114  1.0000
  H   H179      1.0  0.17215  0.64405  0.45200  1.0000
  C   C149      1.0  0.24360  0.58857  0.04127  1.0000
  H   H180      1.0  0.17364  0.60407  0.42011  1.0000
  H   H181      1.0  0.18614  0.64796  0.46051  1.0000
  H   H182      1.0  0.02086  0.48518  0.07074  1.0000
  C   C150      1.0  0.09968  0.62580  0.42039  1.0000
  C   C151      1.0  0.22574  0.62975  0.46152  1.0000
  H   H183      1.0  0.24265  0.66487  0.18308  1.0000
  C   C152      1.0  0.24521  0.58039  0.02514  1.0000
  C   C153      1.0  0.23798  0.66503  0.14285  1.0000
  H   H184      1.0  0.11023  0.66060  0.41618  1.0000
  S   S45       1.0  0.24575  0.64070  0.13017  1.0000
  H   H185      1.0  0.25101  0.66566  0.22337  1.0000
  H   H186      1.0  0.19632  0.63332  0.46071  1.0000
  C   C154      1.0  0.24351  0.67015  0.16167  1.0000
  H   H187      1.0  0.03323  0.53420  0.24581  1.0000
  H   H188      1.0  0.10742  0.66376  0.34070  1.0000
  C   C155      1.0  0.00667  0.53918  0.14306  1.0000
  H   H189      1.0  0.25157  0.62074  0.30637  1.0000
  H   H190      1.0  0.03581  0.56778  0.10786  1.0000
  C   C156      1.0  0.14839  0.58354  0.46339  1.0000
  H   H191      1.0  0.10363  0.60191  0.02347  1.0000
  H   H192      1.0  0.13909  0.55514  0.41685  1.0000
  C   C157      1.0  0.00501  0.50380  0.09040  1.0000
  C   C158      1.0  0.01419  0.55084  0.13109  1.0000
  S   S46       1.0  0.25054  0.60046  0.36486  1.0000
  C   C159      1.0  0.18437  0.60686  0.44965  1.0000
  H   H193      1.0  0.25011  0.61599  0.98876  1.0000
  C   C160      1.0  0.09524  0.57006  0.47037  1.0000
  C   C161      1.0  0.10068  0.58208  0.45803  1.0000
  H   H194      1.0  0.25167  0.64067  0.21693  1.0000
  S   S47       1.0  0.14124  0.67289  0.39538  1.0000
  H   H195      1.0  0.18421  0.59758  0.45640  1.0000
  C   C162      1.0  0.10222  0.58979  0.47573  1.0000
  C   C163      1.0  0.12752  0.57407  0.47691  1.0000
  C   C164      1.0  0.23917  0.67168  0.11490  1.0000
  H   H196      1.0  0.11850  0.57451  0.48396  1.0000
  C   C165      1.0  0.12984  0.56352  0.47220  1.0000
  H   H197      1.0  0.25178  0.61182  0.24311  1.0000
  C   C166      1.0  0.13953  0.54206  0.48477  1.0000
  C   C167      1.0  0.25333  0.59628  0.04527  1.0000
  C   C168      1.0  0.09694  0.53747  0.48757  1.0000
  S   S48       1.0  0.15207  0.62494  0.90033  1.0000
  C   C169      1.0  0.15028  0.58932  0.82525  1.0000
  Fe  Fe24      1.0  0.06980  0.52761  0.61418  1.0000
  S   S49       1.0  0.05941  0.51261  0.65377  1.0000
  S   S50       1.0  0.08491  0.52892  0.57540  1.0000
  Fe  Fe25      1.0  0.05958  0.54547  0.63964  1.0000
  S   S51       1.0  0.04833  0.53214  0.67991  1.0000
  S   S52       1.0  0.05921  0.56458  0.63096  1.0000
  Fe  Fe26      1.0  0.06460  0.52558  0.68053  1.0000
  S   S53       1.0  0.07004  0.52159  0.72374  1.0000
  Fe  Fe27      1.0  0.04378  0.52042  0.65049  1.0000
  S   S54       1.0  0.02378  0.51425  0.65325  1.0000
  S   S55       1.0  0.07600  0.53959  0.64126  1.0000
  S   S56       1.0  0.05412  0.53463  0.60992  1.0000
  Fe  Fe28      1.0  0.07365  0.62761  0.68256  1.0000
  S   S57       1.0  0.08515  0.62405  0.64459  1.0000
  S   S58       1.0  0.05357  0.62506  0.69053  1.0000
  Fe  Fe29      1.0  0.09453  0.63366  0.71196  1.0000
  S   S59       1.0  0.10718  0.62996  0.67608  1.0000
  S   S60       1.0  0.09809  0.63482  0.75657  1.0000
  Fe  Fe30      1.0  0.09888  0.63997  0.64495  1.0000
  S   S61       1.0  0.11121  0.65302  0.60361  1.0000
  Fe  Fe31      1.0  0.09250  0.61443  0.67816  1.0000
  S   S62       1.0  0.09524  0.59627  0.68051  1.0000
  S   S63       1.0  0.08686  0.64468  0.68078  1.0000
  S   S64       1.0  0.08039  0.61711  0.71594  1.0000
  N   N11       1.0  0.02157  0.55541  0.64603  1.0000
  H   H198      1.0  0.06758  0.53105  0.49139  1.0000
  N   N12       1.0  0.12278  0.61880  0.98582  1.0000
  Fe  Fe32      1.0  0.11080  0.57534  0.86370  1.0000
  S   S65       1.0  0.09325  0.56263  0.87013  1.0000
  S   S66       1.0  0.11391  0.59519  0.85163  1.0000
  Fe  Fe33      1.0  0.12369  0.55624  0.86821  1.0000
  S   S67       1.0  0.10703  0.54157  0.87525  1.0000
  S   S68       1.0  0.14292  0.55558  0.85812  1.0000
  Fe  Fe34      1.0  0.10252  0.55376  0.83939  1.0000
  S   S69       1.0  0.09772  0.55228  0.79620  1.0000
  Fe  Fe35      1.0  0.09859  0.55131  0.90582  1.0000
  S   S70       1.0  0.08413  0.54525  0.94850  1.0000
  S   S71       1.0  0.11976  0.56749  0.83079  1.0000
  S   S72       1.0  0.11554  0.56487  0.90099  1.0000
  Fe  Fe36      1.0  0.22947  0.60388  0.86766  1.0000
  S   S73       1.0  0.23210  0.62360  0.85794  1.0000
  Fe  Fe37      1.0  0.20219  0.59895  0.88208  1.0000
  S   S74       1.0  0.20362  0.61851  0.87379  1.0000
  S   S75       1.0  0.18252  0.58901  0.89822  1.0000
  Fe  Fe38      1.0  0.21798  0.62057  0.83448  1.0000
  S   S76       1.0  0.21824  0.63311  0.79259  1.0000
  Fe  Fe39      1.0  0.21758  0.61950  0.89814  1.0000
  C   C170      1.0  0.18478  0.64796  0.89000  1.0000
  S   S77       1.0  0.21603  0.60100  0.84122  1.0000
  H   H199      1.0  0.14175  0.58544  0.84072  1.0000
  C   C171      1.0  0.09312  0.66787  0.57236  1.0000
  C   C172      1.0  0.22304  0.65931  0.86416  1.0000
  S   S78       1.0  0.22884  0.63250  0.61098  1.0000
  Fe  Fe40      1.0  0.24231  0.62997  0.63616  1.0000
  H   H200      1.0  0.17549  0.64267  0.90056  1.0000
  Fe  Fe41      1.0  0.24245  0.63162  0.57275  1.0000
  S   S79       1.0  0.23939  0.62000  0.54211  1.0000
  C   C173      1.0  0.22436  0.62909  0.76116  1.0000
  C   C174      1.0  0.22491  0.63600  0.73376  1.0000
  C   C175      1.0  0.22959  0.63271  0.70863  1.0000
  C   C176      1.0  0.23360  0.62242  0.71091  1.0000
  C   C177      1.0  0.23302  0.61557  0.73829  1.0000
  C   C178      1.0  0.22857  0.61897  0.76325  1.0000
  S   S80       1.0  0.21544  0.59985  0.90945  1.0000
  H   H201      1.0  0.01223  0.60418  0.69963  1.0000
  H   H202      1.0  0.22838  0.61369  0.78410  1.0000
  H   H203      1.0  0.00510  0.56588  0.56815  1.0000
  H   H204      1.0  0.23606  0.60759  0.74022  1.0000
  C   C179      1.0  0.22125  0.62626  0.96157  1.0000
  C   C180      1.0  0.23376  0.62387  0.51178  1.0000
  H   H205      1.0  0.17595  0.65026  0.94283  1.0000
  H   H206      1.0  0.03489  0.54902  0.66359  1.0000
  H   H207      1.0  0.24218  0.59291  0.92106  1.0000
  C   C181      1.0  0.01421  0.55274  0.62600  1.0000
  H   H208      1.0  0.23106  0.64044  0.51895  1.0000
  S   S81       1.0  0.25085  0.64926  0.62779  1.0000
  C   C182      1.0  0.15392  0.56537  0.86824  1.0000
  C   C183      1.0  0.15090  0.57147  0.88909  1.0000
  C   C184      1.0  0.15978  0.57873  0.89761  1.0000
  C   C185      1.0  0.17182  0.58018  0.88516  1.0000
  C   C186      1.0  0.17488  0.57435  0.86372  1.0000
  C   C187      1.0  0.16598  0.56693  0.85549  1.0000
  H   H209      1.0  0.14171  0.57038  0.89920  1.0000
  H   H210      1.0  0.15728  0.58315  0.91423  1.0000
  H   H211      1.0  0.18409  0.57525  0.85413  1.0000
  H   H212      1.0  0.16845  0.56226  0.83939  1.0000
  C   C188      1.0  0.08947  0.54369  0.77698  1.0000
  C   C189      1.0  0.08234  0.53212  0.78970  1.0000
  C   C190      1.0  0.07636  0.52563  0.77323  1.0000
  C   C191      1.0  0.07711  0.53063  0.74396  1.0000
  C   C192      1.0  0.08399  0.54232  0.73146  1.0000
  C   C193      1.0  0.09025  0.54868  0.74770  1.0000
  H   H213      1.0  0.08148  0.52808  0.81216  1.0000
  H   H214      1.0  0.07110  0.51661  0.78326  1.0000
  H   H215      1.0  0.08483  0.54631  0.70896  1.0000
  H   H216      1.0  0.09596  0.55744  0.73718  1.0000
  C   C194      1.0  0.08524  0.53175  0.53802  1.0000
  C   C195      1.0  0.09624  0.53529  0.51743  1.0000
  C   C196      1.0  0.01338  0.56161  0.60275  1.0000
  H   H217      1.0  0.18094  0.60197  0.77066  1.0000
  H   H218      1.0  0.21603  0.65727  0.80210  1.0000
  C   C197      1.0  0.07493  0.53050  0.52834  1.0000
  H   H219      1.0  0.10426  0.53623  0.52470  1.0000
  C   C198      1.0  0.04249  0.61392  0.68416  1.0000
  H   H220      1.0  0.02278  0.53758  0.66366  1.0000
  H   H221      1.0  0.06641  0.52772  0.54387  1.0000
  C   C199      1.0  0.01259  0.50227  0.65016  1.0000
  C   C200      1.0  0.01400  0.49080  0.65183  1.0000
  H   H222      1.0  0.19541  0.63306  0.91623  1.0000
  C   C201      1.0  0.22259  0.63367  0.98033  1.0000
  S   S82       1.0  0.15363  0.65465  0.92490  1.0000
  H   H223      1.0  0.09230  0.66435  0.92495  1.0000
  H   H224      1.0  0.02228  0.48901  0.65427  1.0000
  C   C202      1.0  0.09606  0.66709  0.86515  1.0000
  H   H225      1.0  0.14130  0.62657  0.98081  1.0000
  S   S83       1.0  0.23954  0.61789  0.68023  1.0000
  C   C203      1.0  0.06851  0.57294  0.64727  1.0000
  C   C204      1.0  0.06790  0.58450  0.64749  1.0000
  C   C205      1.0  0.07580  0.59155  0.65875  1.0000
  C   C206      1.0  0.08461  0.58723  0.66881  1.0000
  C   C207      1.0  0.08497  0.57555  0.66946  1.0000
  C   C208      1.0  0.07682  0.56837  0.65911  1.0000
  H   H226      1.0  0.06133  0.58803  0.63897  1.0000
  H   H227      1.0  0.07506  0.60031  0.65942  1.0000
  H   H228      1.0  0.09160  0.57205  0.67776  1.0000
  H   H229      1.0  0.07712  0.55938  0.66004  1.0000
  H   H230      1.0  0.05444  0.60732  0.65642  1.0000
  H   H231      1.0  0.03854  0.59338  0.64499  1.0000
  C   C209      1.0  0.11324  0.65160  0.56734  1.0000
  C   C210      1.0  0.10484  0.64387  0.55888  1.0000
  C   C211      1.0  0.10614  0.64407  0.52935  1.0000
  H   H232      1.0  0.09709  0.63811  0.57492  1.0000
  H   H233      1.0  0.09935  0.63840  0.52303  1.0000
  H   H234      1.0  0.11768  0.65680  0.73386  1.0000
  H   H235      1.0  0.19013  0.62954  0.79819  1.0000
  H   H236      1.0  0.03623  0.56816  0.61404  1.0000
  C   C212      1.0  0.10830  0.64304  0.77239  1.0000
  C   C213      1.0  0.11701  0.65341  0.75655  1.0000
  H   H237      1.0  0.22643  0.66249  0.75168  1.0000
  C   C214      1.0  0.03048  0.61289  0.69622  1.0000
  H   H238      1.0  0.16831  0.61847  0.84636  1.0000
  H   H239      1.0  0.18286  0.63326  0.94229  1.0000
  H   H240      1.0  0.11490  0.64155  0.83817  1.0000
  C   C215      1.0  0.14207  0.61664  0.88540  1.0000
  C   C216      1.0  0.13920  0.60424  0.89354  1.0000
  C   C217      1.0  0.13071  0.59758  0.88292  1.0000
  C   C218      1.0  0.12499  0.60328  0.86430  1.0000
  C   C219      1.0  0.12807  0.61569  0.85565  1.0000
  C   C220      1.0  0.13666  0.62234  0.86597  1.0000
  H   H241      1.0  0.14348  0.59975  0.90822  1.0000
  H   H242      1.0  0.12858  0.58805  0.88939  1.0000
  H   H243      1.0  0.12378  0.62019  0.84105  1.0000
  H   H244      1.0  0.13910  0.63191  0.85870  1.0000
  H   H245      1.0  0.17548  0.62636  0.79256  1.0000
  H   H246      1.0  0.15637  0.60007  0.85133  1.0000
  N   N13       1.0  0.07650  0.57754  0.76629  1.0000
  C   C221      1.0  0.08855  0.57833  0.74970  1.0000
  C   C222      1.0  0.07048  0.56493  0.78130  1.0000
  C   C223      1.0  0.06983  0.58151  0.74525  1.0000
  C   C224      1.0  0.07743  0.58474  0.78753  1.0000
  C   C225      1.0  0.07344  0.59522  0.78593  1.0000
  C   C226      1.0  0.08314  0.58174  0.80971  1.0000
  C   C227      1.0  0.07521  0.60226  0.80514  1.0000
  C   C228      1.0  0.08464  0.58871  0.82919  1.0000
  C   C229      1.0  0.08076  0.59900  0.82678  1.0000
  H   H247      1.0  0.09355  0.57388  0.76330  1.0000
  H   H248      1.0  0.08839  0.57415  0.73134  1.0000
  H   H249      1.0  0.09374  0.58774  0.74038  1.0000
  H   H250      1.0  0.07551  0.56079  0.79537  1.0000
  H   H251      1.0  0.06943  0.55938  0.76568  1.0000
  H   H252      1.0  0.06156  0.56403  0.79503  1.0000
  H   H253      1.0  0.07440  0.59060  0.73137  1.0000
  H   H254      1.0  0.06908  0.57575  0.73001  1.0000
  H   H255      1.0  0.06068  0.58131  0.75628  1.0000
  H   H256      1.0  0.06904  0.59827  0.76981  1.0000
  H   H257      1.0  0.08666  0.57405  0.81188  1.0000
  H   H258      1.0  0.07238  0.61039  0.80299  1.0000
  H   H259      1.0  0.08907  0.58629  0.84591  1.0000
  H   H260      1.0  0.08217  0.60451  0.84155  1.0000
  N   N14       1.0  0.12124  0.61207  0.76022  1.0000
  C   C230      1.0  0.10986  0.61020  0.78145  1.0000
  C   C231      1.0  0.13087  0.61321  0.77529  1.0000
  C   C232      1.0  0.12345  0.62356  0.73870  1.0000
  C   C233      1.0  0.12064  0.60179  0.74737  1.0000
  C   C234      1.0  0.12031  0.60259  0.71813  1.0000
  C   C235      1.0  0.11979  0.59039  0.76465  1.0000
  C   C236      1.0  0.11955  0.59264  0.70689  1.0000
  C   C237      1.0  0.11910  0.58052  0.75315  1.0000
  C   C238      1.0  0.11897  0.58164  0.72432  1.0000
  H   H261      1.0  0.10775  0.60191  0.79877  1.0000
  H   H262      1.0  0.11000  0.61752  0.79237  1.0000
  H   H263      1.0  0.10241  0.60972  0.77090  1.0000
  H   H264      1.0  0.12920  0.60564  0.79437  1.0000
  H   H265      1.0  0.13185  0.62122  0.78398  1.0000
  H   H266      1.0  0.13948  0.61385  0.76049  1.0000
  H   H267      1.0  0.11594  0.62388  0.72866  1.0000
  H   H268      1.0  0.12439  0.63115  0.74884  1.0000
  H   H269      1.0  0.13170  0.62532  0.72140  1.0000
  H   H270      1.0  0.12041  0.61075  0.70353  1.0000
  H   H271      1.0  0.11944  0.58901  0.78739  1.0000
  H   H272      1.0  0.11911  0.59344  0.68464  1.0000
  H   H273      1.0  0.11838  0.57190  0.76684  1.0000
  H   H274      1.0  0.11817  0.57392  0.71561  1.0000
  C   C239      1.0  0.12502  0.60790  0.97814  1.0000
  C   C240      1.0  0.07275  0.65525  0.58758  1.0000
  C   C241      1.0  0.15884  0.59779  0.83112  1.0000
  C   C242      1.0  0.07563  0.53240  0.49852  1.0000
  H   H275      1.0  0.25044  0.65501  0.68484  1.0000
  C   C243      1.0  0.16387  0.59008  0.78083  1.0000
  H   H276      1.0  0.12968  0.66522  0.55212  1.0000
  C   C244      1.0  0.17027  0.60269  0.81183  1.0000
  C   C245      1.0  0.02842  0.54650  0.65100  1.0000
  H   H277      1.0  0.09973  0.59201  0.51824  1.0000
  H   H278      1.0  0.05090  0.63122  0.63007  1.0000
  C   C246      1.0  0.17246  0.59867  0.78631  1.0000
  N   N15       1.0  0.08848  0.56846  0.55094  1.0000
  C   C247      1.0  0.07627  0.56061  0.55940  1.0000
  C   C248      1.0  0.09645  0.56138  0.56031  1.0000
  C   C249      1.0  0.08842  0.57772  0.56728  1.0000
  C   C250      1.0  0.09249  0.57335  0.51915  1.0000
  C   C251      1.0  0.03020  0.56727  0.63534  1.0000
  H   H279      1.0  0.02576  0.57457  0.63366  1.0000
  H   H280      1.0  0.22883  0.65538  0.85129  1.0000
  H   H281      1.0  0.09749  0.53063  0.97747  1.0000
  H   H282      1.0  0.12986  0.54025  0.49415  1.0000
  H   H283      1.0  0.07013  0.56520  0.55041  1.0000
  H   H284      1.0  0.07573  0.55221  0.55254  1.0000
  H   H285      1.0  0.07269  0.55772  0.58329  1.0000
  H   H286      1.0  0.09661  0.55400  0.54964  1.0000
  H   H287      1.0  0.09356  0.55720  0.58401  1.0000
  H   H288      1.0  0.10568  0.56694  0.55514  1.0000
  H   H289      1.0  0.09747  0.58327  0.56470  1.0000
  H   H290      1.0  0.08276  0.58353  0.56071  1.0000
  H   H291      1.0  0.08481  0.57374  0.59101  1.0000
  H   H292      1.0  0.08733  0.55633  0.50883  1.0000
  C   C252      1.0  0.18494  0.65601  0.93115  1.0000
  H   H293      1.0  0.21415  0.66929  0.53139  1.0000
  H   H294      1.0  0.14405  0.54464  0.50123  1.0000
  H   H295      1.0  0.05271  0.64703  0.65439  1.0000
  S   S84       1.0  0.23094  0.66732  0.59941  1.0000
  H   H296      1.0  0.18322  0.62117  0.84917  1.0000
  H   H297      1.0  0.22994  0.63800  0.68756  1.0000
  H   H298      1.0  0.02816  0.61846  0.71020  1.0000
  H   H299      1.0  0.00576  0.47270  0.65265  1.0000
  H   H300      1.0  0.18873  0.64289  0.87572  1.0000
  C   C253      1.0  0.02139  0.60476  0.69028  1.0000
  C   C254      1.0  0.19182  0.63869  0.92938  1.0000
  C   C255      1.0  0.01376  0.55504  0.67405  1.0000
  H   H301      1.0  0.01889  0.55705  0.68987  1.0000
  H   H302      1.0  0.06700  0.64901  0.55235  1.0000
  H   H303      1.0  0.18702  0.62135  0.77282  1.0000
  H   H304      1.0  0.17366  0.60662  0.86412  1.0000
  H   H305      1.0  0.18960  0.65799  0.94784  1.0000
  H   H306      1.0  0.04305  0.64891  0.61716  1.0000
  C   C256      1.0  0.11602  0.65172  0.50794  1.0000
  Fe  Fe42      1.0  0.16118  0.66967  0.88438  1.0000
  S   S85       1.0  0.13150  0.64564  0.89668  1.0000
  H   H307      1.0  0.11580  0.66141  0.90363  1.0000
  S   S86       1.0  0.12015  0.65545  0.96204  1.0000
  C   C257      1.0  0.11562  0.64490  0.81544  1.0000
  H   H308      1.0  0.11472  0.65803  0.87005  1.0000
  Fe  Fe43      1.0  0.14960  0.64329  0.89489  1.0000
  Fe  Fe44      1.0  0.14020  0.66081  0.85764  1.0000
  H   H309      1.0  0.22172  0.64262  0.97426  1.0000
  H   H310      1.0  0.19412  0.60517  0.79726  1.0000
  H   H311      1.0  0.16588  0.58690  0.76162  1.0000
  H   H312      1.0  0.19732  0.61317  0.82273  1.0000
  H   H313      1.0  0.14630  0.57845  0.79662  1.0000
  H   H314      1.0  0.01827  0.57077  0.59810  1.0000
  H   H315      1.0  0.22147  0.60897  0.95527  1.0000
  C   C258      1.0  0.07594  0.66224  0.85859  1.0000
  S   S87       1.0  0.01314  0.58805  0.66097  1.0000
  C   C259      1.0  0.00577  0.55892  0.58531  1.0000
  H   H316      1.0  0.00852  0.56167  0.67131  1.0000
  C   C260      1.0  0.09910  0.67230  0.91035  1.0000
  S   S88       1.0  0.13353  0.66425  0.81630  1.0000
  C   C261      1.0  0.12419  0.65540  0.79971  1.0000
  S   S89       1.0  0.15825  0.65769  0.85457  1.0000
  C   C262      1.0  0.23048  0.63448  0.50498  1.0000
  C   C263      1.0  0.10764  0.63892  0.80200  1.0000
  Fe  Fe45      1.0  0.13600  0.65829  0.92376  1.0000
  H   H317      1.0  0.03585  0.56889  0.65042  1.0000
  H   H318      1.0  0.10088  0.63102  0.81476  1.0000
  H   H319      1.0  0.13121  0.66776  0.75776  1.0000
  C   C264      1.0  0.02417  0.59770  0.67159  1.0000
  H   H320      1.0  0.10232  0.67100  0.52786  1.0000
  H   H321      1.0  0.06296  0.66119  0.63714  1.0000
  N   N16       1.0  0.06150  0.64912  0.60969  1.0000
  C   C265      1.0  0.22243  0.61474  0.96949  1.0000
  C   C266      1.0  0.07404  0.65434  0.55862  1.0000
  Fe  Fe46      1.0  0.23872  0.65180  0.59907  1.0000
  H   H322      1.0  0.13257  0.63716  0.97559  1.0000
  S   S90       1.0  0.24726  0.59951  0.85799  1.0000
  H   H323      1.0  0.10264  0.65150  0.90155  1.0000
  H   H324      1.0  0.20866  0.64396  0.87568  1.0000
  H   H325      1.0  0.22162  0.64381  0.73194  1.0000
  C   C267      1.0  0.21844  0.66649  0.78987  1.0000
  H   H326      1.0  0.24622  0.63080  0.93264  1.0000
  C   C268      1.0  0.18318  0.62266  0.79425  1.0000
  C   C269      1.0  0.04529  0.60666  0.66599  1.0000
  C   C270      1.0  0.15282  0.58537  0.80037  1.0000
  C   C271      1.0  0.12475  0.65960  0.77021  1.0000
  C   C272      1.0  0.21144  0.65280  0.87835  1.0000
  C   C273      1.0  0.12463  0.65911  0.51655  1.0000
  S   S91       1.0  0.21865  0.63177  0.92785  1.0000
  C   C274      1.0  0.05156  0.65294  0.60026  1.0000
  C   C275      1.0  0.06136  0.65155  0.63839  1.0000
  C   C276      1.0  0.23302  0.61625  0.49338  1.0000
  C   C277      1.0  0.00458  0.48154  0.65091  1.0000
  H   H327      1.0  0.23555  0.60804  0.49846  1.0000
  H   H328      1.0  0.00737  0.54619  0.68399  1.0000
  C   C278      1.0  0.12316  0.65915  0.54595  1.0000
  C   C279      1.0  0.19015  0.60683  0.81814  1.0000
  N   N17       1.0  0.17965  0.61151  0.81754  1.0000
  H   H329      1.0  0.18790  0.59835  0.83508  1.0000
  N   N18       1.0  0.11740  0.52752  0.80080  1.0000
  C   C280      1.0  0.12432  0.51857  0.80293  1.0000
  C   C281      1.0  0.12469  0.53863  0.80432  1.0000
  C   C282      1.0  0.10666  0.52335  0.82530  1.0000
  C   C283      1.0  0.11401  0.52900  0.77301  1.0000
  C   C284      1.0  0.10648  0.51934  0.76716  1.0000
  C   C285      1.0  0.11816  0.53980  0.75090  1.0000
  C   C286      1.0  0.10308  0.52051  0.74123  1.0000
  C   C287      1.0  0.11483  0.54080  0.72484  1.0000
  C   C288      1.0  0.10725  0.53120  0.72011  1.0000
  H   H330      1.0  0.11908  0.50967  0.80306  1.0000
  H   H331      1.0  0.13228  0.52121  0.78435  1.0000
  H   H332      1.0  0.12740  0.51749  0.82312  1.0000
  H   H333      1.0  0.13331  0.54195  0.78778  1.0000
  H   H334      1.0  0.12687  0.53734  0.82570  1.0000
  H   H335      1.0  0.11994  0.54573  0.80308  1.0000
  H   H336      1.0  0.10102  0.51460  0.82588  1.0000
  H   H337      1.0  0.10893  0.52231  0.84650  1.0000
  H   H338      1.0  0.10112  0.52976  0.82411  1.0000
  H   H339      1.0  0.10300  0.51083  0.78274  1.0000
  H   H340      1.0  0.12378  0.54767  0.75339  1.0000
  H   H341      1.0  0.09692  0.51318  0.73768  1.0000
  H   H342      1.0  0.11786  0.54916  0.70850  1.0000
  H   H343      1.0  0.10433  0.53212  0.70036  1.0000
  C   C289      1.0  0.03620  0.59873  0.65954  1.0000
  H   H344      1.0  0.05870  0.63340  0.59343  1.0000
  H   H345      1.0  0.06650  0.63286  0.62114  1.0000
  C   C290      1.0  0.08023  0.66055  0.83144  1.0000
  H   H346      1.0  0.07421  0.65797  0.81860  1.0000
  H   H347      1.0  0.06652  0.66098  0.86677  1.0000
  C   C291      1.0  0.05932  0.63612  0.61360  1.0000
  C   C292      1.0  0.17600  0.61456  0.84546  1.0000
  H   H348      1.0  0.00670  0.53401  0.64851  1.0000
  N   N19       1.0  0.19153  0.65023  0.91152  1.0000
  H   H349      1.0  0.09566  0.66071  0.79978  1.0000
  H   H350      1.0  0.03344  0.54554  0.63020  1.0000
  H   H351      1.0  0.18447  0.65645  0.87596  1.0000
  C   C293      1.0  0.09404  0.66689  0.54416  1.0000
  H   H352      1.0  0.06805  0.64810  0.64792  1.0000
  H   H353      1.0  0.24720  0.63521  0.96485  1.0000
  C   C294      1.0  0.09129  0.56574  0.50041  1.0000
  H   H354      1.0  0.13653  0.62969  0.94849  1.0000
  N   N20       1.0  0.10452  0.66994  0.88265  1.0000
  H   H355      1.0  0.19747  0.64003  0.94460  1.0000
  H   H356      1.0  0.13220  0.66516  0.50042  1.0000
  H   H357      1.0  0.18363  0.66439  0.91906  1.0000
  S   S92       1.0  0.25119  0.65116  0.55888  1.0000
  C   C295      1.0  0.00695  0.54112  0.63056  1.0000
  H   H358      1.0  0.24808  0.61109  0.95757  1.0000
  H   H359      1.0  0.05317  0.66276  0.59562  1.0000
  H   H360      1.0  0.10511  0.61480  0.97958  1.0000
  H   H361      1.0  0.05009  0.65022  0.58057  1.0000
  C   C296      1.0  0.09821  0.58556  0.50586  1.0000
  H   H362      1.0  0.07973  0.66647  0.89629  1.0000
  H   H363      1.0  0.08283  0.66294  0.61544  1.0000
  H   H364      1.0  0.11111  0.62995  0.97910  1.0000
  C   C297      1.0  0.09230  0.66213  0.82083  1.0000
  C   C298      1.0  0.08270  0.66209  0.59392  1.0000
  H   H365      1.0  0.11617  0.62433  0.94872  1.0000
  C   C299      1.0  0.20371  0.65745  0.89627  1.0000
  C   C300      1.0  0.08455  0.66008  0.53732  1.0000
  H   H366      1.0  0.08551  0.65903  0.51552  1.0000
  C   C301      1.0  0.08368  0.66543  0.87537  1.0000
  C   C302      1.0  0.10964  0.65978  0.88973  1.0000
  C   C303      1.0  0.25166  0.59548  0.91234  1.0000
  C   C304      1.0  0.20823  0.66921  0.89828  1.0000
  H   H367      1.0  0.12840  0.60941  0.95430  1.0000
  H   H368      1.0  0.21075  0.67260  0.82599  1.0000
  H   H369      1.0  0.22748  0.67267  0.54234  1.0000
  C   C305      1.0  0.10010  0.66540  0.83732  1.0000
  H   H370      1.0  0.10935  0.66644  0.82818  1.0000
  H   H371      1.0  0.22833  0.66861  0.70244  1.0000
  C   C306      1.0  0.11338  0.62207  0.97277  1.0000
  C   C307      1.0  0.13378  0.62848  0.97227  1.0000
  C   C308      1.0  0.08364  0.53937  0.98540  1.0000
  H   H372      1.0  0.24235  0.67112  0.71192  1.0000
  C   C309      1.0  0.22724  0.67074  0.86690  1.0000
  C   C310      1.0  0.22447  0.66965  0.76061  1.0000
  H   H373      1.0  0.10074  0.67271  0.57785  1.0000
  C   C311      1.0  0.25261  0.63475  0.94403  1.0000
  H   H374      1.0  0.25310  0.64084  0.72577  1.0000
  H   H375      1.0  0.11692  0.60043  0.98484  1.0000
  N   N21       1.0  0.22585  0.69687  0.02660  1.0000
  H   H376      1.0  0.21383  0.70054  0.34597  1.0000
  C   C312      1.0  0.21413  0.68812  0.03511  1.0000
  S   S93       1.0  0.17769  0.67798  0.39647  1.0000
  H   H377      1.0  0.22493  0.73070  0.27324  1.0000
  H   H378      1.0  0.21432  0.70360  0.40498  1.0000
  C   C313      1.0  0.21152  0.70590  0.32761  1.0000
  C   C314      1.0  0.23030  0.71558  0.04458  1.0000
  H   H379      1.0  0.20690  0.69244  0.04074  1.0000
  C   C315      1.0  0.25068  0.68889  0.12542  1.0000
  C   C316      1.0  0.23191  0.71213  0.30061  1.0000
  H   H380      1.0  0.23453  0.73063  0.06232  1.0000
  N   N22       1.0  0.22143  0.71633  0.31108  1.0000
  H   H381      1.0  0.20348  0.70857  0.33686  1.0000
  C   C317      1.0  0.21755  0.72310  0.28737  1.0000
  H   H382      1.0  0.21551  0.71758  0.46117  1.0000
  C   C318      1.0  0.19802  0.69251  0.40169  1.0000
  C   C319      1.0  0.20554  0.70331  0.40219  1.0000
  S   S94       1.0  0.25111  0.72124  0.47923  1.0000
  H   H383      1.0  0.22673  0.69663  0.12180  1.0000
  H   H384      1.0  0.21015  0.72679  0.29584  1.0000
  C   C320      1.0  0.23064  0.71424  0.09450  1.0000
  C   C321      1.0  0.18259  0.70218  0.39557  1.0000
  C   C322      1.0  0.22583  0.69635  0.07833  1.0000
  H   H385      1.0  0.24855  0.70761  0.23969  1.0000
  S   S95       1.0  0.24404  0.74753  0.36571  1.0000
  H   H386      1.0  0.23444  0.68345  0.04165  1.0000
  Fe  Fe47      1.0  0.24786  0.73014  0.43726  1.0000
  S   S96       1.0  0.23590  0.74223  0.43543  1.0000
  C   C323      1.0  0.23589  0.71191  0.27128  1.0000
  Fe  Fe48      1.0  0.23010  0.73350  0.40169  1.0000
  S   S97       1.0  0.21078  0.72766  0.39936  1.0000
  H   H387      1.0  0.23231  0.71856  0.11132  1.0000
  C   C324      1.0  0.22722  0.70301  0.04971  1.0000
  S   S98       1.0  0.24121  0.72060  0.40595  1.0000
  C   C325      1.0  0.20101  0.70196  0.47481  1.0000
  H   H388      1.0  0.24411  0.69670  0.01690  1.0000
  C   C326      1.0  0.25145  0.70306  0.28203  1.0000
  C   C327      1.0  0.18650  0.69184  0.39825  1.0000
  H   H389      1.0  0.23186  0.73167  0.31957  1.0000
  C   C328      1.0  0.24550  0.70741  0.26231  1.0000
  C   C329      1.0  0.22754  0.70192  0.10031  1.0000
  C   C330      1.0  0.23188  0.72103  0.06681  1.0000
  C   C331      1.0  0.25207  0.77853  0.47864  1.0000
  C   C332      1.0  0.21191  0.70872  0.47543  1.0000
  H   H390      1.0  0.21418  0.71740  0.27381  1.0000
  C   C333      1.0  0.22387  0.72422  0.33034  1.0000
  H   H391      1.0  0.19615  0.70563  0.46039  1.0000
  C   C334      1.0  0.22679  0.70504  0.99841  1.0000
  C   C335      1.0  0.19012  0.71299  0.39602  1.0000
  C   C336      1.0  0.24775  0.70309  0.31091  1.0000
  H   H392      1.0  0.23191  0.71536  0.25463  1.0000
  H   H393      1.0  0.23182  0.72144  0.02348  1.0000
  H   H394      1.0  0.17379  0.70188  0.39294  1.0000
  H   H395      1.0  0.21326  0.68072  0.05403  1.0000
  H   H396      1.0  0.22376  0.68677  0.08378  1.0000
  C   C337      1.0  0.23517  0.69050  0.02215  1.0000
  H   H397      1.0  0.18695  0.72089  0.39387  1.0000
  H   H398      1.0  0.21640  0.72813  0.33686  1.0000
  C   C338      1.0  0.20166  0.71368  0.39922  1.0000
  H   H399      1.0  0.24732  0.74650  0.26147  1.0000
  C   C339      1.0  0.24541  0.68367  0.10630  1.0000
  H   H400      1.0  0.22516  0.71951  0.35104  1.0000
  H   H401      1.0  0.20909  0.69991  0.31380  1.0000
  H   H402      1.0  0.20118  0.68460  0.40391  1.0000
  H   H403      1.0  0.23547  0.70700  0.34294  1.0000
  C   C340      1.0  0.23805  0.70739  0.32022  1.0000
  Fe  Fe49      1.0  0.25123  0.75466  0.40006  1.0000
  H   H404      1.0  0.23485  0.68617  0.00409  1.0000
  H   H405      1.0  0.21999  0.71012  0.00014  1.0000
  H   H406      1.0  0.24639  0.68886  0.08467  1.0000
  C   C341      1.0  0.25001  0.68204  0.15286  1.0000
  H   H407      1.0  0.24394  0.77432  0.47284  1.0000
  H   H408      1.0  0.21255  0.68389  0.01743  1.0000
  H   H409      1.0  0.25096  0.78699  0.48369  1.0000
  H   H410      1.0  0.25166  0.74360  0.30953  1.0000
  S   S99       1.0  0.25205  0.71927  0.15672  1.0000
  H   H411      1.0  0.25255  0.69992  0.32613  1.0000
  H   H412      1.0  0.23567  0.71143  0.98982  1.0000
  H   H413      1.0  0.24903  0.75558  0.48609  1.0000
  C   C342      1.0  0.25374  0.74171  0.26598  1.0000
  H   H414      1.0  0.11034  0.67361  0.39051  1.0000
  C   C343      1.0  0.11424  0.68059  0.86606  1.0000
  C   C344      1.0  0.19210  0.70993  0.81789  1.0000
  C   C345      1.0  0.22640  0.69075  0.69617  1.0000
  C   C346      1.0  0.24805  0.72716  0.55881  1.0000
  H   H415      1.0  0.18388  0.70338  0.82979  1.0000
  C   C347      1.0  0.24886  0.72581  0.80642  1.0000
  C   C348      1.0  0.24725  0.69750  0.61621  1.0000
  H   H416      1.0  0.23315  0.73350  0.49600  1.0000
  S   S100      1.0  0.18059  0.68091  0.87199  1.0000
  H   H417      1.0  0.23007  0.70391  0.53842  1.0000
  C   C349      1.0  0.24527  0.69430  0.70784  1.0000
  H   H418      1.0  0.25197  0.72500  0.57653  1.0000
  H   H419      1.0  0.22504  0.69906  0.70165  1.0000
  C   C350      1.0  0.19639  0.69052  0.49267  1.0000
  H   H420      1.0  0.22757  0.67810  0.50525  1.0000
  N   N23       1.0  0.21983  0.68748  0.53395  1.0000
  S   S101      1.0  0.24362  0.71988  0.65492  1.0000
  C   C351      1.0  0.19655  0.71929  0.82923  1.0000
  Fe  Fe50      1.0  0.24949  0.73047  0.68478  1.0000
  S   S102      1.0  0.23586  0.73936  0.59109  1.0000
  C   C352      1.0  0.24765  0.72743  0.75659  1.0000
  S   S103      1.0  0.23942  0.72401  0.73184  1.0000
  H   H421      1.0  0.22314  0.72875  0.84599  1.0000
  H   H422      1.0  0.19142  0.71941  0.85000  1.0000
  C   C353      1.0  0.21365  0.69254  0.51310  1.0000
  S   S104      1.0  0.24485  0.74503  0.87344  1.0000
  C   C354      1.0  0.20736  0.72793  0.81425  1.0000
  C   C355      1.0  0.24362  0.76703  0.52728  1.0000
  S   S105      1.0  0.24082  0.73475  0.94193  1.0000
  H   H423      1.0  0.22066  0.75034  0.78327  1.0000
  Fe  Fe51      1.0  0.23376  0.72824  0.90674  1.0000
  S   S106      1.0  0.21372  0.72028  0.91439  1.0000
  H   H424      1.0  0.21717  0.75723  0.81177  1.0000
  H   H425      1.0  0.23761  0.69778  0.51140  1.0000
  S   S107      1.0  0.24705  0.71775  0.89868  1.0000
  H   H426      1.0  0.21374  0.71615  0.75616  1.0000
  C   C356      1.0  0.23948  0.73353  0.56099  1.0000
  C   C357      1.0  0.23400  0.73563  0.53836  1.0000
  C   C358      1.0  0.21223  0.68471  0.56372  1.0000
  H   H427      1.0  0.11993  0.67902  0.84695  1.0000
  H   H428      1.0  0.20555  0.75002  0.79788  1.0000
  H   H429      1.0  0.19479  0.70143  0.78322  1.0000
  H   H430      1.0  0.22714  0.74025  0.54020  1.0000
  H   H431      1.0  0.20975  0.69274  0.56845  1.0000
  H   H432      1.0  0.22692  0.69945  0.74738  1.0000
  H   H433      1.0  0.22178  0.73255  0.77510  1.0000
  H   H434      1.0  0.21754  0.68451  0.70037  1.0000
  C   C359      1.0  0.24254  0.72287  0.78638  1.0000
  H   H435      1.0  0.18793  0.68528  0.49188  1.0000
  H   H436      1.0  0.25093  0.69079  0.72101  1.0000
  H   H437      1.0  0.20346  0.73059  0.87043  1.0000
  H   H438      1.0  0.23556  0.76343  0.52045  1.0000
  H   H439      1.0  0.23369  0.71707  0.79401  1.0000
  H   H440      1.0  0.24487  0.72231  0.82936  1.0000
  H   H441      1.0  0.22976  0.68948  0.61330  1.0000
  C   C360      1.0  0.24644  0.72602  0.51050  1.0000
  H   H442      1.0  0.21651  0.69362  0.79841  1.0000
  C   C361      1.0  0.24183  0.67902  0.60268  1.0000
  C   C362      1.0  0.23127  0.69555  0.53299  1.0000
  H   H443      1.0  0.24405  0.70261  0.71357  1.0000
  H   H444      1.0  0.22311  0.68461  0.88584  1.0000
  C   C363      1.0  0.20258  0.68584  0.51156  1.0000
  C   C364      1.0  0.21342  0.72646  0.78760  1.0000
  H   H445      1.0  0.20867  0.74626  0.86063  1.0000
  N   N24       1.0  0.21230  0.73807  0.82527  1.0000
  H   H446      1.0  0.22562  0.70021  0.98149  1.0000
  C   C365      1.0  0.20890  0.71703  0.77656  1.0000
  H   H447      1.0  0.12033  0.68340  0.87934  1.0000
  H   H448      1.0  0.22774  0.74458  0.83955  1.0000
  H   H449      1.0  0.23571  0.69147  0.54884  1.0000
  C   C366      1.0  0.23874  0.68876  0.61080  1.0000
  Fe  Fe52      1.0  0.24731  0.73713  0.62220  1.0000
  H   H450      1.0  0.24482  0.70504  0.62175  1.0000
  C   C367      1.0  0.23655  0.67544  0.70074  1.0000
  H   H451      1.0  0.19585  0.73950  0.85036  1.0000
  C   C368      1.0  0.22469  0.69017  0.75854  1.0000
  C   C369      1.0  0.18966  0.69152  0.88503  1.0000
  C   C370      1.0  0.20192  0.69538  0.87211  1.0000
  C   C371      1.0  0.20947  0.70388  0.88125  1.0000
  C   C372      1.0  0.20485  0.70882  0.90325  1.0000
  C   C373      1.0  0.19258  0.70499  0.91603  1.0000
  C   C374      1.0  0.18506  0.69636  0.90720  1.0000
  H   H452      1.0  0.20561  0.69183  0.85474  1.0000
  H   H453      1.0  0.21884  0.70674  0.87094  1.0000
  H   H454      1.0  0.18884  0.70877  0.93292  1.0000
  H   H455      1.0  0.17568  0.69359  0.91732  1.0000
  C   C375      1.0  0.21550  0.67509  0.80338  1.0000
  C   C376      1.0  0.20468  0.73861  0.85278  1.0000
  H   H456      1.0  0.09506  0.67989  0.90663  1.0000
  C   C377      1.0  0.21398  0.74938  0.80361  1.0000
  H   H457      1.0  0.23046  0.69317  0.67246  1.0000
  C   C378      1.0  0.22392  0.73729  0.83042  1.0000
  C   C379      1.0  0.23747  0.73189  0.51319  1.0000
  H   H458      1.0  0.23055  0.73796  0.81028  1.0000
  C   C380      1.0  0.21869  0.68691  0.78779  1.0000
  C   C381      1.0  0.19826  0.70878  0.79168  1.0000
  C   C382      1.0  0.21983  0.67569  0.88379  1.0000
  H   H459      1.0  0.10577  0.67456  0.92273  1.0000
  H   H460      1.0  0.11071  0.68821  0.85818  1.0000
  N   N25       1.0  0.23389  0.68536  0.71277  1.0000
  H   H461      1.0  0.23625  0.67575  0.85600  1.0000
  H   H462      1.0  0.22654  0.70988  0.49366  1.0000
  C   C383      1.0  0.21818  0.70414  0.49427  1.0000
  H   H463      1.0  0.21679  0.68145  0.58016  1.0000
  H   H464      1.0  0.20397  0.67766  0.56746  1.0000
  C   C384      1.0  0.22774  0.68164  0.74395  1.0000
  S   S108      1.0  0.25096  0.74782  0.65400  1.0000
  H   H465      1.0  0.24384  0.75986  0.54535  1.0000
  H   H466      1.0  0.25032  0.69702  0.68469  1.0000
  C   C385      1.0  0.25358  0.67846  0.59828  1.0000
  H   H467      1.0  0.19860  0.67695  0.52514  1.0000
  H   H468      1.0  0.24124  0.67856  0.67730  1.0000
  H   H469      1.0  0.24230  0.77467  0.53622  1.0000
  C   C386      1.0  0.22232  0.67641  0.52793  1.0000
  C   C387      1.0  0.25151  0.72343  0.53367  1.0000
  Fe  Fe53      1.0  0.25352  0.75031  0.90761  1.0000
  S   S109      1.0  0.14359  0.67406  0.88447  1.0000
  H   H470      1.0  0.20300  0.67363  0.91090  1.0000
  C   C388      1.0  0.48144  0.02858  0.09965  1.0000
  H   H471      1.0  0.49944  0.12781  0.13228  1.0000
  C   C389      1.0  0.50235  0.10909  0.24785  1.0000
  H   H472      1.0  0.46583  0.00830  0.13172  1.0000
  S   S110      1.0  0.44427  0.01454  0.14100  1.0000
  H   H473      1.0  0.49919  0.11830  0.31062  1.0000
  C   C390      1.0  0.49707  0.11029  0.27524  1.0000
  H   H474      1.0  0.48289  0.03171  0.11890  1.0000
  H   H475      1.0  0.48967  0.12900  0.19144  1.0000
  C   C391      1.0  0.49830  0.10845  0.00797  1.0000
  H   H476      1.0  0.48778  0.16938  0.44783  1.0000
  Fe  Fe54      1.0  0.49084  0.07481  0.15647  1.0000
  S   S111      1.0  0.48274  0.05452  0.16816  1.0000
  S   S112      1.0  0.48386  0.09085  0.16127  1.0000
  C   C392      1.0  0.47814  0.01230  0.07793  1.0000
  H   H477      1.0  0.47236  0.02916  0.09869  1.0000
  C   C393      1.0  0.45445  0.02560  0.15028  1.0000
  C   C394      1.0  0.46093  0.02270  0.17029  1.0000
  C   C395      1.0  0.46942  0.03166  0.17556  1.0000
  C   C396      1.0  0.47151  0.04371  0.16125  1.0000
  C   C397      1.0  0.46489  0.04665  0.14161  1.0000
  C   C398      1.0  0.45641  0.03767  0.13627  1.0000
  H   H478      1.0  0.45943  0.01353  0.18171  1.0000
  H   H479      1.0  0.47440  0.02923  0.19092  1.0000
  H   H480      1.0  0.46630  0.05584  0.13046  1.0000
  H   H481      1.0  0.45143  0.04009  0.12092  1.0000
  C   C399      1.0  0.48037  0.13234  0.01539  1.0000
  H   H482      1.0  0.49975  0.12024  0.18364  1.0000
  H   H483      1.0  0.49897  0.17787  0.46050  1.0000
  H   H484      1.0  0.49055  0.13723  0.14260  1.0000
  C   C400      1.0  0.50218  0.11740  0.04682  1.0000
  H   H485      1.0  0.47911  0.12281  0.02206  1.0000
  C   C401      1.0  0.49517  0.01617  0.09961  1.0000
  H   H486      1.0  0.47785  0.01112  0.14798  1.0000
  S   S113      1.0  0.49355  0.10041  0.23001  1.0000
  H   H487      1.0  0.48788  0.10571  0.28532  1.0000
  C   C402      1.0  0.49748  0.17220  0.44543  1.0000
  S   S114      1.0  0.50009  0.11705  0.08412  1.0000
  Fe  Fe55      1.0  0.49849  0.10095  0.12080  1.0000
  H   H488      1.0  0.49250  0.09929  0.05342  1.0000
  N   N26       1.0  0.48275  0.01637  0.10128  1.0000
  C   C403      1.0  0.49921  0.12920  0.18602  1.0000
  H   H489      1.0  0.47644  0.15546  0.04329  1.0000
  H   H490      1.0  0.49668  0.02453  0.13507  1.0000
  Fe  Fe56      1.0  0.49744  0.09535  0.18650  1.0000
  H   H491      1.0  0.49151  0.15268  0.42764  1.0000
  H   H492      1.0  0.49413  0.10087  0.00122  1.0000
  C   C404      1.0  0.47898  0.15073  0.02730  1.0000
  C   C405      1.0  0.47718  0.13847  0.03581  1.0000
  C   C406      1.0  0.49737  0.10752  0.03762  1.0000
  H   H493      1.0  0.49668  0.15132  0.16902  1.0000
  C   C407      1.0  0.47528  0.00843  0.12917  1.0000
  C   C408      1.0  0.49638  0.15421  0.48058  1.0000
  C   C409      1.0  0.48924  0.14242  0.48608  1.0000
  H   H494      1.0  0.48775  0.03505  0.08021  1.0000
  H   H495      1.0  0.47336  0.13369  0.05828  1.0000
  H   H496      1.0  0.48784  0.13817  0.46907  1.0000
  C   C410      1.0  0.50093  0.15551  0.42807  1.0000
  C   C411      1.0  0.50348  0.11745  0.28971  1.0000
  H   H497      1.0  0.48353  0.01780  0.05622  1.0000
  N   N27       1.0  0.50236  0.16177  0.45102  1.0000
  H   H498      1.0  0.46886  0.01290  0.07956  1.0000
  C   C412      1.0  0.48416  0.15695  0.99838  1.0000
  C   C413      1.0  0.50150  0.01085  0.08031  1.0000
  C   C414      1.0  0.49987  0.13673  0.13639  1.0000
  H   H499      1.0  0.50168  0.17797  0.42311  1.0000
  S   S115      1.0  0.50335  0.07887  0.18425  1.0000
  H   H500      1.0  0.50311  0.04933  0.22884  1.0000
  C   C415      1.0  0.50109  0.02083  0.11888  1.0000
  H   H501      1.0  0.48542  0.16644  0.99336  1.0000
  H   H502      1.0  0.50193  0.00809  0.30274  1.0000
  H   H503      1.0  0.50237  0.13045  0.20533  1.0000
  H   H504      1.0  0.49783  0.06079  0.26323  1.0000
  S   S116      1.0  0.50367  0.12131  0.44465  1.0000
  H   H505      1.0  0.49764  0.00677  0.06541  1.0000
  H   H506      1.0  0.49383  0.15486  0.55157  1.0000
  C   C416      1.0  0.49764  0.15860  0.50504  1.0000
  Fe  Fe57      1.0  0.49826  0.10341  0.61761  1.0000
  H   H507      1.0  0.50275  0.16752  0.50260  1.0000
  S   S117      1.0  0.44997  0.01737  0.62546  1.0000
  C   C417      1.0  0.49620  0.03424  0.67413  1.0000
  C   C418      1.0  0.44316  0.04404  0.70823  1.0000
  H   H508      1.0  0.47912  0.12628  0.51802  1.0000
  H   H509      1.0  0.48801  0.02701  0.67842  1.0000
  C   C419      1.0  0.43486  0.02435  0.74026  1.0000
  C   C420      1.0  0.50258  0.11849  0.54082  1.0000
  Fe  Fe58      1.0  0.48980  0.07782  0.65671  1.0000
  S   S118      1.0  0.47884  0.05819  0.67189  1.0000
  S   S119      1.0  0.48338  0.09434  0.65828  1.0000
  H   H510      1.0  0.48772  0.03330  0.62837  1.0000
  H   H511      1.0  0.44205  0.04582  0.66437  1.0000
  C   C421      1.0  0.45859  0.02847  0.63800  1.0000
  C   C422      1.0  0.46148  0.02592  0.66452  1.0000
  C   C423      1.0  0.46741  0.03515  0.67468  1.0000
  C   C424      1.0  0.47098  0.04703  0.65810  1.0000
  C   C425      1.0  0.46837  0.04955  0.63123  1.0000
  C   C426      1.0  0.46209  0.04036  0.62148  1.0000
  H   H512      1.0  0.45885  0.01687  0.67757  1.0000
  H   H513      1.0  0.46924  0.03308  0.69563  1.0000
  H   H514      1.0  0.47100  0.05860  0.61815  1.0000
  H   H515      1.0  0.45989  0.04248  0.60098  1.0000
  N   N28       1.0  0.49378  0.15722  0.94660  1.0000
  C   C427      1.0  0.43982  0.03984  0.68573  1.0000
  H   H516      1.0  0.49812  0.01884  0.64054  1.0000
  H   H517      1.0  0.44324  0.03968  0.75293  1.0000
  C   C428      1.0  0.48581  0.13988  0.53778  1.0000
  C   C429      1.0  0.49249  0.15148  0.53317  1.0000
  C   C430      1.0  0.43172  0.01966  0.71754  1.0000
  H   H518      1.0  0.48694  0.10674  0.78546  1.0000
  S   S120      1.0  0.49259  0.10420  0.72729  1.0000
  C   C431      1.0  0.49688  0.10885  0.53206  1.0000
  C   C432      1.0  0.43420  0.02785  0.69012  1.0000
  H   H519      1.0  0.44795  0.05326  0.70433  1.0000
  H   H520      1.0  0.43231  0.02519  0.67132  1.0000
  N   N29       1.0  0.50342  0.03687  0.64402  1.0000
  H   H521      1.0  0.49326  0.04841  0.62799  1.0000
  H   H522      1.0  0.48791  0.13326  0.97157  1.0000
  C   C433      1.0  0.44058  0.03634  0.73552  1.0000
  H   H523      1.0  0.49145  0.10092  0.54815  1.0000
  H   H524      1.0  0.47791  0.15300  0.93229  1.0000
  C   C434      1.0  0.48722  0.15242  0.92696  1.0000
  H   H525      1.0  0.48645  0.17235  0.94380  1.0000
  Fe  Fe59      1.0  0.49678  0.09908  0.68386  1.0000
  H   H526      1.0  0.50097  0.03129  0.69029  1.0000
  N   N30       1.0  0.42632  0.00679  0.72273  1.0000
  C   C435      1.0  0.49603  0.04037  0.62448  1.0000
  C   C436      1.0  0.49588  0.11212  0.77537  1.0000
  H   H527      1.0  0.48218  0.13423  0.55957  1.0000
  H   H528      1.0  0.40862  0.00833  0.73638  1.0000
  S   S121      1.0  0.50039  0.11856  0.57792  1.0000
  C   C437      1.0  0.50215  0.11852  0.79149  1.0000
  C   C438      1.0  0.50103  0.11257  0.74640  1.0000
  H   H529      1.0  0.43312  0.01871  0.76175  1.0000
  H   H530      1.0  0.50078  0.04212  0.60139  1.0000
  H   H531      1.0  0.49362  0.04224  0.67879  1.0000
  S   S122      1.0  0.50230  0.08216  0.68446  1.0000
  H   H532      1.0  0.49269  0.10243  0.49610  1.0000
  C   C439      1.0  0.49758  0.10975  0.50249  1.0000
  H   H533      1.0  0.48704  0.14297  0.92798  1.0000
  S   S123      1.0  0.50211  0.00803  0.71321  1.0000
  C   C440      1.0  0.48764  0.15095  0.97706  1.0000
  H   H534      1.0  0.49137  0.15734  0.90392  1.0000
  H   H535      1.0  0.41817  0.00760  0.68699  1.0000
  C   C441      1.0  0.48408  0.13542  0.51431  1.0000
  H   H536      1.0  0.49800  0.11801  0.81367  1.0000
  C   C442      1.0  0.49516  0.17024  0.93983  1.0000
  H   H537      1.0  0.50067  0.17458  0.95253  1.0000
  H   H538      1.0  0.49981  0.17462  0.91667  1.0000
  C   C443      1.0  0.48544  0.13843  0.98645  1.0000
  Fe  Fe60      1.0  0.44465  0.53313  0.15928  1.0000
  S   S124      1.0  0.42830  0.54019  0.16270  1.0000
  S   S125      1.0  0.44605  0.51434  0.17617  1.0000
  Fe  Fe61      1.0  0.46118  0.55732  0.13713  1.0000
  S   S126      1.0  0.44670  0.56622  0.13752  1.0000
  S   S127      1.0  0.48004  0.56778  0.12662  1.0000
  Fe  Fe62      1.0  0.43798  0.55395  0.18151  1.0000
  S   S128      1.0  0.43170  0.56497  0.21190  1.0000
  Fe  Fe63      1.0  0.43802  0.55221  0.11838  1.0000
  S   S129      1.0  0.43008  0.56138  0.08397  1.0000
  S   S130      1.0  0.45321  0.54583  0.18189  1.0000
  S   S131      1.0  0.45371  0.54432  0.11401  1.0000
  H   H539      1.0  0.28645  0.60646  0.99222  1.0000
  H   H540      1.0  0.29985  0.64253  0.18056  1.0000
  H   H541      1.0  0.49385  0.60507  0.30402  1.0000
  H   H542      1.0  0.28574  0.64410  0.29336  1.0000
  C   C444      1.0  0.37285  0.59116  0.48497  1.0000
  C   C445      1.0  0.45408  0.56444  0.33483  1.0000
  C   C446      1.0  0.49478  0.58478  0.17917  1.0000
  H   H543      1.0  0.49103  0.61691  0.11598  1.0000
  S   S132      1.0  0.48537  0.65190  0.42629  1.0000
  S   S133      1.0  0.45383  0.63342  0.46851  1.0000
  Fe  Fe64      1.0  0.41650  0.56748  0.37817  1.0000
  S   S134      1.0  0.42058  0.58718  0.36045  1.0000
  S   S135      1.0  0.42042  0.55502  0.34967  1.0000
  Fe  Fe65      1.0  0.41123  0.56920  0.44179  1.0000
  S   S136      1.0  0.41503  0.58897  0.42773  1.0000
  H   H544      1.0  0.46683  0.58891  0.12674  1.0000
  Fe  Fe66      1.0  0.40458  0.58628  0.39520  1.0000
  S   S137      1.0  0.39379  0.59970  0.38751  1.0000
  Fe  Fe67      1.0  0.43040  0.58810  0.39466  1.0000
  S   S138      1.0  0.44892  0.59918  0.38647  1.0000
  S   S139      1.0  0.39962  0.56632  0.41107  1.0000
  S   S140      1.0  0.42745  0.56853  0.41059  1.0000
  C   C447      1.0  0.49721  0.53100  0.17143  1.0000
  S   S141      1.0  0.35182  0.65476  0.14559  1.0000
  H   H545      1.0  0.28099  0.61905  0.05388  1.0000
  Fe  Fe68      1.0  0.32220  0.66294  0.14666  1.0000
  S   S142      1.0  0.32398  0.64453  0.14744  1.0000
  H   H546      1.0  0.26713  0.64409  0.19950  1.0000
  Fe  Fe69      1.0  0.33455  0.64752  0.17961  1.0000
  S   S143      1.0  0.32994  0.63263  0.22015  1.0000
  Fe  Fe70      1.0  0.34085  0.65342  0.11330  1.0000
  S   S144      1.0  0.34753  0.64782  0.07257  1.0000
  S   S145      1.0  0.33157  0.66533  0.18114  1.0000
  C   C448      1.0  0.28656  0.57682  0.38930  1.0000
  Fe  Fe71      1.0  0.32987  0.63221  0.37847  1.0000
  S   S146      1.0  0.31992  0.61317  0.38632  1.0000
  S   S147      1.0  0.33775  0.64582  0.33556  1.0000
  Fe  Fe72      1.0  0.32854  0.63037  0.44241  1.0000
  S   S148      1.0  0.31836  0.61123  0.45552  1.0000
  H   H547      1.0  0.27096  0.64261  0.02423  1.0000
  Fe  Fe73      1.0  0.33117  0.60943  0.41707  1.0000
  S   S149      1.0  0.33815  0.59308  0.41946  1.0000
  Fe  Fe74      1.0  0.30787  0.61649  0.42381  1.0000
  C   C449      1.0  0.46406  0.57595  0.03855  1.0000
  S   S150      1.0  0.34211  0.62824  0.40616  1.0000
  S   S151      1.0  0.31706  0.63586  0.41379  1.0000
  C   C450      1.0  0.26669  0.57704  0.43031  1.0000
  C   C451      1.0  0.27408  0.64105  0.00326  1.0000
  S   S152      1.0  0.28781  0.60972  0.43940  1.0000
  H   H548      1.0  0.39737  0.59753  0.46755  1.0000
  C   C452      1.0  0.28367  0.64558  0.10161  1.0000
  C   C453      1.0  0.48289  0.53799  0.14657  1.0000
  C   C454      1.0  0.27785  0.60850  0.41708  1.0000
  H   H549      1.0  0.31187  0.65541  0.10626  1.0000
  H   H550      1.0  0.47084  0.62053  0.12625  1.0000
  H   H551      1.0  0.27632  0.61547  0.99393  1.0000
  C   C455      1.0  0.27310  0.60621  0.37204  1.0000
  C   C456      1.0  0.28151  0.60829  0.38818  1.0000
  S   S153      1.0  0.30444  0.66678  0.15106  1.0000
  H   H552      1.0  0.50241  0.45158  0.29634  1.0000
  H   H553      1.0  0.27594  0.60557  0.35010  1.0000
  H   H554      1.0  0.29075  0.60929  0.37857  1.0000
  C   C457      1.0  0.33769  0.64165  0.05369  1.0000
  C   C458      1.0  0.32559  0.63708  0.06664  1.0000
  C   C459      1.0  0.31810  0.63168  0.05157  1.0000
  C   C460      1.0  0.32258  0.63093  0.02333  1.0000
  C   C461      1.0  0.33461  0.63579  0.01004  1.0000
  C   C462      1.0  0.34216  0.64099  0.02532  1.0000
  H   H555      1.0  0.32204  0.63756  0.08841  1.0000
  H   H556      1.0  0.26282  0.60707  0.45165  1.0000
  S   S154      1.0  0.47600  0.64778  0.01097  1.0000
  H   H557      1.0  0.35149  0.64466  0.01505  1.0000
  C   C463      1.0  0.33180  0.63652  0.25219  1.0000
  C   C464      1.0  0.32818  0.62767  0.27826  1.0000
  C   C465      1.0  0.32973  0.63047  0.30406  1.0000
  C   C466      1.0  0.33503  0.64213  0.30389  1.0000
  C   C467      1.0  0.33859  0.65099  0.27784  1.0000
  C   C468      1.0  0.33693  0.64821  0.25208  1.0000
  H   H558      1.0  0.32421  0.61862  0.27846  1.0000
  H   H559      1.0  0.32692  0.62358  0.32395  1.0000
  H   H560      1.0  0.34275  0.66001  0.27751  1.0000
  H   H561      1.0  0.33986  0.65509  0.23209  1.0000
  C   C469      1.0  0.29658  0.65874  0.13173  1.0000
  H   H562      1.0  0.28153  0.63124  0.44097  1.0000
  C   C470      1.0  0.50154  0.52774  0.19607  1.0000
  C   C471      1.0  0.26537  0.64660  0.25342  1.0000
  C   C472      1.0  0.27794  0.65052  0.12210  1.0000
  C   C473      1.0  0.28437  0.65703  0.13725  1.0000
  H   H563      1.0  0.45450  0.62010  0.05043  1.0000
  C   C474      1.0  0.45098  0.61305  0.07020  1.0000
  H   H564      1.0  0.26860  0.64941  0.12625  1.0000
  H   H565      1.0  0.31699  0.57720  0.41019  1.0000
  C   C475      1.0  0.46977  0.59802  0.12953  1.0000
  S   S155      1.0  0.49155  0.62884  0.05849  1.0000
  C   C476      1.0  0.37828  0.59734  0.39791  1.0000
  C   C477      1.0  0.37373  0.60722  0.39882  1.0000
  C   C478      1.0  0.36148  0.60594  0.40585  1.0000
  C   C479      1.0  0.35362  0.59479  0.41156  1.0000
  C   C480      1.0  0.35814  0.58484  0.41106  1.0000
  C   C481      1.0  0.37043  0.58610  0.40435  1.0000
  H   H566      1.0  0.37974  0.61592  0.39431  1.0000
  H   H567      1.0  0.35813  0.61356  0.40722  1.0000
  H   H568      1.0  0.35212  0.57615  0.41558  1.0000
  H   H569      1.0  0.37384  0.57843  0.40348  1.0000
  C   C482      1.0  0.45232  0.62357  0.44660  1.0000
  C   C483      1.0  0.46166  0.61884  0.43686  1.0000
  C   C484      1.0  0.46033  0.61084  0.41962  1.0000
  C   C485      1.0  0.44986  0.60794  0.41110  1.0000
  C   C486      1.0  0.44054  0.61271  0.42072  1.0000
  C   C487      1.0  0.44171  0.62039  0.43881  1.0000
  H   H570      1.0  0.46987  0.62127  0.44276  1.0000
  H   H571      1.0  0.46750  0.60703  0.41264  1.0000
  H   H572      1.0  0.43257  0.61083  0.41345  1.0000
  H   H573      1.0  0.43452  0.62413  0.44612  1.0000
  H   H574      1.0  0.45290  0.57274  0.28183  1.0000
  H   H575      1.0  0.47980  0.64997  0.35595  1.0000
  S   S156      1.0  0.27573  0.63722  0.08277  1.0000
  C   C488      1.0  0.26609  0.57739  0.40203  1.0000
  H   H576      1.0  0.47376  0.58909  0.39155  1.0000
  C   C489      1.0  0.38278  0.57785  0.46459  1.0000
  C   C490      1.0  0.27082  0.61831  0.23125  1.0000
  C   C491      1.0  0.47370  0.57906  0.19968  1.0000
  H   H577      1.0  0.47902  0.62925  0.37936  1.0000
  C   C492      1.0  0.27717  0.57652  0.43833  1.0000
  C   C493      1.0  0.42509  0.55740  0.05447  1.0000
  C   C494      1.0  0.42035  0.56533  0.03782  1.0000
  H   H578      1.0  0.29319  0.64388  0.21547  1.0000
  H   H579      1.0  0.28010  0.64608  0.43638  1.0000
  C   C495      1.0  0.42353  0.54514  0.02043  1.0000
  C   C496      1.0  0.42662  0.54724  0.04570  1.0000
  H   H580      1.0  0.41887  0.57308  0.04468  1.0000
  C   C497      1.0  0.27767  0.64181  0.28649  1.0000
  H   H581      1.0  0.49151  0.60298  0.35640  1.0000
  H   H582      1.0  0.43024  0.54104  0.05826  1.0000
  C   C498      1.0  0.42873  0.56200  0.25021  1.0000
  C   C499      1.0  0.43002  0.55166  0.26727  1.0000
  C   C500      1.0  0.42740  0.54966  0.29762  1.0000
  C   C501      1.0  0.42350  0.55796  0.31131  1.0000
  C   C502      1.0  0.42234  0.56836  0.29421  1.0000
  C   C503      1.0  0.42496  0.57036  0.26388  1.0000
  H   H583      1.0  0.43289  0.54513  0.25711  1.0000
  H   H584      1.0  0.42830  0.54156  0.31060  1.0000
  H   H585      1.0  0.41926  0.57480  0.30436  1.0000
  H   H586      1.0  0.42387  0.57836  0.25094  1.0000
  C   C504      1.0  0.45789  0.50899  0.16045  1.0000
  C   C505      1.0  0.46383  0.51340  0.13122  1.0000
  C   C506      1.0  0.47323  0.50902  0.11937  1.0000
  C   C507      1.0  0.47700  0.50041  0.13670  1.0000
  C   C508      1.0  0.47108  0.49599  0.16597  1.0000
  C   C509      1.0  0.46139  0.50008  0.17761  1.0000
  H   H587      1.0  0.46107  0.52007  0.11763  1.0000
  H   H588      1.0  0.47764  0.51236  0.09661  1.0000
  H   H589      1.0  0.47378  0.48923  0.17946  1.0000
  H   H590      1.0  0.45674  0.49650  0.20017  1.0000
  C   C510      1.0  0.48188  0.57418  0.15524  1.0000
  C   C511      1.0  0.47210  0.57394  0.17685  1.0000
  H   H591      1.0  0.44928  0.59172  0.31651  1.0000
  C   C512      1.0  0.44713  0.58206  0.32678  1.0000
  H   H592      1.0  0.46327  0.57000  0.17589  1.0000
  C   C513      1.0  0.29592  0.64733  0.09602  1.0000
  H   H593      1.0  0.46185  0.56066  0.33202  1.0000
  N   N31       1.0  0.26294  0.65458  0.22916  1.0000
  H   H594      1.0  0.42782  0.58882  0.10173  1.0000
  S   S157      1.0  0.49946  0.46628  0.15600  1.0000
  H   H595      1.0  0.47918  0.59325  0.28651  1.0000
  N   N32       1.0  0.45953  0.60250  0.14009  1.0000
  N   N33       1.0  0.36583  0.62996  0.32133  1.0000
  C   C514      1.0  0.37481  0.62332  0.31513  1.0000
  C   C515      1.0  0.36833  0.63580  0.34437  1.0000
  C   C516      1.0  0.35403  0.62134  0.33314  1.0000
  C   C517      1.0  0.36611  0.63847  0.29432  1.0000
  C   C518      1.0  0.36306  0.63430  0.27085  1.0000
  C   C519      1.0  0.36977  0.65100  0.29001  1.0000
  C   C520      1.0  0.36345  0.64216  0.24500  1.0000
  C   C521      1.0  0.37028  0.65877  0.26392  1.0000
  C   C522      1.0  0.36707  0.65436  0.24152  1.0000
  H   H596      1.0  0.37302  0.61799  0.29954  1.0000
  H   H597      1.0  0.38381  0.62947  0.30575  1.0000
  H   H598      1.0  0.37508  0.61699  0.33506  1.0000
  H   H599      1.0  0.36182  0.64096  0.34989  1.0000
  H   H600      1.0  0.37741  0.64179  0.33796  1.0000
  H   H601      1.0  0.36776  0.62923  0.36462  1.0000
  H   H602      1.0  0.35178  0.61573  0.31845  1.0000
  H   H603      1.0  0.35345  0.61509  0.35399  1.0000
  H   H604      1.0  0.34699  0.62599  0.33716  1.0000
  H   H605      1.0  0.36025  0.62494  0.27232  1.0000
  H   H606      1.0  0.37215  0.65508  0.30652  1.0000
  H   H607      1.0  0.36069  0.63877  0.22774  1.0000
  H   H608      1.0  0.48107  0.52999  0.13824  1.0000
  C   C523      1.0  0.47067  0.57658  0.05899  1.0000
  C   C524      1.0  0.29647  0.56421  0.44767  1.0000
  H   H609      1.0  0.38638  0.58448  0.44338  1.0000
  C   C525      1.0  0.47490  0.45902  0.07349  1.0000
  N   N34       1.0  0.27250  0.63506  0.47966  1.0000
  N   N35       1.0  0.48269  0.46120  0.09292  1.0000
  H   H610      1.0  0.45018  0.58497  0.16765  1.0000
  C   C526      1.0  0.44039  0.60468  0.07394  1.0000
  H   H611      1.0  0.44428  0.59682  0.17677  1.0000
  C   C527      1.0  0.45267  0.60333  0.11802  1.0000
  C   C528      1.0  0.41760  0.56342  0.01213  1.0000
  H   H612      1.0  0.48589  0.48033  0.07797  1.0000
  C   C529      1.0  0.44187  0.59488  0.12104  1.0000
  H   H613      1.0  0.49632  0.45394  0.10666  1.0000
  H   H614      1.0  0.33569  0.58568  0.04188  1.0000
  C   C530      1.0  0.25989  0.64799  0.20780  1.0000
  C   C531      1.0  0.30173  0.58537  0.44176  1.0000
  H   H615      1.0  0.43742  0.58825  0.99927  1.0000
  H   H616      1.0  0.26748  0.61839  0.04364  1.0000
  S   S158      1.0  0.48691  0.59123  0.22917  1.0000
  H   H617      1.0  0.46850  0.47541  0.10922  1.0000
  H   H618      1.0  0.50353  0.58879  0.17992  1.0000
  C   C532      1.0  0.27599  0.57728  0.38159  1.0000
  C   C533      1.0  0.49956  0.62314  0.10707  1.0000
  H   H619      1.0  0.47424  0.61745  0.36289  1.0000
  C   C534      1.0  0.46844  0.46820  0.12667  1.0000
  H   H620      1.0  0.33474  0.61391  0.99735  1.0000
  C   C535      1.0  0.48506  0.58460  0.20077  1.0000
  N   N36       1.0  0.34542  0.60253  0.01188  1.0000
  H   H621      1.0  0.45672  0.47402  0.15706  1.0000
  C   C536      1.0  0.47667  0.63137  0.31067  1.0000
  H   H622      1.0  0.28105  0.66229  0.20404  1.0000
  C   C537      1.0  0.46727  0.58384  0.32922  1.0000
  H   H623      1.0  0.28736  0.63038  0.16149  1.0000
  H   H624      1.0  0.48487  0.44337  0.09896  1.0000
  C   C538      1.0  0.26636  0.58741  0.01717  1.0000
  H   H625      1.0  0.46964  0.46565  0.07108  1.0000
  H   H626      1.0  0.25675  0.63359  0.00019  1.0000
  H   H627      1.0  0.28955  0.61222  0.25277  1.0000
  H   H628      1.0  0.29674  0.61032  0.20220  1.0000
  H   H629      1.0  0.45695  0.62463  0.35826  1.0000
  H   H630      1.0  0.27501  0.58680  0.00676  1.0000
  H   H631      1.0  0.49328  0.64482  0.28718  1.0000
  H   H632      1.0  0.45609  0.45811  0.19900  1.0000
  H   H633      1.0  0.48007  0.45952  0.05141  1.0000
  H   H634      1.0  0.30766  0.64134  0.20800  1.0000
  N   N37       1.0  0.29326  0.62601  0.21353  1.0000
  C   C539      1.0  0.48828  0.63336  0.26151  1.0000
  C   C540      1.0  0.28130  0.62346  0.20847  1.0000
  C   C541      1.0  0.27986  0.62620  0.17993  1.0000
  H   H635      1.0  0.50068  0.59647  0.04247  1.0000
  H   H636      1.0  0.47197  0.56854  0.07141  1.0000
  H   H637      1.0  0.48878  0.62709  0.34901  1.0000
  C   C542      1.0  0.28748  0.57649  0.41801  1.0000
  H   H638      1.0  0.26799  0.60796  0.07548  1.0000
  H   H639      1.0  0.47464  0.54099  0.14931  1.0000
  H   H640      1.0  0.48188  0.62029  0.23990  1.0000
  C   C543      1.0  0.48489  0.59763  0.34886  1.0000
  H   H641      1.0  0.36538  0.65864  0.40316  1.0000
  H   H642      1.0  0.30877  0.62802  0.06190  1.0000
  H   H643      1.0  0.44722  0.55918  0.32666  1.0000
  N   N38       1.0  0.47513  0.63487  0.33833  1.0000
  H   H644      1.0  0.44570  0.59887  0.01366  1.0000
  H   H645      1.0  0.49631  0.47553  0.09580  1.0000
  H   H646      1.0  0.49030  0.54517  0.20541  1.0000
  N   N39       1.0  0.27564  0.60450  0.03504  1.0000
  H   H647      1.0  0.46471  0.60940  0.28098  1.0000
  C   C544      1.0  0.27284  0.61278  0.05280  1.0000
  C   C545      1.0  0.26507  0.59596  0.03314  1.0000
  H   H648      1.0  0.42889  0.55791  0.47749  1.0000
  H   H649      1.0  0.27535  0.67091  0.22752  1.0000
  H   H650      1.0  0.35564  0.60743  0.04114  1.0000
  C   C546      1.0  0.49069  0.47334  0.08107  1.0000
  H   H651      1.0  0.28942  0.61924  0.00589  1.0000
  H   H652      1.0  0.29141  0.60443  0.04990  1.0000
  H   H653      1.0  0.46041  0.56719  0.03634  1.0000
  H   H654      1.0  0.33805  0.63567  0.98793  1.0000
  H   H655      1.0  0.42463  0.53720  0.01397  1.0000
  C   C547      1.0  0.36769  0.61026  0.47919  1.0000
  C   C548      1.0  0.47531  0.46006  0.12213  1.0000
  Fe  Fe75      1.0  0.25614  0.63495  0.09471  1.0000
  S   S159      1.0  0.33821  0.67169  0.10984  1.0000
  C   C549      1.0  0.46032  0.57812  0.28811  1.0000
  H   H656      1.0  0.25833  0.65386  0.18889  1.0000
  C   C550      1.0  0.48037  0.62341  0.25935  1.0000
  H   H657      1.0  0.46826  0.61375  0.16333  1.0000
  H   H658      1.0  0.35150  0.65735  0.37203  1.0000
  C   C551      1.0  0.47071  0.61727  0.28253  1.0000
  H   H659      1.0  0.43568  0.60527  0.05717  1.0000
  H   H660      1.0  0.28697  0.59254  0.03438  1.0000
  C   C552      1.0  0.45258  0.59439  0.16856  1.0000
  H   H661      1.0  0.46136  0.63699  0.37163  1.0000
  C   C553      1.0  0.47945  0.62682  0.35839  1.0000
  H   H662      1.0  0.49596  0.45409  0.07035  1.0000
  H   H663      1.0  0.30742  0.56990  0.39197  1.0000
  H   H664      1.0  0.47537  0.60373  0.10825  1.0000
  C   C554      1.0  0.30878  0.57726  0.40278  1.0000
  N   N40       1.0  0.45747  0.57725  0.31964  1.0000
  C   C555      1.0  0.46395  0.61434  0.14510  1.0000
  H   H665      1.0  0.47551  0.59765  0.14483  1.0000
  C   C556      1.0  0.28348  0.59812  0.04786  1.0000
  C   C557      1.0  0.48178  0.64727  0.33531  1.0000
  C   C558      1.0  0.41914  0.55328  0.00331  1.0000
  H   H666      1.0  0.43930  0.58398  0.03523  1.0000
  C   C559      1.0  0.28224  0.61171  0.00556  1.0000
  C   C560      1.0  0.45112  0.57419  0.99571  1.0000
  H   H667      1.0  0.26785  0.62550  0.15241  1.0000
  Fe  Fe76      1.0  0.50087  0.48586  0.14097  1.0000
  H   H668      1.0  0.46488  0.60532  0.01867  1.0000
  H   H669      1.0  0.46554  0.61877  0.08702  1.0000
  H   H670      1.0  0.43786  0.58757  0.14000  1.0000
  H   H671      1.0  0.27097  0.61604  0.25367  1.0000
  H   H672      1.0  0.44394  0.58087  0.35043  1.0000
  C   C561      1.0  0.48619  0.59874  0.31941  1.0000
  C   C562      1.0  0.48834  0.54644  0.18393  1.0000
  H   H673      1.0  0.46610  0.57881  0.21635  1.0000
  H   H674      1.0  0.29383  0.55681  0.43763  1.0000
  Fe  Fe77      1.0  0.49176  0.66302  0.45508  1.0000
  H   H675      1.0  0.29237  0.64769  0.00205  1.0000
  H   H676      1.0  0.26754  0.63396  0.43998  1.0000
  C   C563      1.0  0.48654  0.63731  0.28673  1.0000
  C   C564      1.0  0.29339  0.62197  0.24426  1.0000
  Fe  Fe78      1.0  0.47285  0.64029  0.46755  1.0000
  Fe  Fe79      1.0  0.49787  0.64112  0.43766  1.0000
  H   H677      1.0  0.45005  0.56271  0.35834  1.0000
  C   C565      1.0  0.49322  0.57953  0.15659  1.0000
  C   C566      1.0  0.26579  0.60706  0.42927  1.0000
  H   H678      1.0  0.45660  0.61857  0.15017  1.0000
  C   C567      1.0  0.47760  0.59190  0.30959  1.0000
  C   C568      1.0  0.46159  0.46745  0.15407  1.0000
  H   H679      1.0  0.47567  0.51745  0.19080  1.0000
  C   C569      1.0  0.27555  0.63667  0.44791  1.0000
  C   C570      1.0  0.26102  0.60460  0.38443  1.0000
  C   C571      1.0  0.26890  0.63155  0.30221  1.0000
  H   H680      1.0  0.31069  0.58589  0.38650  1.0000
  H   H681      1.0  0.28538  0.67081  0.07422  1.0000
  H   H682      1.0  0.27873  0.59226  0.06970  1.0000
  H   H683      1.0  0.43955  0.57754  0.31968  1.0000
  H   H684      1.0  0.25802  0.57809  0.39575  1.0000
  H   H685      1.0  0.29131  0.62519  0.47532  1.0000
  C   C572      1.0  0.47537  0.58744  0.06410  1.0000
  C   C573      1.0  0.30238  0.65392  0.11106  1.0000
  H   H686      1.0  0.33988  0.60401  0.05562  1.0000
  C   C574      1.0  0.35993  0.66400  0.36445  1.0000
  C   C575      1.0  0.34719  0.60816  0.03567  1.0000
  H   H687      1.0  0.45765  0.59447  0.18528  1.0000
  H   H688      1.0  0.30975  0.62144  0.20077  1.0000
  C   C576      1.0  0.25969  0.61583  0.22551  1.0000
  C   C577      1.0  0.46124  0.45851  0.17769  1.0000
  H   H689      1.0  0.44921  0.59961  0.48521  1.0000
  H   H690      1.0  0.34745  0.61774  0.03010  1.0000
  S   S160      1.0  0.48861  0.49497  0.12018  1.0000
  H   H691      1.0  0.27099  0.67069  0.19498  1.0000
  C   C578      1.0  0.49023  0.45276  0.09237  1.0000
  H   H692      1.0  0.29535  0.58415  0.46274  1.0000
  H   H693      1.0  0.28851  0.62660  0.25813  1.0000
  H   H694      1.0  0.27988  0.66079  0.15313  1.0000
  H   H695      1.0  0.49147  0.64844  0.32982  1.0000
  H   H696      1.0  0.48975  0.54524  0.12975  1.0000
  C   C579      1.0  0.30079  0.62005  0.19665  1.0000
  H   H697      1.0  0.46779  0.52837  0.19577  1.0000
  H   H698      1.0  0.48035  0.54993  0.18595  1.0000
  C   C580      1.0  0.36779  0.66474  0.38189  1.0000
  C   C581      1.0  0.27307  0.66501  0.21338  1.0000
  C   C582      1.0  0.46668  0.59720  0.02880  1.0000
  H   H699      1.0  0.47960  0.65364  0.31853  1.0000
  H   H700      1.0  0.37301  0.66828  0.26121  1.0000
  H   H701      1.0  0.49664  0.47437  0.05957  1.0000
  H   H702      1.0  0.28310  0.65712  0.25147  1.0000
  H   H703      1.0  0.45842  0.57742  0.37527  1.0000
  C   C583      1.0  0.25865  0.61835  0.19719  1.0000
  H   H704      1.0  0.46175  0.61549  0.32590  1.0000
  H   H705      1.0  0.47740  0.52521  0.21804  1.0000
  H   H706      1.0  0.49844  0.61003  0.00458  1.0000
  H   H707      1.0  0.30258  0.62389  0.24701  1.0000
  N   N41       1.0  0.48643  0.53537  0.17410  1.0000
  C   C584      1.0  0.45715  0.61231  0.09163  1.0000
  C   C585      1.0  0.46199  0.58633  0.02252  1.0000
  H   H708      1.0  0.30232  0.62349  0.17296  1.0000
  C   C586      1.0  0.43592  0.59553  0.09914  1.0000
  H   H709      1.0  0.46822  0.57484  0.28124  1.0000
  C   C587      1.0  0.47342  0.59775  0.04898  1.0000
  H   H710      1.0  0.47932  0.44419  0.14540  1.0000
  C   C588      1.0  0.47494  0.58973  0.36864  1.0000
  H   H711      1.0  0.38902  0.57220  0.46662  1.0000
  H   H712      1.0  0.47692  0.60619  0.05329  1.0000
  C   C589      1.0  0.46624  0.58297  0.35906  1.0000
  S   S161      1.0  0.33410  0.64238  0.47059  1.0000
  H   H713      1.0  0.49577  0.55354  0.16829  1.0000
  S   S162      1.0  0.31276  0.62374  0.00583  1.0000
  C   C590      1.0  0.46897  0.62102  0.30803  1.0000
  S   S163      1.0  0.48475  0.62883  0.47790  1.0000
  C   C591      1.0  0.25744  0.60529  0.41295  1.0000
  C   C592      1.0  0.29870  0.63898  0.20403  1.0000
  H   H714      1.0  0.46739  0.44330  0.19247  1.0000
  H   H715      1.0  0.30044  0.64367  0.07991  1.0000
  C   C593      1.0  0.46252  0.63388  0.35144  1.0000
  H   H716      1.0  0.46855  0.45008  0.08203  1.0000
  H   H717      1.0  0.30208  0.59413  0.42803  1.0000
  Fe  Fe80      1.0  0.49069  0.63881  0.01379  1.0000
  H   H718      1.0  0.49603  0.63792  0.24382  1.0000
  C   C594      1.0  0.25846  0.62864  0.29380  1.0000
  H   H719      1.0  0.46199  0.58737  0.27503  1.0000
  H   H720      1.0  0.31052  0.58589  0.44648  1.0000
  C   C595      1.0  0.34350  0.58953  0.02297  1.0000
  C   C596      1.0  0.33446  0.60440  0.00429  1.0000
  C   C597      1.0  0.47643  0.52625  0.19562  1.0000
  H   H721      1.0  0.35124  0.58741  0.03012  1.0000
  C   C598      1.0  0.27601  0.64925  0.26237  1.0000
  H   H722      1.0  0.45870  0.63918  0.33614  1.0000
  H   H723      1.0  0.36718  0.66042  0.22162  1.0000
  C   C599      1.0  0.46760  0.45018  0.17393  1.0000
  H   H724      1.0  0.32652  0.60038  0.02283  1.0000
  C   C600      1.0  0.25669  0.63604  0.26985  1.0000
  H   H725      1.0  0.48036  0.58780  0.08020  1.0000
  C   C601      1.0  0.36277  0.67200  0.33750  1.0000
  N   N42       1.0  0.29846  0.57586  0.42714  1.0000
  C   C602      1.0  0.47448  0.45082  0.14658  1.0000
  C   C603      1.0  0.26871  0.62355  0.17446  1.0000
  H   H726      1.0  0.35654  0.67145  0.32415  1.0000
  H   H727      1.0  0.27007  0.62590  0.32126  1.0000
  H   H728      1.0  0.25452  0.66364  0.25770  1.0000
  H   H729      1.0  0.29388  0.57687  0.37228  1.0000
  H   H730      1.0  0.50069  0.53131  0.12524  1.0000
  H   H731      1.0  0.30459  0.56333  0.45480  1.0000
  C   C604      1.0  0.44381  0.58944  0.01281  1.0000
  C   C605      1.0  0.37591  0.60361  0.48221  1.0000
  H   H732      1.0  0.25904  0.57746  0.44593  1.0000
  H   H733      1.0  0.26751  0.65160  0.47578  1.0000
  H   H734      1.0  0.34176  0.58476  0.00619  1.0000
  H   H735      1.0  0.41403  0.56964  0.99952  1.0000
  H   H736      1.0  0.46359  0.59774  0.48650  1.0000
  H   H737      1.0  0.45205  0.58566  0.48470  1.0000
  Fe  Fe81      1.0  0.34793  0.67245  0.14450  1.0000
  H   H738      1.0  0.37442  0.57195  0.46377  1.0000
  H   H739      1.0  0.49717  0.52856  0.21691  1.0000
  H   H740      1.0  0.49729  0.47008  0.48472  1.0000
  H   H741      1.0  0.25576  0.63904  0.47904  1.0000
  H   H742      1.0  0.27549  0.57777  0.35950  1.0000
  C   C606      1.0  0.50339  0.52934  0.14506  1.0000
  H   H743      1.0  0.35819  0.57652  0.48600  1.0000
  C   C607      1.0  0.28618  0.64397  0.99074  1.0000
  H   H744      1.0  0.44556  0.56744  0.01553  1.0000
  H   H745      1.0  0.46740  0.67174  0.99644  1.0000
  H   H746      1.0  0.50083  0.57952  0.14040  1.0000
  H   H747      1.0  0.37020  0.61974  0.47707  1.0000
  H   H748      1.0  0.34420  0.58847  0.48011  1.0000
  C   C608      1.0  0.50233  0.63045  0.07885  1.0000
  H   H749      1.0  0.27715  0.57631  0.46052  1.0000
  N   N43       1.0  0.45469  0.58602  0.00144  1.0000
  C   C609      1.0  0.26605  0.63593  0.98923  1.0000
  C   C610      1.0  0.35301  0.59264  0.48124  1.0000
  H   H750      1.0  0.34999  0.61001  0.47596  1.0000
  H   H751      1.0  0.28936  0.56288  0.46749  1.0000
  C   C611      1.0  0.35628  0.60479  0.47868  1.0000
  C   C612      1.0  0.36113  0.58589  0.48438  1.0000
  C   C613      1.0  0.25658  0.57980  0.01315  1.0000
  H   H752      1.0  0.25788  0.57360  0.00009  1.0000
  H   H753      1.0  0.50024  0.58976  0.09283  1.0000
  S   S164      1.0  0.45224  0.62507  0.99123  1.0000
  H   H754      1.0  0.38461  0.60846  0.48215  1.0000
  C   C614      1.0  0.29234  0.63258  0.48503  1.0000
  H   H755      1.0  0.27190  0.61636  0.48728  1.0000
  S   S165      1.0  0.48454  0.62630  0.98789  1.0000
  C   C615      1.0  0.26382  0.64198  0.48655  1.0000
  Fe  Fe82      1.0  0.45941  0.54342  0.65007  1.0000
  S   S166      1.0  0.44039  0.53486  0.65266  1.0000
  S   S167      1.0  0.47560  0.53711  0.65724  1.0000
  Fe  Fe83      1.0  0.45503  0.56824  0.64000  1.0000
  S   S168      1.0  0.43599  0.56185  0.64078  1.0000
  S   S169      1.0  0.46466  0.58736  0.63200  1.0000
  Fe  Fe84      1.0  0.43565  0.54755  0.67934  1.0000
  S   S170      1.0  0.42136  0.54286  0.72184  1.0000
  Fe  Fe85      1.0  0.44220  0.54998  0.61393  1.0000
  S   S171      1.0  0.44000  0.54868  0.56917  1.0000
  S   S172      1.0  0.45442  0.55469  0.67962  1.0000
  S   S173      1.0  0.46146  0.55768  0.61038  1.0000
  C   C616      1.0  0.40145  0.56303  0.74205  1.0000
  H   H756      1.0  0.48527  0.57473  0.66986  1.0000
  H   H757      1.0  0.50264  0.61432  0.56015  1.0000
  H   H758      1.0  0.47360  0.66864  0.89996  1.0000
  H   H759      1.0  0.38917  0.56014  0.78238  1.0000
  H   H760      1.0  0.27258  0.61397  0.63039  1.0000
  C   C617      1.0  0.46092  0.59936  0.55925  1.0000
  H   H761      1.0  0.28621  0.63556  0.92889  1.0000
  H   H762      1.0  0.33687  0.65506  0.51371  1.0000
  H   H763      1.0  0.28266  0.64852  0.67599  1.0000
  Fe  Fe86      1.0  0.42131  0.56883  0.86630  1.0000
  S   S174      1.0  0.41836  0.58691  0.86187  1.0000
  S   S175      1.0  0.43146  0.56601  0.82442  1.0000
  Fe  Fe87      1.0  0.41456  0.56409  0.93286  1.0000
  S   S176      1.0  0.41102  0.58201  0.93236  1.0000
  S   S177      1.0  0.40556  0.56237  0.49105  1.0000
  Fe  Fe88      1.0  0.40175  0.57867  0.89764  1.0000
  S   S178      1.0  0.38743  0.58674  0.88360  1.0000
  Fe  Fe89      1.0  0.42765  0.58875  0.89638  1.0000
  S   S179      1.0  0.44300  0.60479  0.88587  1.0000
  S   S180      1.0  0.40412  0.56016  0.90018  1.0000
  S   S181      1.0  0.43177  0.57125  0.89894  1.0000
  Fe  Fe90      1.0  0.35035  0.65690  0.65503  1.0000
  S   S182      1.0  0.34998  0.63765  0.65932  1.0000
  H   H764      1.0  0.50281  0.67249  0.49214  1.0000
  Fe  Fe91      1.0  0.32381  0.65178  0.66646  1.0000
  S   S183      1.0  0.32144  0.63232  0.67200  1.0000
  C   C618      1.0  0.30074  0.61287  0.75242  1.0000
  Fe  Fe92      1.0  0.33481  0.63428  0.69788  1.0000
  S   S184      1.0  0.33192  0.62028  0.73914  1.0000
  Fe  Fe93      1.0  0.33665  0.63744  0.63270  1.0000
  S   S185      1.0  0.33463  0.62538  0.60230  1.0000
  S   S186      1.0  0.33601  0.65342  0.69544  1.0000
  S   S187      1.0  0.33815  0.65703  0.62512  1.0000
  Fe  Fe94      1.0  0.32330  0.62136  0.89847  1.0000
  S   S188      1.0  0.31594  0.60202  0.90147  1.0000
  S   S189      1.0  0.33071  0.63559  0.85643  1.0000
  Fe  Fe95      1.0  0.31681  0.61810  0.96395  1.0000
  S   S190      1.0  0.30912  0.59864  0.97080  1.0000
  H   H765      1.0  0.49626  0.65162  0.61922  1.0000
  Fe  Fe96      1.0  0.32529  0.59924  0.93714  1.0000
  S   S191      1.0  0.33512  0.58530  0.94945  1.0000
  Fe  Fe97      1.0  0.30060  0.60349  0.93468  1.0000
  S   S192      1.0  0.28055  0.59645  0.94457  1.0000
  S   S193      1.0  0.33349  0.61855  0.93228  1.0000
  S   S194      1.0  0.30746  0.62294  0.92965  1.0000
  S   S195      1.0  0.25521  0.62753  0.59898  1.0000
  Fe  Fe98      1.0  0.26267  0.64716  0.58855  1.0000
  S   S196      1.0  0.28217  0.65584  0.57422  1.0000
  H   H766      1.0  0.43190  0.51466  0.73773  1.0000
  H   H767      1.0  0.43284  0.59245  0.52883  1.0000
  H   H768      1.0  0.27137  0.63495  0.90374  1.0000
  C   C619      1.0  0.27153  0.59756  0.91999  1.0000
  C   C620      1.0  0.27629  0.60169  0.89011  1.0000
  C   C621      1.0  0.26874  0.60237  0.87147  1.0000
  N   N44       1.0  0.36640  0.66116  0.79480  1.0000
  H   H769      1.0  0.27936  0.65345  0.50648  1.0000
  H   H770      1.0  0.29801  0.65943  0.51830  1.0000
  H   H771      1.0  0.28577  0.60410  0.88138  1.0000
  H   H772      1.0  0.33291  0.60040  0.98629  1.0000
  H   H773      1.0  0.35522  0.65030  0.83603  1.0000
  C   C622      1.0  0.48875  0.45169  0.61093  1.0000
  C   C623      1.0  0.33468  0.63032  0.56561  1.0000
  C   C624      1.0  0.33590  0.64224  0.55277  1.0000
  C   C625      1.0  0.33572  0.64578  0.52363  1.0000
  C   C626      1.0  0.36449  0.65578  0.82611  1.0000
  C   C627      1.0  0.33271  0.62547  0.52018  1.0000
  C   C628      1.0  0.33309  0.62196  0.54919  1.0000
  H   H774      1.0  0.33713  0.64876  0.56516  1.0000
  H   H775      1.0  0.28307  0.63227  0.60043  1.0000
  H   H776      1.0  0.49387  0.60199  0.68203  1.0000
  H   H777      1.0  0.33215  0.61271  0.55900  1.0000
  C   C629      1.0  0.33113  0.62460  0.77177  1.0000
  C   C630      1.0  0.32941  0.61599  0.79749  1.0000
  C   C631      1.0  0.32912  0.61923  0.82366  1.0000
  C   C632      1.0  0.33037  0.63109  0.82435  1.0000
  C   C633      1.0  0.33182  0.63965  0.79874  1.0000
  C   C634      1.0  0.33230  0.63644  0.77253  1.0000
  H   H778      1.0  0.32858  0.60681  0.79709  1.0000
  H   H779      1.0  0.32825  0.61258  0.84307  1.0000
  H   H780      1.0  0.33266  0.64881  0.79910  1.0000
  H   H781      1.0  0.33375  0.64319  0.75295  1.0000
  H   H782      1.0  0.40503  0.59837  0.78563  1.0000
  C   C635      1.0  0.36623  0.65610  0.74732  1.0000
  C   C636      1.0  0.30106  0.66176  0.59676  1.0000
  C   C637      1.0  0.28888  0.65670  0.60273  1.0000
  C   C638      1.0  0.28228  0.65190  0.63138  1.0000
  H   H783      1.0  0.45594  0.59438  0.95701  1.0000
  H   H784      1.0  0.37178  0.60099  0.87081  1.0000
  H   H785      1.0  0.29975  0.64419  0.95435  1.0000
  H   H786      1.0  0.29483  0.62785  0.70437  1.0000
  S   S197      1.0  0.50332  0.63281  0.78666  1.0000
  H   H787      1.0  0.46339  0.59148  0.56821  1.0000
  H   H788      1.0  0.42641  0.58544  0.71333  1.0000
  C   C639      1.0  0.37303  0.58632  0.90296  1.0000
  C   C640      1.0  0.36729  0.59451  0.89108  1.0000
  C   C641      1.0  0.35577  0.59443  0.90523  1.0000
  C   C642      1.0  0.34975  0.58596  0.93118  1.0000
  C   C643      1.0  0.35548  0.57774  0.94304  1.0000
  C   C644      1.0  0.36710  0.57798  0.92918  1.0000
  S   S198      1.0  0.41531  0.55024  0.97174  1.0000
  H   H789      1.0  0.35148  0.60080  0.89586  1.0000
  H   H790      1.0  0.35088  0.57111  0.96302  1.0000
  H   H791      1.0  0.37137  0.57158  0.93849  1.0000
  C   C645      1.0  0.44963  0.61954  0.96184  1.0000
  C   C646      1.0  0.43869  0.61178  0.96443  1.0000
  C   C647      1.0  0.43663  0.60705  0.94132  1.0000
  C   C648      1.0  0.44540  0.61030  0.91536  1.0000
  C   C649      1.0  0.45627  0.61814  0.91271  1.0000
  C   C650      1.0  0.45843  0.62264  0.93602  1.0000
  H   H792      1.0  0.31607  0.66558  0.61470  1.0000
  H   H793      1.0  0.42819  0.60105  0.94343  1.0000
  H   H794      1.0  0.46310  0.62066  0.89267  1.0000
  H   H795      1.0  0.49748  0.55254  0.72843  1.0000
  C   C651      1.0  0.49759  0.44840  0.55513  1.0000
  C   C652      1.0  0.28341  0.63869  0.48909  1.0000
  H   H796      1.0  0.28651  0.62444  0.80255  1.0000
  C   C653      1.0  0.49650  0.66339  0.57925  1.0000
  H   H797      1.0  0.29301  0.63449  0.56627  1.0000
  C   C654      1.0  0.50143  0.45404  0.50299  1.0000
  H   H798      1.0  0.38247  0.58255  0.82436  1.0000
  H   H799      1.0  0.31046  0.63410  0.76181  1.0000
  H   H800      1.0  0.48571  0.62318  0.61054  1.0000
  C   C655      1.0  0.37503  0.61888  0.93722  1.0000
  C   C656      1.0  0.43032  0.55287  0.54814  1.0000
  C   C657      1.0  0.43359  0.55398  0.51821  1.0000
  C   C658      1.0  0.43908  0.64305  0.94279  1.0000
  C   C659      1.0  0.41541  0.55906  0.51246  1.0000
  C   C660      1.0  0.41212  0.55798  0.54241  1.0000
  C   C661      1.0  0.41959  0.55503  0.56015  1.0000
  H   H801      1.0  0.44183  0.55225  0.50870  1.0000
  H   H802      1.0  0.46782  0.66897  0.93642  1.0000
  H   H803      1.0  0.40371  0.55932  0.55201  1.0000
  H   H804      1.0  0.41692  0.55414  0.58314  1.0000
  C   C662      1.0  0.42393  0.54936  0.75051  1.0000
  C   C663      1.0  0.43435  0.55798  0.74703  1.0000
  C   C664      1.0  0.43626  0.56308  0.76976  1.0000
  C   C665      1.0  0.42781  0.55969  0.79638  1.0000
  C   C666      1.0  0.41729  0.55109  0.80005  1.0000
  C   C667      1.0  0.41539  0.54592  0.77720  1.0000
  H   H805      1.0  0.44098  0.56071  0.72685  1.0000
  H   H806      1.0  0.44445  0.56960  0.76686  1.0000
  H   H807      1.0  0.41076  0.54823  0.82060  1.0000
  H   H808      1.0  0.40728  0.53924  0.78019  1.0000
  C   C668      1.0  0.47857  0.52344  0.65366  1.0000
  C   C669      1.0  0.48943  0.52145  0.65711  1.0000
  C   C670      1.0  0.49215  0.51070  0.65469  1.0000
  C   C671      1.0  0.48399  0.50177  0.64899  1.0000
  C   C672      1.0  0.47309  0.50374  0.64576  1.0000
  C   C673      1.0  0.47039  0.51453  0.64802  1.0000
  S   S199      1.0  0.47826  0.65206  0.49544  1.0000
  C   C674      1.0  0.25486  0.61574  0.96697  1.0000
  H   H809      1.0  0.46672  0.49690  0.64134  1.0000
  H   H810      1.0  0.46201  0.51594  0.64528  1.0000
  C   C675      1.0  0.46943  0.58921  0.66273  1.0000
  C   C676      1.0  0.46286  0.58189  0.68965  1.0000
  H   H811      1.0  0.44650  0.58820  0.78876  1.0000
  C   C677      1.0  0.48042  0.59684  0.66020  1.0000
  H   H812      1.0  0.45411  0.57654  0.69187  1.0000
  H   H813      1.0  0.45182  0.57545  0.55973  1.0000
  H   H814      1.0  0.48551  0.60254  0.63934  1.0000
  H   H815      1.0  0.44564  0.57424  0.97975  1.0000
  C   C678      1.0  0.36098  0.63588  0.74348  1.0000
  H   H816      1.0  0.43972  0.53079  0.79477  1.0000
  C   C679      1.0  0.45416  0.59979  0.53842  1.0000
  H   H817      1.0  0.43386  0.57800  0.52623  1.0000
  C   C680      1.0  0.45114  0.61058  0.52935  1.0000
  C   C681      1.0  0.46474  0.60930  0.56935  1.0000
  C   C682      1.0  0.45499  0.62044  0.53964  1.0000
  C   C683      1.0  0.46180  0.61981  0.55952  1.0000
  N   N45       1.0  0.26127  0.62773  0.94813  1.0000
  Fe  Fe99      1.0  0.50125  0.60137  0.73174  1.0000
  C   C684      1.0  0.30360  0.61751  0.58293  1.0000
  C   C685      1.0  0.46422  0.54118  0.73768  1.0000
  C   C686      1.0  0.26953  0.65216  0.72675  1.0000
  C   C687      1.0  0.26671  0.62625  0.91939  1.0000
  C   C688      1.0  0.40313  0.57643  0.77407  1.0000
  H   H818      1.0  0.38523  0.66347  0.78475  1.0000
  H   H819      1.0  0.45280  0.62867  0.53174  1.0000
  H   H820      1.0  0.46492  0.62751  0.56717  1.0000
  C   C689      1.0  0.39905  0.57013  0.82607  1.0000
  C   C690      1.0  0.27674  0.67146  0.69071  1.0000
  H   H821      1.0  0.25628  0.67147  0.58991  1.0000
  H   H822      1.0  0.30782  0.61182  0.76362  1.0000
  N   N46       1.0  0.45022  0.58960  0.52649  1.0000
  H   H823      1.0  0.49581  0.52828  0.66150  1.0000
  C   C691      1.0  0.41192  0.57006  0.72253  1.0000
  S   S200      1.0  0.50346  0.65184  0.97394  1.0000
  S   S201      1.0  0.49091  0.63451  0.55033  1.0000
  H   H824      1.0  0.50295  0.57293  0.73449  1.0000
  H   H825      1.0  0.46965  0.59244  0.96436  1.0000
  C   C692      1.0  0.41813  0.58017  0.72839  1.0000
  H   H826      1.0  0.48307  0.44292  0.61151  1.0000
  H   H827      1.0  0.25392  0.61379  0.76685  1.0000
  H   H828      1.0  0.49783  0.45082  0.61103  1.0000
  H   H829      1.0  0.49883  0.55477  0.63191  1.0000
  C   C693      1.0  0.28842  0.62778  0.58713  1.0000
  H   H830      1.0  0.48453  0.55956  0.66994  1.0000
  H   H831      1.0  0.38233  0.62298  0.91824  1.0000
  H   H832      1.0  0.29847  0.59932  0.68853  1.0000
  H   H833      1.0  0.37493  0.57859  0.53476  1.0000
  H   H834      1.0  0.35909  0.63607  0.81316  1.0000
  C   C694      1.0  0.27865  0.61105  0.64203  1.0000
  C   C695      1.0  0.45018  0.66258  0.91065  1.0000
  C   C696      1.0  0.29114  0.61491  0.63064  1.0000
  H   H835      1.0  0.30902  0.64083  0.58486  1.0000
  C   C697      1.0  0.44001  0.64676  0.89198  1.0000
  C   C698      1.0  0.46378  0.55417  0.76992  1.0000
  C   C699      1.0  0.36808  0.62563  0.94879  1.0000
  H   H836      1.0  0.47611  0.47012  0.57277  1.0000
  H   H837      1.0  0.47885  0.56834  0.64483  1.0000
  H   H838      1.0  0.28590  0.60905  0.80304  1.0000
  S   S202      1.0  0.30671  0.65681  0.67670  1.0000
  C   C700      1.0  0.29292  0.60261  0.67555  1.0000
  H   H839      1.0  0.45750  0.60669  0.69978  1.0000
  H   H840      1.0  0.28565  0.66448  0.72293  1.0000
  H   H841      1.0  0.40831  0.56966  0.82476  1.0000
  H   H842      1.0  0.35927  0.62961  0.73057  1.0000
  C   C701      1.0  0.41387  0.58336  0.75375  1.0000
  C   C702      1.0  0.25960  0.64933  0.71623  1.0000
  H   H843      1.0  0.31286  0.63155  0.61262  1.0000
  H   H844      1.0  0.47008  0.60890  0.58485  1.0000
  H   H845      1.0  0.46490  0.58205  0.52994  1.0000
  C   C703      1.0  0.46125  0.59452  0.97329  1.0000
  H   H846      1.0  0.44885  0.54878  0.80683  1.0000
  C   C704      1.0  0.40511  0.59102  0.80363  1.0000
  C   C705      1.0  0.49713  0.46392  0.50451  1.0000
  C   C706      1.0  0.29030  0.64198  0.96388  1.0000
  H   H847      1.0  0.41541  0.56743  0.70324  1.0000
  C   C707      1.0  0.25810  0.65735  0.69319  1.0000
  H   H848      1.0  0.29451  0.60393  0.75733  1.0000
  H   H849      1.0  0.36148  0.59191  0.98243  1.0000
  N   N47       1.0  0.39845  0.57936  0.80147  1.0000
  H   H850      1.0  0.27244  0.60521  0.84843  1.0000
  H   H851      1.0  0.49669  0.47996  0.56928  1.0000
  C   C708      1.0  0.30497  0.64574  0.50449  1.0000
  H   H852      1.0  0.27667  0.59305  0.70739  1.0000
  H   H853      1.0  0.27308  0.62071  0.92095  1.0000
  H   H854      1.0  0.43183  0.60939  0.98435  1.0000
  H   H855      1.0  0.50150  0.46527  0.83166  1.0000
  H   H856      1.0  0.30069  0.63769  0.62185  1.0000
  H   H857      1.0  0.27076  0.64578  0.74435  1.0000
  Fe  Fe100     1.0  0.49153  0.64166  0.50255  1.0000
  H   H858      1.0  0.47317  0.46399  0.61046  1.0000
  C   C709      1.0  0.29638  0.65189  0.50904  1.0000
  H   H859      1.0  0.25710  0.64401  0.93115  1.0000
  Fe  Fe101     1.0  0.47087  0.63604  0.98265  1.0000
  C   C710      1.0  0.26655  0.62237  0.49390  1.0000
  H   H860      1.0  0.45229  0.57205  0.52592  1.0000
  H   H861      1.0  0.44587  0.61154  0.51395  1.0000
  H   H862      1.0  0.47707  0.55791  0.73038  1.0000
  C   C711      1.0  0.29810  0.61038  0.64820  1.0000
  C   C712      1.0  0.38594  0.57970  0.80462  1.0000
  H   H863      1.0  0.30509  0.61560  0.72890  1.0000
  H   H864      1.0  0.26102  0.61005  0.97002  1.0000
  H   H865      1.0  0.35347  0.62591  0.98128  1.0000
  H   H866      1.0  0.29843  0.64044  0.75671  1.0000
  H   H867      1.0  0.31331  0.64858  0.50978  1.0000
  H   H868      1.0  0.26077  0.64077  0.51028  1.0000
  H   H869      1.0  0.49628  0.64574  0.87668  1.0000
  H   H870      1.0  0.36554  0.65118  0.70747  1.0000
  S   S203      1.0  0.48699  0.48805  0.64592  1.0000
  C   C713      1.0  0.45395  0.59332  0.49441  1.0000
  H   H871      1.0  0.41442  0.59115  0.80375  1.0000
  H   H872      1.0  0.45891  0.57109  0.98707  1.0000
  H   H873      1.0  0.36601  0.66267  0.83829  1.0000
  H   H874      1.0  0.45105  0.51082  0.71975  1.0000
  Fe  Fe102     1.0  0.48817  0.65995  0.96958  1.0000
  H   H875      1.0  0.30622  0.66545  0.57460  1.0000
  N   N48       1.0  0.29458  0.62154  0.76179  1.0000
  C   C714      1.0  0.30292  0.63355  0.75165  1.0000
  C   C715      1.0  0.37254  0.60679  0.94998  1.0000
  H   H876      1.0  0.45576  0.58346  0.82426  1.0000
  H   H877      1.0  0.47643  0.61942  0.75737  1.0000
  C   C716      1.0  0.46767  0.58129  0.71350  1.0000
  N   N49       1.0  0.29689  0.62334  0.60202  1.0000
  C   C717      1.0  0.28235  0.63695  0.94948  1.0000
  H   H878      1.0  0.33152  0.61897  0.50774  1.0000
  H   H879      1.0  0.26459  0.62070  0.51786  1.0000
  C   C718      1.0  0.28606  0.62481  0.71878  1.0000
  H   H880      1.0  0.27808  0.62694  0.68296  1.0000
  C   C719      1.0  0.33413  0.63743  0.50721  1.0000
  H   H881      1.0  0.29934  0.61900  0.80261  1.0000
  H   H882      1.0  0.39690  0.55494  0.73777  1.0000
  C   C720      1.0  0.30665  0.66180  0.61941  1.0000
  H   H883      1.0  0.44648  0.59314  0.83245  1.0000
  H   H884      1.0  0.27295  0.64777  0.63624  1.0000
  C   C721      1.0  0.27241  0.61735  0.76628  1.0000
  H   H885      1.0  0.27012  0.61437  0.78960  1.0000
  C   C722      1.0  0.48615  0.56860  0.65574  1.0000
  C   C723      1.0  0.27653  0.62431  0.70626  1.0000
  H   H886      1.0  0.31068  0.61460  0.59177  1.0000
  C   C724      1.0  0.28567  0.64838  0.50184  1.0000
  C   C725      1.0  0.39712  0.56610  0.76752  1.0000
  C   C726      1.0  0.46917  0.55160  0.74475  1.0000
  C   C727      1.0  0.29999  0.65701  0.64804  1.0000
  H   H887      1.0  0.39557  0.57196  0.84717  1.0000
  H   H888      1.0  0.38293  0.56907  0.51987  1.0000
  H   H889      1.0  0.49645  0.46931  0.87857  1.0000
  C   C728      1.0  0.49483  0.62833  0.60418  1.0000
  H   H890      1.0  0.46532  0.61219  0.83922  1.0000
  C   C729      1.0  0.49938  0.63931  0.86655  1.0000
  H   H891      1.0  0.47096  0.62104  0.80307  1.0000
  N   N50       1.0  0.49790  0.57245  0.63486  1.0000
  H   H892      1.0  0.39381  0.56115  0.82680  1.0000
  C   C730      1.0  0.46756  0.61411  0.72667  1.0000
  C   C731      1.0  0.36442  0.64801  0.73056  1.0000
  C   C732      1.0  0.30520  0.63378  0.60548  1.0000
  H   H893      1.0  0.43613  0.63706  0.96425  1.0000
  H   H894      1.0  0.37002  0.63505  0.93885  1.0000
  C   C733      1.0  0.47892  0.58835  0.71076  1.0000
  H   H895      1.0  0.49537  0.64603  0.82621  1.0000
  C   C734      1.0  0.49986  0.63494  0.57532  1.0000
  H   H896      1.0  0.30698  0.63615  0.72800  1.0000
  C   C735      1.0  0.47665  0.46240  0.58902  1.0000
  H   H897      1.0  0.49849  0.44230  0.57362  1.0000
  C   C736      1.0  0.36300  0.60135  0.97414  1.0000
  C   C737      1.0  0.49299  0.46609  0.53130  1.0000
  H   H898      1.0  0.43905  0.51205  0.79310  1.0000
  H   H899      1.0  0.44216  0.50312  0.76906  1.0000
  H   H900      1.0  0.45398  0.51121  0.78079  1.0000
  C   C738      1.0  0.36453  0.65232  0.77767  1.0000
  C   C739      1.0  0.36099  0.63986  0.79019  1.0000
  C   C740      1.0  0.46395  0.61314  0.81707  1.0000
  C   C741      1.0  0.44571  0.51167  0.77408  1.0000
  C   C742      1.0  0.49888  0.63946  0.83785  1.0000
  H   H901      1.0  0.45523  0.61515  0.81795  1.0000
  H   H902      1.0  0.36820  0.56821  0.51697  1.0000
  C   C743      1.0  0.49923  0.58410  0.61502  1.0000
  C   C744      1.0  0.44615  0.65451  0.93843  1.0000
  H   H903      1.0  0.47817  0.59863  0.82669  1.0000
  C   C745      1.0  0.45254  0.59562  0.77229  1.0000
  C   C746      1.0  0.26294  0.61693  0.75344  1.0000
  N   N51       1.0  0.44796  0.52196  0.74898  1.0000
  C   C747      1.0  0.43657  0.52285  0.74254  1.0000
  C   C748      1.0  0.45522  0.51943  0.72364  1.0000
  H   H904      1.0  0.43039  0.52455  0.76057  1.0000
  H   H905      1.0  0.46415  0.51904  0.72630  1.0000
  S   S204      1.0  0.49977  0.62003  0.72055  1.0000
  H   H906      1.0  0.49406  0.47450  0.60734  1.0000
  H   H907      1.0  0.37061  0.65014  0.82997  1.0000
  H   H908      1.0  0.46875  0.53982  0.71764  1.0000
  H   H909      1.0  0.41924  0.59119  0.75705  1.0000
  N   N52       1.0  0.46426  0.60223  0.80706  1.0000
  C   C749      1.0  0.44814  0.53616  0.78076  1.0000
  H   H910      1.0  0.34879  0.66337  0.80062  1.0000
  C   C750      1.0  0.47618  0.60025  0.80517  1.0000
  H   H911      1.0  0.45754  0.59141  0.85111  1.0000
  C   C751      1.0  0.45356  0.53305  0.75574  1.0000
  H   H912      1.0  0.43803  0.53031  0.72331  1.0000
  H   H913      1.0  0.45624  0.52623  0.70343  1.0000
  H   H914      1.0  0.44856  0.65692  0.95703  1.0000
  H   H915      1.0  0.48330  0.60803  0.79097  1.0000
  C   C752      1.0  0.45564  0.59210  0.82953  1.0000
  C   C753      1.0  0.26500  0.62037  0.72350  1.0000
  H   H916      1.0  0.43397  0.58205  0.55968  1.0000
  H   H917      1.0  0.30957  0.63124  0.48927  1.0000
  C   C754      1.0  0.46183  0.60362  0.77818  1.0000
  C   C755      1.0  0.45328  0.54649  0.78784  1.0000
  H   H918      1.0  0.47355  0.62113  0.70880  1.0000
  C   C756      1.0  0.35935  0.63182  0.77317  1.0000
  C   C757      1.0  0.45507  0.57941  0.53598  1.0000
  C   C758      1.0  0.42628  0.55721  0.50041  1.0000
  C   C759      1.0  0.27357  0.60323  0.66938  1.0000
  H   H919      1.0  0.46693  0.62848  0.93391  1.0000
  H   H920      1.0  0.30807  0.62365  0.56119  1.0000
  C   C760      1.0  0.28431  0.62136  0.74921  1.0000
  H   H921      1.0  0.46757  0.56234  0.77509  1.0000
  H   H922      1.0  0.48529  0.45383  0.63167  1.0000
  H   H923      1.0  0.48724  0.59664  0.56216  1.0000
  C   C761      1.0  0.45850  0.60602  0.72157  1.0000
  C   C762      1.0  0.43716  0.58536  0.53574  1.0000
  H   H924      1.0  0.43773  0.64361  0.87399  1.0000
  H   H925      1.0  0.40122  0.59311  0.82413  1.0000
  H   H926      1.0  0.28234  0.62052  0.58202  1.0000
  C   C763      1.0  0.44691  0.65834  0.88740  1.0000
  H   H927      1.0  0.37994  0.57088  0.80707  1.0000
  H   H928      1.0  0.38497  0.58600  0.78563  1.0000
  H   H929      1.0  0.46351  0.60384  0.97488  1.0000
  H   H930      1.0  0.50056  0.50930  0.65722  1.0000
  H   H931      1.0  0.30766  0.61286  0.64086  1.0000
  C   C764      1.0  0.26993  0.63366  0.96191  1.0000
  H   H932      1.0  0.48124  0.66432  0.54416  1.0000
  H   H933      1.0  0.46269  0.57531  0.73400  1.0000
  C   C765      1.0  0.29136  0.61838  0.79389  1.0000
  H   H934      1.0  0.50276  0.46909  0.90888  1.0000
  C   C766      1.0  0.46918  0.61301  0.75454  1.0000
  C   C767      1.0  0.49917  0.66068  0.60594  1.0000
  C   C768      1.0  0.49311  0.59597  0.57629  1.0000
  H   H935      1.0  0.29772  0.60953  0.57999  1.0000
  S   S205      1.0  0.48182  0.64879  0.94087  1.0000
  C   C769      1.0  0.49186  0.58517  0.59577  1.0000
  C   C770      1.0  0.48518  0.59643  0.68431  1.0000
  H   H936      1.0  0.39928  0.58485  0.49071  1.0000
  H   H937      1.0  0.49000  0.47403  0.53128  1.0000
  N   N53       1.0  0.48885  0.46102  0.58554  1.0000
  C   C771      1.0  0.37659  0.57453  0.51623  1.0000
  C   C772      1.0  0.28780  0.65223  0.65395  1.0000
  C   C773      1.0  0.28068  0.59905  0.68614  1.0000
  C   C774      1.0  0.35812  0.66873  0.79202  1.0000
  H   H938      1.0  0.47698  0.59248  0.79624  1.0000
  H   H939      1.0  0.48487  0.57773  0.59604  1.0000
  C   C775      1.0  0.45094  0.59686  0.74437  1.0000
  C   C776      1.0  0.50152  0.62819  0.62487  1.0000
  H   H940      1.0  0.35631  0.62237  0.78322  1.0000
  S   S206      1.0  0.48533  0.58633  0.73995  1.0000
  H   H941      1.0  0.44403  0.59044  0.74024  1.0000
  H   H942      1.0  0.25997  0.62164  0.90980  1.0000
  H   H943      1.0  0.47053  0.45433  0.58710  1.0000
  C   C777      1.0  0.30287  0.63600  0.49287  1.0000
  H   H944      1.0  0.25768  0.61994  0.71353  1.0000
  H   H945      1.0  0.37793  0.60154  0.94078  1.0000
  C   C778      1.0  0.49672  0.47226  0.58636  1.0000
  H   H946      1.0  0.49752  0.62302  0.64691  1.0000
  H   H947      1.0  0.26402  0.60052  0.67773  1.0000
  C   C779      1.0  0.27802  0.66303  0.71424  1.0000
  C   C780      1.0  0.49301  0.45835  0.55750  1.0000
  C   C781      1.0  0.25640  0.59929  0.88242  1.0000
  C   C782      1.0  0.37869  0.66883  0.78387  1.0000
  C   C783      1.0  0.35856  0.62030  0.97307  1.0000
  H   H948      1.0  0.43083  0.63015  0.92300  1.0000
  H   H949      1.0  0.36886  0.66540  0.73631  1.0000
  Fe  Fe103     1.0  0.49606  0.63978  0.94788  1.0000
  C   C784      1.0  0.25918  0.59442  0.93094  1.0000
  H   H950      1.0  0.49123  0.56136  0.60848  1.0000
  S   S207      1.0  0.36823  0.66975  0.64794  1.0000
  C   C785      1.0  0.43608  0.63915  0.91960  1.0000
  H   H951      1.0  0.25538  0.59111  0.95397  1.0000
  C   C786      1.0  0.26645  0.66829  0.68072  1.0000
  H   H952      1.0  0.44964  0.66373  0.86544  1.0000
  H   H953      1.0  0.50007  0.66076  0.52373  1.0000
  C   C787      1.0  0.50172  0.60599  0.57534  1.0000
  H   H954      1.0  0.49151  0.65616  0.57276  1.0000
  C   C788      1.0  0.50165  0.44630  0.52822  1.0000
  C   C789      1.0  0.49885  0.56343  0.61810  1.0000
  H   H955      1.0  0.39281  0.59497  0.50652  1.0000
  H   H956      1.0  0.25799  0.61951  0.48847  1.0000
  C   C790      1.0  0.50313  0.63140  0.82387  1.0000
  C   C791      1.0  0.35564  0.60796  0.98637  1.0000
  N   N54       1.0  0.38125  0.58378  0.48846  1.0000
  C   C792      1.0  0.39316  0.59065  0.48832  1.0000
  S   S208      1.0  0.44007  0.96062  0.15935  1.0000
  C   C793      1.0  0.27873  0.80362  0.40924  1.0000
  H   H957      1.0  0.40938  0.69235  0.05405  1.0000
  H   H958      1.0  0.38145  0.85923  0.26960  1.0000
  H   H959      1.0  0.29044  0.75623  0.16078  1.0000
  H   H960      1.0  0.34158  0.71935  0.18902  1.0000
  C   C794      1.0  0.36898  0.83645  0.28693  1.0000
  H   H961      1.0  0.28552  0.70949  0.04051  1.0000
  H   H962      1.0  0.37584  0.84022  0.07514  1.0000
  C   C795      1.0  0.39112  0.95245  0.04606  1.0000
  N   N55       1.0  0.39384  0.69660  0.07552  1.0000
  H   H963      1.0  0.27515  0.69058  0.11958  1.0000
  H   H964      1.0  0.45435  0.83456  0.07070  1.0000
  S   S209      1.0  0.47366  0.97382  0.15476  1.0000
  C   C796      1.0  0.39240  0.98450  0.08696  1.0000
  Fe  Fe104     1.0  0.41040  0.93462  0.40300  1.0000
  S   S210      1.0  0.41417  0.91715  0.39970  1.0000
  S   S211      1.0  0.41369  0.95102  0.36563  1.0000
  Fe  Fe105     1.0  0.39971  0.90897  0.44108  1.0000
  S   S212      1.0  0.38877  0.88941  0.45247  1.0000
  Fe  Fe106     1.0  0.42591  0.92081  0.42887  1.0000
  S   S213      1.0  0.44440  0.91883  0.41868  1.0000
  S   S214      1.0  0.39513  0.92642  0.44308  1.0000
  S   S215      1.0  0.42330  0.93875  0.42950  1.0000
  Fe  Fe107     1.0  0.46369  0.85955  0.46860  1.0000
  H   H965      1.0  0.41056  0.70801  0.04756  1.0000
  S   S216      1.0  0.47006  0.87992  0.45495  1.0000
  H   H966      1.0  0.40999  0.69709  0.34296  1.0000
  H   H967      1.0  0.50206  0.97651  0.27383  1.0000
  H   H968      1.0  0.38309  0.68734  0.05212  1.0000
  Fe  Fe108     1.0  0.44417  0.84188  0.45473  1.0000
  S   S217      1.0  0.43049  0.84049  0.42884  1.0000
  H   H969      1.0  0.41956  0.98228  0.05600  1.0000
  H   H970      1.0  0.48243  0.95941  0.02674  1.0000
  S   S218      1.0  0.46382  0.84825  0.43661  1.0000
  H   H971      1.0  0.40754  0.69920  0.29720  1.0000
  Fe  Fe109     1.0  0.43952  0.82715  0.21699  1.0000
  S   S219      1.0  0.42178  0.81424  0.23360  1.0000
  S   S220      1.0  0.45102  0.82726  0.17426  1.0000
  Fe  Fe110     1.0  0.43753  0.83560  0.27194  1.0000
  S   S221      1.0  0.41950  0.82347  0.29327  1.0000
  S   S222      1.0  0.44777  0.84754  0.29375  1.0000
  Fe  Fe111     1.0  0.42664  0.80980  0.27541  1.0000
  S   S223      1.0  0.42245  0.79082  0.30091  1.0000
  Fe  Fe112     1.0  0.41591  0.82882  0.24990  1.0000
  S   S224      1.0  0.39779  0.83090  0.24881  1.0000
  S   S225      1.0  0.44510  0.82140  0.25762  1.0000
  S   S226      1.0  0.43334  0.84235  0.22970  1.0000
  Fe  Fe113     1.0  0.31868  0.81551  0.42474  1.0000
  S   S227      1.0  0.32843  0.80148  0.42864  1.0000
  Fe  Fe114     1.0  0.34116  0.83541  0.42204  1.0000
  S   S228      1.0  0.35218  0.82234  0.42527  1.0000
  S   S229      1.0  0.34896  0.85556  0.41328  1.0000
  Fe  Fe115     1.0  0.34313  0.81489  0.39418  1.0000
  S   S230      1.0  0.35309  0.80970  0.35633  1.0000
  Fe  Fe116     1.0  0.33624  0.81041  0.45936  1.0000
  C   C797      1.0  0.35705  0.84313  0.32256  1.0000
  S   S231      1.0  0.33309  0.82870  0.38847  1.0000
  S   S232      1.0  0.32553  0.82375  0.45805  1.0000
  Fe  Fe117     1.0  0.35857  0.79791  0.17839  1.0000
  S   S233      1.0  0.35176  0.81408  0.17342  1.0000
  S   S234      1.0  0.37806  0.80021  0.16929  1.0000
  Fe  Fe118     1.0  0.33436  0.78116  0.19386  1.0000
  S   S235      1.0  0.32545  0.79593  0.18974  1.0000
  S   S236      1.0  0.32380  0.76224  0.21191  1.0000
  Fe  Fe119     1.0  0.34020  0.80474  0.14967  1.0000
  S   S237      1.0  0.33857  0.81626  0.10875  1.0000
  Fe  Fe120     1.0  0.33783  0.80378  0.21385  1.0000
  S   S238      1.0  0.33025  0.81138  0.24983  1.0000
  S   S239      1.0  0.34805  0.78919  0.15176  1.0000
  S   S240      1.0  0.34569  0.78832  0.22093  1.0000
  H   H972      1.0  0.39471  0.71512  0.07216  1.0000
  S   S241      1.0  0.42416  0.74307  0.40433  1.0000
  S   S242      1.0  0.44386  0.85389  0.48449  1.0000
  C   C798      1.0  0.31152  0.75793  0.05483  1.0000
  S   S243      1.0  0.43830  0.75511  0.45833  1.0000
  H   H973      1.0  0.42938  0.83315  0.16623  1.0000
  Fe  Fe121     1.0  0.40037  0.74182  0.23966  1.0000
  S   S244      1.0  0.41989  0.74408  0.23188  1.0000
  S   S245      1.0  0.39234  0.75691  0.24372  1.0000
  Fe  Fe122     1.0  0.39530  0.71622  0.23659  1.0000
  S   S246      1.0  0.41446  0.71640  0.22818  1.0000
  S   S247      1.0  0.38106  0.69926  0.24489  1.0000
  Fe  Fe123     1.0  0.41494  0.72614  0.26306  1.0000
  S   S248      1.0  0.42404  0.72014  0.29763  1.0000
  Fe  Fe124     1.0  0.41755  0.73429  0.19778  1.0000
  S   S249      1.0  0.43098  0.74136  0.15442  1.0000
  S   S250      1.0  0.39552  0.72472  0.27354  1.0000
  S   S251      1.0  0.39829  0.73334  0.20347  1.0000
  C   C799      1.0  0.37570  0.69667  0.21516  1.0000
  C   C800      1.0  0.38079  0.70428  0.18759  1.0000
  C   C801      1.0  0.37640  0.70203  0.16414  1.0000
  C   C802      1.0  0.36705  0.69205  0.16804  1.0000
  C   C803      1.0  0.36618  0.68683  0.21918  1.0000
  H   H974      1.0  0.38816  0.71185  0.18420  1.0000
  H   H975      1.0  0.38043  0.70791  0.14283  1.0000
  H   H976      1.0  0.28561  0.68211  0.12405  1.0000
  C   C804      1.0  0.42415  0.73645  0.37507  1.0000
  C   C805      1.0  0.43007  0.72770  0.37163  1.0000
  C   C806      1.0  0.42987  0.72268  0.34794  1.0000
  C   C807      1.0  0.42382  0.72643  0.32746  1.0000
  C   C808      1.0  0.41782  0.73510  0.33104  1.0000
  C   C809      1.0  0.41798  0.74008  0.35477  1.0000
  C   C810      1.0  0.42640  0.73930  0.12330  1.0000
  H   H977      1.0  0.43454  0.71597  0.34531  1.0000
  H   H978      1.0  0.41313  0.73803  0.31546  1.0000
  H   H979      1.0  0.41337  0.74684  0.35729  1.0000
  Fe  Fe125     1.0  0.42976  0.96890  0.19007  1.0000
  Fe  Fe126     1.0  0.43586  0.97272  0.12336  1.0000
  H   H980      1.0  0.40565  0.93381  0.33369  1.0000
  Fe  Fe127     1.0  0.26465  0.70782  0.15917  1.0000
  C   C811      1.0  0.31531  0.83097  0.02655  1.0000
  H   H981      1.0  0.42102  0.80656  0.37771  1.0000
  H   H982      1.0  0.40784  0.73285  0.14448  1.0000
  C   C812      1.0  0.45281  0.83141  0.11637  1.0000
  N   N56       1.0  0.40132  0.97794  0.07953  1.0000
  H   H983      1.0  0.47591  0.99916  0.13089  1.0000
  C   C813      1.0  0.31955  0.75464  0.18699  1.0000
  C   C814      1.0  0.31046  0.74413  0.19709  1.0000
  C   C815      1.0  0.30627  0.73831  0.17756  1.0000
  C   C816      1.0  0.31155  0.74267  0.14798  1.0000
  C   C817      1.0  0.32108  0.75283  0.13795  1.0000
  C   C818      1.0  0.32491  0.75898  0.15742  1.0000
  H   H984      1.0  0.30641  0.74064  0.22001  1.0000
  H   H985      1.0  0.29907  0.73035  0.18544  1.0000
  H   H986      1.0  0.32519  0.75621  0.11505  1.0000
  H   H987      1.0  0.33196  0.76706  0.14948  1.0000
  C   C819      1.0  0.34628  0.80943  0.32758  1.0000
  C   C820      1.0  0.33600  0.81324  0.32774  1.0000
  C   C821      1.0  0.33120  0.81384  0.30373  1.0000
  C   C822      1.0  0.33651  0.81043  0.27959  1.0000
  C   C823      1.0  0.34663  0.80635  0.27963  1.0000
  C   C824      1.0  0.35152  0.80588  0.30354  1.0000
  H   H988      1.0  0.33177  0.81581  0.34624  1.0000
  H   H989      1.0  0.32337  0.81701  0.30386  1.0000
  H   H990      1.0  0.35078  0.80370  0.26113  1.0000
  H   H991      1.0  0.35944  0.80287  0.30321  1.0000
  C   C825      1.0  0.33980  0.80291  0.02702  1.0000
  C   C826      1.0  0.34016  0.79535  0.05269  1.0000
  C   C827      1.0  0.33991  0.79936  0.07788  1.0000
  C   C828      1.0  0.33934  0.81099  0.07745  1.0000
  C   C829      1.0  0.33920  0.81860  0.05168  1.0000
  C   C830      1.0  0.33940  0.81458  0.02653  1.0000
  H   H992      1.0  0.34053  0.78633  0.05315  1.0000
  H   H993      1.0  0.33997  0.79341  0.09765  1.0000
  H   H994      1.0  0.33890  0.82764  0.05119  1.0000
  C   C831      1.0  0.26795  0.73111  0.25048  1.0000
  C   C832      1.0  0.41303  0.78106  0.28772  1.0000
  C   C833      1.0  0.41304  0.76907  0.29296  1.0000
  C   C834      1.0  0.40641  0.76148  0.28011  1.0000
  C   C835      1.0  0.39954  0.76581  0.26265  1.0000
  C   C836      1.0  0.39902  0.77761  0.25874  1.0000
  C   C837      1.0  0.40581  0.78522  0.27111  1.0000
  H   H995      1.0  0.41836  0.76568  0.30637  1.0000
  H   H996      1.0  0.40671  0.75232  0.28345  1.0000
  H   H997      1.0  0.39365  0.78097  0.24538  1.0000
  H   H998      1.0  0.40536  0.79429  0.26776  1.0000
  C   C838      1.0  0.39232  0.82302  0.22550  1.0000
  C   C839      1.0  0.38014  0.81847  0.23023  1.0000
  C   C840      1.0  0.37577  0.81157  0.21273  1.0000
  C   C841      1.0  0.38356  0.80912  0.19063  1.0000
  C   C842      1.0  0.39573  0.81390  0.18542  1.0000
  C   C843      1.0  0.40008  0.82096  0.20265  1.0000
  H   H999      1.0  0.37407  0.82007  0.24772  1.0000
  H   H1000     1.0  0.36637  0.80802  0.21666  1.0000
  H   H1001     1.0  0.40178  0.81223  0.16801  1.0000
  H   H1002     1.0  0.40944  0.82494  0.19799  1.0000
  H   H1003     1.0  0.44949  0.95364  0.02710  1.0000
  C   C844      1.0  0.48718  0.98119  0.37424  1.0000
  C   C845      1.0  0.48606  0.70277  0.44464  1.0000
  C   C846      1.0  0.43479  0.83342  0.14541  1.0000
  H   H1004     1.0  0.47784  0.00280  0.07935  1.0000
  H   H1005     1.0  0.38907  0.67723  0.17260  1.0000
  H   H1006     1.0  0.27831  0.69013  0.04121  1.0000
  H   H1007     1.0  0.47105  0.89037  0.04833  1.0000
  C   C847      1.0  0.44582  0.83102  0.14341  1.0000
  H   H1008     1.0  0.38579  0.70844  0.05152  1.0000
  S   S252      1.0  0.42465  0.98041  0.15399  1.0000
  C   C848      1.0  0.38970  0.81148  0.38501  1.0000
  H   H1009     1.0  0.46136  0.82956  0.11474  1.0000
  H   H1010     1.0  0.35395  0.83413  0.33762  1.0000
  H   H1011     1.0  0.43233  0.87910  0.04016  1.0000
  C   C849      1.0  0.43541  0.84165  0.39162  1.0000
  C   C850      1.0  0.42710  0.84017  0.37528  1.0000
  C   C851      1.0  0.43077  0.84143  0.34538  1.0000
  C   C852      1.0  0.44282  0.84465  0.33152  1.0000
  C   C853      1.0  0.45113  0.84630  0.34779  1.0000
  C   C854      1.0  0.44744  0.84458  0.37781  1.0000
  H   H1012     1.0  0.41782  0.83811  0.38582  1.0000
  H   H1013     1.0  0.42432  0.84029  0.33291  1.0000
  H   H1014     1.0  0.46047  0.84879  0.33716  1.0000
  H   H1015     1.0  0.45394  0.84565  0.39008  1.0000
  C   C855      1.0  0.37823  0.88019  0.43961  1.0000
  C   C856      1.0  0.37225  0.88480  0.42009  1.0000
  C   C857      1.0  0.36352  0.87712  0.41195  1.0000
  C   C858      1.0  0.36071  0.86471  0.42282  1.0000
  C   C859      1.0  0.36685  0.86007  0.44196  1.0000
  C   C860      1.0  0.37547  0.86776  0.45039  1.0000
  S   S253      1.0  0.46469  0.84450  0.00988  1.0000
  H   H1016     1.0  0.35882  0.88085  0.39724  1.0000
  H   H1017     1.0  0.36482  0.85058  0.45070  1.0000
  C   C861      1.0  0.38176  0.68180  0.34500  1.0000
  H   H1018     1.0  0.47420  0.74656  0.00852  1.0000
  C   C862      1.0  0.40583  0.95969  0.44109  1.0000
  H   H1019     1.0  0.48358  0.99678  0.29562  1.0000
  H   H1020     1.0  0.30433  0.78229  0.46320  1.0000
  C   C863      1.0  0.48031  0.90289  0.45482  1.0000
  C   C864      1.0  0.48842  0.91199  0.46068  1.0000
  H   H1021     1.0  0.47388  0.90517  0.44355  1.0000
  H   H1022     1.0  0.44907  0.78824  0.20819  1.0000
  C   C865      1.0  0.46625  0.94592  0.45371  1.0000
  C   C866      1.0  0.47190  0.94057  0.43402  1.0000
  C   C867      1.0  0.46521  0.93184  0.42408  1.0000
  C   C868      1.0  0.45289  0.92848  0.43388  1.0000
  C   C869      1.0  0.44732  0.93341  0.45463  1.0000
  H   H1023     1.0  0.48328  0.79799  0.00169  1.0000
  H   H1024     1.0  0.48135  0.94338  0.42571  1.0000
  H   H1025     1.0  0.46959  0.92792  0.40834  1.0000
  C   C870      1.0  0.26970  0.79557  0.40349  1.0000
  H   H1026     1.0  0.47687  0.69558  0.02436  1.0000
  H   H1027     1.0  0.26895  0.76438  0.21965  1.0000
  H   H1028     1.0  0.49040  0.78913  0.43759  1.0000
  H   H1029     1.0  0.27797  0.81253  0.40891  1.0000
  H   H1030     1.0  0.48218  0.73861  0.02949  1.0000
  H   H1031     1.0  0.39086  0.83601  0.10318  1.0000
  C   C871      1.0  0.41722  0.95428  0.26807  1.0000
  C   C872      1.0  0.42249  0.96384  0.27780  1.0000
  C   C873      1.0  0.42141  0.96266  0.30764  1.0000
  C   C874      1.0  0.41530  0.95185  0.32811  1.0000
  C   C875      1.0  0.41043  0.94216  0.31829  1.0000
  C   C876      1.0  0.41126  0.94343  0.28853  1.0000
  C   C877      1.0  0.48363  0.99730  0.20061  1.0000
  H   H1032     1.0  0.37635  0.78593  0.37553  1.0000
  C   C878      1.0  0.47703  0.73817  0.01299  1.0000
  C   C879      1.0  0.42665  0.95898  0.06125  1.0000
  C   C880      1.0  0.41869  0.94799  0.07605  1.0000
  C   C881      1.0  0.41310  0.94056  0.06075  1.0000
  C   C882      1.0  0.41543  0.94382  0.03031  1.0000
  C   C883      1.0  0.42363  0.95468  0.01547  1.0000
  C   C884      1.0  0.42907  0.96222  0.03081  1.0000
  H   H1033     1.0  0.40678  0.93223  0.07266  1.0000
  C   C885      1.0  0.45343  0.88493  0.36287  1.0000
  H   H1034     1.0  0.43518  0.97066  0.01887  1.0000
  H   H1035     1.0  0.36157  0.83592  0.27626  1.0000
  H   H1036     1.0  0.26860  0.67889  0.07142  1.0000
  C   C886      1.0  0.49445  0.98639  0.16111  1.0000
  C   C887      1.0  0.48212  0.98355  0.17012  1.0000
  C   C888      1.0  0.28925  0.75833  0.21708  1.0000
  H   H1037     1.0  0.49865  0.98233  0.14546  1.0000
  S   S254      1.0  0.27659  0.71708  0.11505  1.0000
  H   H1038     1.0  0.44206  0.91614  0.05548  1.0000
  H   H1039     1.0  0.43969  0.90167  0.47679  1.0000
  S   S255      1.0  0.43354  0.96919  0.07942  1.0000
  H   H1040     1.0  0.27842  0.77460  0.04295  1.0000
  H   H1041     1.0  0.28026  0.76537  0.32212  1.0000
  Fe  Fe128     1.0  0.26374  0.73049  0.17711  1.0000
  S   S256      1.0  0.41745  0.95548  0.23095  1.0000
  C   C889      1.0  0.46682  0.89593  0.03591  1.0000
  C   C890      1.0  0.45587  0.89313  0.40296  1.0000
  C   C891      1.0  0.48964  0.98735  0.34522  1.0000
  H   H1042     1.0  0.37935  0.82498  0.13057  1.0000
  Fe  Fe129     1.0  0.45525  0.97579  0.15671  1.0000
  C   C892      1.0  0.40662  0.70355  0.10704  1.0000
  C   C893      1.0  0.31016  0.78016  0.11330  1.0000
  H   H1043     1.0  0.35060  0.84365  0.30912  1.0000
  C   C894      1.0  0.38990  0.84506  0.30809  1.0000
  H   H1044     1.0  0.49025  0.99589  0.26068  1.0000
  S   S257      1.0  0.27541  0.71822  0.18282  1.0000
  C   C895      1.0  0.39392  0.80582  0.36361  1.0000
  C   C896      1.0  0.37511  0.84221  0.35253  1.0000
  N   N57       1.0  0.41352  0.97034  0.44545  1.0000
  H   H1045     1.0  0.39279  0.84663  0.28489  1.0000
  C   C897      1.0  0.42728  0.77580  0.20911  1.0000
  H   H1046     1.0  0.37328  0.86415  0.29776  1.0000
  C   C898      1.0  0.44069  0.78723  0.16152  1.0000
  S   S258      1.0  0.36216  0.68920  0.13793  1.0000
  H   H1047     1.0  0.39635  0.95970  0.44639  1.0000
  N   N58       1.0  0.28465  0.68816  0.07984  1.0000
  S   S259      1.0  0.45420  0.70895  0.47749  1.0000
  H   H1048     1.0  0.33927  0.82051  0.00677  1.0000
  H   H1049     1.0  0.40540  0.69259  0.17771  1.0000
  C   C899      1.0  0.29286  0.70009  0.07325  1.0000
  H   H1050     1.0  0.26460  0.76224  0.47592  1.0000
  C   C900      1.0  0.30202  0.70200  0.08760  1.0000
  Fe  Fe130     1.0  0.44142  0.99423  0.15133  1.0000
  C   C901      1.0  0.30963  0.71325  0.08258  1.0000
  H   H1051     1.0  0.26413  0.70643  0.02441  1.0000
  H   H1052     1.0  0.31632  0.71459  0.09446  1.0000
  H   H1053     1.0  0.40189  0.87324  0.42733  1.0000
  H   H1054     1.0  0.38359  0.67856  0.12731  1.0000
  C   C902      1.0  0.27030  0.72939  0.27786  1.0000
  C   C903      1.0  0.38583  0.82651  0.10942  1.0000
  C   C904      1.0  0.40366  0.82883  0.00327  1.0000
  H   H1055     1.0  0.28356  0.75553  0.23960  1.0000
  C   C905      1.0  0.26273  0.72020  0.04665  1.0000
  H   H1056     1.0  0.46635  0.87267  0.03758  1.0000
  H   H1057     1.0  0.41479  0.98056  0.40248  1.0000
  H   H1058     1.0  0.27378  0.77578  0.18612  1.0000
  C   C906      1.0  0.37128  0.83063  0.08442  1.0000
  S   S260      1.0  0.25977  0.73783  0.07458  1.0000
  H   H1059     1.0  0.38052  0.70517  0.09016  1.0000
  N   N59       1.0  0.45009  0.94030  0.33149  1.0000
  C   C907      1.0  0.45989  0.94345  0.34530  1.0000
  C   C908      1.0  0.43956  0.94282  0.34838  1.0000
  C   C909      1.0  0.44749  0.92737  0.33392  1.0000
  C   C910      1.0  0.45277  0.94680  0.30069  1.0000
  C   C911      1.0  0.44398  0.94536  0.28513  1.0000
  C   C912      1.0  0.46410  0.95441  0.28508  1.0000
  C   C913      1.0  0.44634  0.95117  0.25591  1.0000
  C   C914      1.0  0.46634  0.96021  0.25581  1.0000
  C   C915      1.0  0.45748  0.95858  0.24128  1.0000
  H   H1060     1.0  0.46220  0.95308  0.34444  1.0000
  H   H1061     1.0  0.45744  0.93862  0.36859  1.0000
  H   H1062     1.0  0.46789  0.94097  0.33518  1.0000
  H   H1063     1.0  0.44048  0.95253  0.34473  1.0000
  H   H1064     1.0  0.43794  0.93898  0.37201  1.0000
  H   H1065     1.0  0.43131  0.93891  0.34282  1.0000
  H   H1066     1.0  0.44553  0.92217  0.35681  1.0000
  H   H1067     1.0  0.43964  0.92415  0.32598  1.0000
  H   H1068     1.0  0.45509  0.92505  0.32116  1.0000
  H   H1069     1.0  0.43516  0.93973  0.29540  1.0000
  H   H1070     1.0  0.47138  0.95598  0.29489  1.0000
  H   H1071     1.0  0.43946  0.94995  0.24449  1.0000
  H   H1072     1.0  0.47500  0.96598  0.24408  1.0000
  H   H1073     1.0  0.45926  0.96303  0.21857  1.0000
  N   N60       1.0  0.39277  0.69157  0.33503  1.0000
  C   C916      1.0  0.39866  0.69276  0.30435  1.0000
  H   H1074     1.0  0.39842  0.69047  0.37468  1.0000
  N   N61       1.0  0.49976  0.99107  0.29253  1.0000
  Fe  Fe131     1.0  0.44497  0.84110  0.01976  1.0000
  H   H1075     1.0  0.27254  0.72762  0.23415  1.0000
  H   H1076     1.0  0.39372  0.69622  0.28912  1.0000
  H   H1077     1.0  0.37949  0.80494  0.09898  1.0000
  Fe  Fe132     1.0  0.26487  0.72942  0.11428  1.0000
  H   H1078     1.0  0.45375  0.90142  0.39312  1.0000
  C   C917      1.0  0.44300  0.77462  0.04120  1.0000
  C   C918      1.0  0.41306  0.98661  0.06625  1.0000
  S   S261      1.0  0.49668  0.94357  0.01246  1.0000
  H   H1079     1.0  0.48272  0.98246  0.28826  1.0000
  C   C919      1.0  0.25612  0.74000  0.29330  1.0000
  C   C920      1.0  0.39847  0.97717  0.03023  1.0000
  H   H1080     1.0  0.43837  0.93415  0.02784  1.0000
  N   N62       1.0  0.35664  0.75385  0.21566  1.0000
  C   C921      1.0  0.35578  0.76155  0.18860  1.0000
  C   C922      1.0  0.34615  0.75265  0.23914  1.0000
  C   C923      1.0  0.36722  0.76008  0.22340  1.0000
  C   C924      1.0  0.35701  0.74191  0.21179  1.0000
  C   C925      1.0  0.34825  0.73544  0.20101  1.0000
  C   C926      1.0  0.36558  0.73616  0.21969  1.0000
  C   C927      1.0  0.34829  0.72409  0.19753  1.0000
  C   C928      1.0  0.36544  0.72474  0.21643  1.0000
  C   C929      1.0  0.35688  0.71876  0.20519  1.0000
  H   H1081     1.0  0.35661  0.77088  0.18997  1.0000
  H   H1082     1.0  0.36290  0.76168  0.16985  1.0000
  H   H1083     1.0  0.34715  0.75867  0.18358  1.0000
  H   H1084     1.0  0.33782  0.74824  0.23460  1.0000
  H   H1085     1.0  0.34525  0.76144  0.24227  1.0000
  H   H1086     1.0  0.34664  0.74719  0.26000  1.0000
  H   H1087     1.0  0.36789  0.75545  0.24495  1.0000
  H   H1088     1.0  0.37551  0.76089  0.20707  1.0000
  H   H1089     1.0  0.36701  0.76926  0.22474  1.0000
  H   H1090     1.0  0.34120  0.73905  0.19542  1.0000
  H   H1091     1.0  0.37248  0.74025  0.22854  1.0000
  H   H1092     1.0  0.35687  0.70993  0.20258  1.0000
  H   H1093     1.0  0.37199  0.72045  0.22276  1.0000
  H   H1094     1.0  0.40492  0.83116  0.07026  1.0000
  H   H1095     1.0  0.43724  0.79087  0.00351  1.0000
  S   S262      1.0  0.47418  0.95761  0.46460  1.0000
  H   H1096     1.0  0.43816  0.74285  0.05152  1.0000
  H   H1097     1.0  0.44919  0.96859  0.47047  1.0000
  C   C930      1.0  0.49719  0.98431  0.32308  1.0000
  C   C931      1.0  0.42244  0.78410  0.08864  1.0000
  N   N63       1.0  0.28857  0.77090  0.00573  1.0000
  H   H1098     1.0  0.45505  0.80433  0.46089  1.0000
  H   H1099     1.0  0.37646  0.68432  0.08952  1.0000
  C   C932      1.0  0.49226  0.97196  0.38212  1.0000
  H   H1100     1.0  0.40114  0.98673  0.02313  1.0000
  H   H1101     1.0  0.38856  0.94282  0.05181  1.0000
  C   C933      1.0  0.28200  0.78528  0.33457  1.0000
  H   H1102     1.0  0.27319  0.76068  0.18618  1.0000
  C   C934      1.0  0.47990  0.71445  0.00814  1.0000
  H   H1103     1.0  0.43750  0.79335  0.22768  1.0000
  C   C935      1.0  0.50136  0.99473  0.17164  1.0000
  H   H1104     1.0  0.46293  0.87376  0.40216  1.0000
  H   H1105     1.0  0.31437  0.73157  0.05926  1.0000
  H   H1106     1.0  0.25925  0.78061  0.45874  1.0000
  S   S263      1.0  0.44730  0.73500  0.00263  1.0000
  S   S264      1.0  0.25780  0.77438  0.39805  1.0000
  C   C936      1.0  0.39148  0.82496  0.00738  1.0000
  H   H1107     1.0  0.49050  0.96734  0.40470  1.0000
  N   N64       1.0  0.46681  0.95938  0.05730  1.0000
  C   C937      1.0  0.46455  0.96947  0.03778  1.0000
  C   C938      1.0  0.46344  0.96061  0.08724  1.0000
  C   C939      1.0  0.40069  0.82937  0.05348  1.0000
  C   C940      1.0  0.46013  0.94761  0.05594  1.0000
  C   C941      1.0  0.46193  0.93705  0.07178  1.0000
  C   C942      1.0  0.45143  0.94620  0.04005  1.0000
  C   C943      1.0  0.45554  0.92585  0.07141  1.0000
  C   C944      1.0  0.44498  0.93496  0.04012  1.0000
  C   C945      1.0  0.44704  0.92481  0.05570  1.0000
  H   H1108     1.0  0.45515  0.96966  0.04375  1.0000
  H   H1109     1.0  0.46986  0.97816  0.03875  1.0000
  H   H1110     1.0  0.46686  0.96898  0.01486  1.0000
  H   H1111     1.0  0.46572  0.95390  0.10296  1.0000
  H   H1112     1.0  0.28591  0.75061  0.29896  1.0000
  H   H1113     1.0  0.41680  0.99051  0.08238  1.0000
  H   H1114     1.0  0.32086  0.77320  0.26093  1.0000
  H   H1115     1.0  0.41386  0.97907  0.48009  1.0000
  C   C946      1.0  0.46170  0.79001  0.44812  1.0000
  H   H1116     1.0  0.45014  0.89220  0.35185  1.0000
  H   H1117     1.0  0.35638  0.84983  0.33532  1.0000
  H   H1118     1.0  0.29296  0.79866  0.27966  1.0000
  C   C947      1.0  0.43104  0.78637  0.06202  1.0000
  H   H1119     1.0  0.40379  0.68134  0.35224  1.0000
  C   C948      1.0  0.40205  0.97034  0.10690  1.0000
  Fe  Fe133     1.0  0.43576  0.74061  0.43529  1.0000
  C   C949      1.0  0.39111  0.68531  0.12766  1.0000
  H   H1120     1.0  0.30604  0.75425  0.26819  1.0000
  H   H1121     1.0  0.44561  0.74626  0.28159  1.0000
  H   H1122     1.0  0.41155  0.71124  0.08971  1.0000
  H   H1123     1.0  0.30712  0.80303  0.28685  1.0000
  C   C950      1.0  0.31198  0.77171  0.27414  1.0000
  C   C951      1.0  0.39834  0.84400  0.32378  1.0000
  C   C952      1.0  0.29229  0.75904  0.29537  1.0000
  C   C953      1.0  0.28917  0.76768  0.30865  1.0000
  S   S265      1.0  0.49505  0.68319  0.44500  1.0000
  S   S266      1.0  0.43277  0.84041  0.06219  1.0000
  S   S267      1.0  0.26333  0.74286  0.40338  1.0000
  C   C954      1.0  0.29750  0.79951  0.29716  1.0000
  C   C955      1.0  0.30901  0.78039  0.28741  1.0000
  C   C956      1.0  0.30364  0.76105  0.27815  1.0000
  H   H1124     1.0  0.29487  0.80654  0.30692  1.0000
  H   H1125     1.0  0.31590  0.78837  0.28416  1.0000
  C   C957      1.0  0.28869  0.80035  0.41539  1.0000
  H   H1126     1.0  0.39776  0.71047  0.33012  1.0000
  H   H1127     1.0  0.39332  0.96425  0.11943  1.0000
  C   C958      1.0  0.41448  0.73508  0.12429  1.0000
  C   C959      1.0  0.45316  0.87230  0.40820  1.0000
  N   N65       1.0  0.29465  0.78801  0.31902  1.0000
  C   C960      1.0  0.29749  0.77870  0.30491  1.0000
  C   C961      1.0  0.39648  0.81498  0.40351  1.0000
  H   H1128     1.0  0.41670  0.94524  0.09936  1.0000
  C   C962      1.0  0.45137  0.75657  0.33869  1.0000
  N   N66       1.0  0.36926  0.84520  0.30469  1.0000
  C   C963      1.0  0.40770  0.81310  0.40102  1.0000
  C   C964      1.0  0.25899  0.73769  0.01927  1.0000
  H   H1129     1.0  0.48819  0.92113  0.45384  1.0000
  H   H1130     1.0  0.49213  0.80795  0.45188  1.0000
  C   C965      1.0  0.45717  0.91123  0.00251  1.0000
  C   C966      1.0  0.43875  0.80632  0.06784  1.0000
  H   H1131     1.0  0.31143  0.79229  0.32986  1.0000
  C   C967      1.0  0.40155  0.68994  0.35207  1.0000
  C   C968      1.0  0.49985  0.96887  0.36106  1.0000
  H   H1132     1.0  0.30282  0.76230  0.11169  1.0000
  H   H1133     1.0  0.29807  0.67866  0.08292  1.0000
  C   C969      1.0  0.39571  0.97095  0.01004  1.0000
  H   H1134     1.0  0.45325  0.78504  0.44676  1.0000
  C   C970      1.0  0.25949  0.73708  0.24466  1.0000
  H   H1135     1.0  0.26214  0.79843  0.39875  1.0000
  Fe  Fe134     1.0  0.49242  0.95617  0.46591  1.0000
  C   C971      1.0  0.43082  0.83626  0.12037  1.0000
  H   H1136     1.0  0.44510  0.81495  0.05981  1.0000
  S   S268      1.0  0.44215  0.82622  0.99826  1.0000
  N   N67       1.0  0.44950  0.88273  0.39473  1.0000
  C   C972      1.0  0.46273  0.80097  0.45588  1.0000
  C   C973      1.0  0.44225  0.79316  0.20571  1.0000
  C   C974      1.0  0.40437  0.69918  0.05086  1.0000
  C   C975      1.0  0.30853  0.72285  0.06273  1.0000
  H   H1137     1.0  0.43432  0.76804  0.16584  1.0000
  H   H1138     1.0  0.43482  0.72482  0.38717  1.0000
  C   C976      1.0  0.49484  0.89405  0.99642  1.0000
  H   H1139     1.0  0.47234  0.92501  0.00082  1.0000
  C   C977      1.0  0.26071  0.73144  0.04493  1.0000
  H   H1140     1.0  0.45622  0.79297  0.35321  1.0000
  C   C978      1.0  0.48044  0.89093  0.46346  1.0000
  S   S269      1.0  0.40700  0.93455  0.01259  1.0000
  H   H1141     1.0  0.45377  0.89180  0.42687  1.0000
  C   C979      1.0  0.43490  0.74216  0.09688  1.0000
  H   H1142     1.0  0.42520  0.97023  0.31490  1.0000
  H   H1143     1.0  0.42228  0.83813  0.12203  1.0000
  C   C980      1.0  0.39417  0.68443  0.15403  1.0000
  H   H1144     1.0  0.46461  0.78646  0.32900  1.0000
  H   H1145     1.0  0.38350  0.70483  0.32435  1.0000
  H   H1146     1.0  0.29601  0.68298  0.04738  1.0000
  H   H1147     1.0  0.31594  0.79725  0.12115  1.0000
  C   C981      1.0  0.44887  0.83428  0.09137  1.0000
  H   H1148     1.0  0.27610  0.78406  0.31992  1.0000
  H   H1149     1.0  0.40949  0.79999  0.34589  1.0000
  C   C982      1.0  0.45552  0.78696  0.33852  1.0000
  H   H1150     1.0  0.43519  0.78122  0.38155  1.0000
  H   H1151     1.0  0.45207  0.77660  0.39431  1.0000
  H   H1152     1.0  0.37418  0.89430  0.41165  1.0000
  C   C983      1.0  0.50234  0.97493  0.33195  1.0000
  H   H1153     1.0  0.44414  0.74548  0.09596  1.0000
  H   H1154     1.0  0.44621  0.80009  0.03251  1.0000
  C   C984      1.0  0.49594  0.00023  0.19134  1.0000
  C   C985      1.0  0.37270  0.85731  0.28521  1.0000
  H   H1155     1.0  0.31782  0.82675  0.04534  1.0000
  H   H1156     1.0  0.36623  0.85856  0.27218  1.0000
  C   C986      1.0  0.43647  0.88027  0.40399  1.0000
  S   S270      1.0  0.29917  0.81123  0.42413  1.0000
  H   H1157     1.0  0.32467  0.77416  0.03159  1.0000
  H   H1158     1.0  0.36767  0.80790  0.08333  1.0000
  H   H1159     1.0  0.45221  0.79139  0.32071  1.0000
  H   H1160     1.0  0.29877  0.81790  0.03620  1.0000
  H   H1161     1.0  0.42254  0.76008  0.04304  1.0000
  C   C987      1.0  0.29984  0.72124  0.04770  1.0000
  S   S271      1.0  0.25582  0.73897  0.21115  1.0000
  N   N68       1.0  0.44773  0.77499  0.35404  1.0000
  C   C988      1.0  0.43560  0.77605  0.36495  1.0000
  C   C989      1.0  0.45207  0.77060  0.37954  1.0000
  H   H1162     1.0  0.43215  0.78058  0.34757  1.0000
  H   H1163     1.0  0.44634  0.76176  0.39263  1.0000
  H   H1164     1.0  0.46133  0.76995  0.37317  1.0000
  H   H1165     1.0  0.42159  0.78520  0.01695  1.0000
  H   H1166     1.0  0.45157  0.68184  0.00781  1.0000
  C   C990      1.0  0.30459  0.82600  0.02135  1.0000
  H   H1167     1.0  0.39940  0.97143  0.47946  1.0000
  H   H1168     1.0  0.42931  0.76715  0.37497  1.0000
  H   H1169     1.0  0.46825  0.93740  0.08472  1.0000
  H   H1170     1.0  0.45865  0.78695  0.08516  1.0000
  H   H1171     1.0  0.45856  0.96678  0.42242  1.0000
  S   S272      1.0  0.43143  0.72629  0.47625  1.0000
  H   H1172     1.0  0.36634  0.84152  0.36506  1.0000
  H   H1173     1.0  0.40736  0.84470  0.31257  1.0000
  H   H1174     1.0  0.29977  0.79623  0.35174  1.0000
  H   H1175     1.0  0.45510  0.87627  0.08126  1.0000
  H   H1176     1.0  0.39724  0.85666  0.48483  1.0000
  H   H1177     1.0  0.30332  0.69482  0.10306  1.0000
  S   S273      1.0  0.33977  0.79750  0.99606  1.0000
  C   C991      1.0  0.48817  0.72548  0.99314  1.0000
  H   H1178     1.0  0.39190  0.82086  0.11389  1.0000
  C   C992      1.0  0.39201  0.79601  0.32392  1.0000
  H   H1179     1.0  0.44035  0.77791  0.30404  1.0000
  C   C993      1.0  0.29577  0.77327  0.17089  1.0000
  H   H1180     1.0  0.44323  0.89639  0.00642  1.0000
  H   H1181     1.0  0.29307  0.82701  0.99359  1.0000
  C   C994      1.0  0.44337  0.96783  0.40571  1.0000
  C   C995      1.0  0.44757  0.76716  0.33403  1.0000
  H   H1182     1.0  0.38794  0.82318  0.98948  1.0000
  H   H1183     1.0  0.44905  0.80627  0.14674  1.0000
  H   H1184     1.0  0.37447  0.82012  0.03664  1.0000
  H   H1185     1.0  0.28413  0.74951  0.04539  1.0000
  H   H1186     1.0  0.37718  0.83860  0.26930  1.0000
  C   C996      1.0  0.48354  0.69030  0.45300  1.0000
  H   H1187     1.0  0.27668  0.72454  0.28246  1.0000
  H   H1188     1.0  0.43317  0.76987  0.21267  1.0000
  H   H1189     1.0  0.40713  0.93598  0.28132  1.0000
  C   C997      1.0  0.38820  0.82545  0.05840  1.0000
  H   H1190     1.0  0.25551  0.69814  0.11862  1.0000
  H   H1191     1.0  0.36794  0.82741  0.30043  1.0000
  C   C998      1.0  0.37800  0.84410  0.32196  1.0000
  C   C999      1.0  0.44339  0.77001  0.30898  1.0000
  H   H1192     1.0  0.45450  0.75350  0.35733  1.0000
  C   C1000     1.0  0.43903  0.87459  0.03180  1.0000
  H   H1193     1.0  0.43005  0.80441  0.17546  1.0000
  C   C1001     1.0  0.40333  0.69310  0.15699  1.0000
  C   C1002     1.0  0.45602  0.89109  0.02962  1.0000
  Fe  Fe135     1.0  0.45715  0.75471  0.44928  1.0000
  H   H1194     1.0  0.43785  0.93049  0.46332  1.0000
  H   H1195     1.0  0.27206  0.76065  0.03658  1.0000
  H   H1196     1.0  0.36541  0.82791  0.07063  1.0000
  C   C1003     1.0  0.45398  0.94221  0.46422  1.0000
  N   N69       1.0  0.43404  0.78767  0.19015  1.0000
  H   H1197     1.0  0.41967  0.79463  0.20723  1.0000
  S   S274      1.0  0.44537  0.98327  0.18953  1.0000
  H   H1198     1.0  0.28060  0.77138  0.41158  1.0000
  H   H1199     1.0  0.37923  0.81739  0.34059  1.0000
  H   H1200     1.0  0.46800  0.96945  0.08925  1.0000
  C   C1004     1.0  0.30142  0.83129  0.99684  1.0000
  C   C1005     1.0  0.43984  0.77654  0.15237  1.0000
  S   S275      1.0  0.45499  0.74100  0.42346  1.0000
  C   C1006     1.0  0.39401  0.95856  0.06633  1.0000
  C   C1007     1.0  0.48883  0.88816  0.47801  1.0000
  Fe  Fe136     1.0  0.45103  0.72747  0.46624  1.0000
  H   H1201     1.0  0.26392  0.71527  0.06648  1.0000
  C   C1008     1.0  0.26280  0.71520  0.02287  1.0000
  H   H1202     1.0  0.46875  0.73099  0.02299  1.0000
  H   H1203     1.0  0.38125  0.83985  0.39129  1.0000
  H   H1204     1.0  0.37919  0.81056  0.31135  1.0000
  C   C1009     1.0  0.38364  0.84122  0.36802  1.0000
  H   H1205     1.0  0.39278  0.81939  0.31416  1.0000
  C   C1010     1.0  0.38433  0.81284  0.32696  1.0000
  H   H1206     1.0  0.29706  0.78600  0.42043  1.0000
  Fe  Fe137     1.0  0.25532  0.73488  0.37154  1.0000
  C   C1011     1.0  0.42595  0.96961  0.43941  1.0000
  H   H1207     1.0  0.36986  0.79814  0.37639  1.0000
  C   C1012     1.0  0.29281  0.75527  0.04215  1.0000
  H   H1208     1.0  0.42288  0.77642  0.23081  1.0000
  C   C1013     1.0  0.42553  0.79489  0.18619  1.0000
  C   C1014     1.0  0.47168  0.78561  0.44178  1.0000
  C   C1015     1.0  0.41259  0.98102  0.42538  1.0000
  H   H1209     1.0  0.38111  0.81325  0.38753  1.0000
  C   C1016     1.0  0.44813  0.79778  0.14151  1.0000
  C   C1017     1.0  0.44274  0.76258  0.29026  1.0000
  C   C1018     1.0  0.45085  0.74929  0.31958  1.0000
  C   C1019     1.0  0.39522  0.84208  0.35368  1.0000
  C   C1020     1.0  0.36192  0.68446  0.19563  1.0000
  C   C1021     1.0  0.30308  0.78501  0.15836  1.0000
  N   N70       1.0  0.38654  0.80219  0.34435  1.0000
  Fe  Fe138     1.0  0.40866  0.92952  0.46929  1.0000
  S   S276      1.0  0.47136  0.77210  0.43154  1.0000
  C   C1022     1.0  0.38974  0.70280  0.33750  1.0000
  H   H1210     1.0  0.45348  0.74109  0.32399  1.0000
  H   H1211     1.0  0.41971  0.79153  0.17294  1.0000
  H   H1212     1.0  0.43913  0.76474  0.27186  1.0000
  S   S277      1.0  0.30594  0.73580  0.12336  1.0000
  S   S278      1.0  0.27539  0.74179  0.13430  1.0000
  C   C1023     1.0  0.44643  0.75221  0.29562  1.0000
  C   C1024     1.0  0.38384  0.82326  0.03448  1.0000
  S   S279      1.0  0.41506  0.73429  0.04149  1.0000
  C   C1025     1.0  0.48261  0.79231  0.44280  1.0000
  H   H1213     1.0  0.41867  0.98919  0.42700  1.0000
  H   H1214     1.0  0.38619  0.79326  0.31001  1.0000
  H   H1215     1.0  0.27251  0.79160  0.47469  1.0000
  H   H1216     1.0  0.40180  0.84132  0.36571  1.0000
  H   H1217     1.0  0.30348  0.79184  0.16988  1.0000
  H   H1218     1.0  0.40040  0.80187  0.30896  1.0000
  H   H1219     1.0  0.42552  0.95745  0.99217  1.0000
  C   C1026     1.0  0.40957  0.70263  0.13351  1.0000
  H   H1220     1.0  0.39388  0.78783  0.33543  1.0000
  C   C1027     1.0  0.45454  0.79763  0.11437  1.0000
  C   C1028     1.0  0.42917  0.87085  0.39682  1.0000
  H   H1221     1.0  0.41302  0.81596  0.41515  1.0000
  H   H1222     1.0  0.43485  0.86489  0.04032  1.0000
  C   C1029     1.0  0.48341  0.70393  0.01349  1.0000
  C   C1030     1.0  0.41109  0.73371  0.09901  1.0000
  C   C1031     1.0  0.27710  0.76998  0.02576  1.0000
  C   C1032     1.0  0.37505  0.79398  0.36184  1.0000
  H   H1223     1.0  0.42012  0.77145  0.20030  1.0000
  H   H1224     1.0  0.36927  0.79106  0.34797  1.0000
  C   C1033     1.0  0.40542  0.80408  0.36162  1.0000
  C   C1034     1.0  0.47375  0.80750  0.45735  1.0000
  H   H1225     1.0  0.29565  0.78946  0.00275  1.0000
  H   H1226     1.0  0.46730  0.98663  0.19783  1.0000
  H   H1227     1.0  0.41276  0.99421  0.04932  1.0000
  H   H1228     1.0  0.42280  0.76163  0.07850  1.0000
  C   C1035     1.0  0.47675  0.98891  0.19020  1.0000
  H   H1229     1.0  0.37996  0.86406  0.46564  1.0000
  C   C1036     1.0  0.28979  0.77841  0.21749  1.0000
  C   C1037     1.0  0.39728  0.69495  0.10326  1.0000
  C   C1038     1.0  0.41219  0.80777  0.37997  1.0000
  C   C1039     1.0  0.29209  0.71005  0.05274  1.0000
  N   N71       1.0  0.28776  0.76954  0.20038  1.0000
  H   H1230     1.0  0.40183  0.73047  0.09999  1.0000
  C   C1040     1.0  0.44712  0.87488  0.07277  1.0000
  H   H1231     1.0  0.28776  0.78680  0.20790  1.0000
  H   H1232     1.0  0.39307  0.81922  0.41981  1.0000
  H   H1233     1.0  0.46324  0.88742  0.35513  1.0000
  C   C1041     1.0  0.38512  0.68607  0.07362  1.0000
  H   H1234     1.0  0.40657  0.95146  0.45520  1.0000
  H   H1235     1.0  0.28402  0.77510  0.23994  1.0000
  Fe  Fe139     1.0  0.28621  0.72865  0.13835  1.0000
  H   H1236     1.0  0.31574  0.78274  0.09143  1.0000
  C   C1042     1.0  0.50354  0.71467  0.98902  1.0000
  C   C1043     1.0  0.45815  0.87126  0.03001  1.0000
  C   C1044     1.0  0.31570  0.76893  0.03475  1.0000
  H   H1237     1.0  0.45388  0.86155  0.03751  1.0000
  H   H1238     1.0  0.47926  0.71825  0.44475  1.0000
  H   H1239     1.0  0.41151  0.86099  0.39978  1.0000
  H   H1240     1.0  0.41524  0.79095  0.12394  1.0000
  C   C1045     1.0  0.46572  0.70216  0.46693  1.0000
  Fe  Fe140     1.0  0.42903  0.73594  0.00106  1.0000
  C   C1046     1.0  0.39215  0.95860  0.01790  1.0000
  N   N72       1.0  0.37991  0.82343  0.08695  1.0000
  H   H1241     1.0  0.40510  0.97568  0.12152  1.0000
  H   H1242     1.0  0.42707  0.97225  0.26241  1.0000
  H   H1243     1.0  0.44557  0.76816  0.11896  1.0000
  C   C1047     1.0  0.43064  0.88688  0.42052  1.0000
  C   C1048     1.0  0.41143  0.87511  0.42102  1.0000
  C   C1049     1.0  0.31026  0.78831  0.13010  1.0000
  C   C1050     1.0  0.30288  0.76869  0.12468  1.0000
  H   H1244     1.0  0.33135  0.84503  0.01115  1.0000
  H   H1245     1.0  0.41773  0.83397  0.02302  1.0000
  H   H1246     1.0  0.36519  0.82966  0.10579  1.0000
  C   C1051     1.0  0.47720  0.70868  0.45137  1.0000
  S   S280      1.0  0.45212  0.98733  0.11843  1.0000
  H   H1247     1.0  0.44434  0.77074  0.06261  1.0000
  N   N73       1.0  0.45012  0.87823  0.04073  1.0000
  C   C1052     1.0  0.41831  0.88433  0.42869  1.0000
  C   C1053     1.0  0.27539  0.76755  0.19805  1.0000
  C   C1054     1.0  0.42198  0.79280  0.10395  1.0000
  H   H1248     1.0  0.45059  0.78248  0.03015  1.0000
  H   H1249     1.0  0.39177  0.99084  0.06762  1.0000
  C   C1055     1.0  0.47970  0.96055  0.04894  1.0000
  C   C1056     1.0  0.30177  0.78942  0.34024  1.0000
  C   C1057     1.0  0.29663  0.76659  0.02213  1.0000
  H   H1250     1.0  0.48920  0.87905  0.48443  1.0000
  N   N74       1.0  0.43147  0.77762  0.04445  1.0000
  H   H1251     1.0  0.48148  0.98369  0.39090  1.0000
  H   H1252     1.0  0.45374  0.95953  0.09441  1.0000
  H   H1253     1.0  0.46564  0.89464  0.39607  1.0000
  C   C1058     1.0  0.41962  0.73628  0.07272  1.0000
  H   H1254     1.0  0.48499  0.96940  0.04910  1.0000
  Fe  Fe141     1.0  0.46409  0.83331  0.47287  1.0000
  H   H1255     1.0  0.34297  0.85781  0.47332  1.0000
  C   C1059     1.0  0.25916  0.73275  0.99551  1.0000
  H   H1256     1.0  0.29910  0.78045  0.21929  1.0000
  H   H1257     1.0  0.28005  0.79253  0.34441  1.0000
  C   C1060     1.0  0.43788  0.83675  0.09328  1.0000
  C   C1061     1.0  0.28942  0.78867  0.41583  1.0000
  H   H1258     1.0  0.49492  0.70789  0.43277  1.0000
  C   C1062     1.0  0.45134  0.89915  0.01255  1.0000
  H   H1259     1.0  0.48098  0.91147  0.03012  1.0000
  H   H1260     1.0  0.39337  0.95315  0.08742  1.0000
  C   C1063     1.0  0.45363  0.78700  0.10621  1.0000
  C   C1064     1.0  0.44627  0.77649  0.12515  1.0000
  C   C1065     1.0  0.26088  0.72141  0.99734  1.0000
  C   C1066     1.0  0.44432  0.96879  0.45397  1.0000
  C   C1067     1.0  0.47204  0.68381  0.46830  1.0000
  C   C1068     1.0  0.43008  0.80390  0.09349  1.0000
  C   C1069     1.0  0.29585  0.76525  0.15303  1.0000
  C   C1070     1.0  0.43154  0.74059  0.07170  1.0000
  H   H1261     1.0  0.28676  0.75072  0.20768  1.0000
  C   C1071     1.0  0.29131  0.67980  0.07072  1.0000
  H   H1262     1.0  0.41591  0.77569  0.09807  1.0000
  H   H1263     1.0  0.41657  0.70950  0.13595  1.0000
  H   H1264     1.0  0.44137  0.88016  0.08185  1.0000
  H   H1265     1.0  0.30001  0.78093  0.35688  1.0000
  S   S281      1.0  0.41211  0.91160  0.47007  1.0000
  S   S282      1.0  0.26687  0.73069  0.33418  1.0000
  H   H1266     1.0  0.45715  0.91793  0.08343  1.0000
  C   C1072     1.0  0.47661  0.79459  0.99130  1.0000
  H   H1267     1.0  0.46085  0.87369  0.00602  1.0000
  C   C1073     1.0  0.30843  0.77324  0.01849  1.0000
  C   C1074     1.0  0.28009  0.78039  0.41076  1.0000
  H   H1268     1.0  0.48254  0.95399  0.06370  1.0000
  H   H1269     1.0  0.45027  0.87693  0.35529  1.0000
  H   H1270     1.0  0.25909  0.69990  0.27478  1.0000
  H   H1271     1.0  0.42715  0.96852  0.39486  1.0000
  H   H1272     1.0  0.27938  0.77714  0.35272  1.0000
  H   H1273     1.0  0.38841  0.67798  0.07722  1.0000
  H   H1274     1.0  0.46021  0.80583  0.09954  1.0000
  C   C1075     1.0  0.37335  0.81073  0.09743  1.0000
  C   C1076     1.0  0.43929  0.79771  0.05234  1.0000
  H   H1275     1.0  0.44236  0.86529  0.08180  1.0000
  H   H1276     1.0  0.40345  0.98215  0.43007  1.0000
  H   H1277     1.0  0.29855  0.75939  0.21836  1.0000
  H   H1278     1.0  0.41403  0.88956  0.44104  1.0000
  C   C1077     1.0  0.38849  0.70676  0.07214  1.0000
  C   C1078     1.0  0.42205  0.76635  0.05709  1.0000
  C   C1079     1.0  0.27015  0.78387  0.40451  1.0000
  H   H1279     1.0  0.42967  0.81065  0.10530  1.0000
  C   C1080     1.0  0.46778  0.91566  0.00897  1.0000
  H   H1280     1.0  0.44698  0.80253  0.19446  1.0000
  H   H1281     1.0  0.44073  0.87645  0.00786  1.0000
  H   H1282     1.0  0.36738  0.80886  0.11934  1.0000
  H   H1283     1.0  0.29685  0.74254  0.07407  1.0000
  C   C1081     1.0  0.27491  0.68786  0.06512  1.0000
  H   H1284     1.0  0.44364  0.76804  0.02806  1.0000
  C   C1082     1.0  0.48359  0.80303  0.45088  1.0000
  S   S283      1.0  0.47594  0.82087  0.46874  1.0000
  H   H1285     1.0  0.40847  0.96497  0.10268  1.0000
  H   H1286     1.0  0.46988  0.67423  0.47470  1.0000
  C   C1083     1.0  0.40824  0.83103  0.02626  1.0000
  C   C1084     1.0  0.27915  0.68389  0.11141  1.0000
  H   H1287     1.0  0.44928  0.86415  0.40213  1.0000
  H   H1288     1.0  0.27112  0.77386  0.01424  1.0000
  C   C1085     1.0  0.47257  0.90803  0.02570  1.0000
  C   C1086     1.0  0.30010  0.75111  0.05846  1.0000
  H   H1289     1.0  0.43294  0.86525  0.38491  1.0000
  H   H1290     1.0  0.40193  0.69948  0.02998  1.0000
  H   H1291     1.0  0.31715  0.75465  0.06755  1.0000
  H   H1292     1.0  0.48576  0.99467  0.34035  1.0000
  C   C1087     1.0  0.44963  0.96778  0.42682  1.0000
  H   H1293     1.0  0.40807  0.95893  0.41846  1.0000
  H   H1294     1.0  0.39985  0.68411  0.30084  1.0000
  H   H1295     1.0  0.44745  0.96689  0.38472  1.0000
  C   C1088     1.0  0.40878  0.97104  0.47542  1.0000
  H   H1296     1.0  0.38347  0.97829  0.09689  1.0000
  H   H1297     1.0  0.29901  0.72875  0.03228  1.0000
  H   H1298     1.0  0.25735  0.74635  0.01780  1.0000
  H   H1299     1.0  0.49856  0.89160  0.01445  1.0000
  H   H1300     1.0  0.43538  0.89406  0.42747  1.0000
  H   H1301     1.0  0.38544  0.70237  0.36026  1.0000
  H   H1302     1.0  0.45031  0.87041  0.43204  1.0000
  H   H1303     1.0  0.41308  0.76784  0.05955  1.0000
  H   H1304     1.0  0.39458  0.98972  0.10258  1.0000
  C   C1089     1.0  0.26418  0.73358  0.29958  1.0000
  H   H1305     1.0  0.47938  0.00151  0.21583  1.0000
  H   H1306     1.0  0.37496  0.68713  0.30738  1.0000
  C   C1090     1.0  0.41685  0.86832  0.40531  1.0000
  C   C1091     1.0  0.46324  0.68971  0.47540  1.0000
  C   C1092     1.0  0.43172  0.96877  0.41178  1.0000
  C   C1093     1.0  0.39798  0.97115  0.05884  1.0000
  C   C1094     1.0  0.37344  0.68086  0.32797  1.0000
  H   H1307     1.0  0.27205  0.67548  0.11705  1.0000
  C   C1095     1.0  0.43268  0.96972  0.46031  1.0000
  H   H1308     1.0  0.31234  0.78179  0.00314  1.0000
  C   C1096     1.0  0.43012  0.78274  0.01539  1.0000
  H   H1309     1.0  0.35464  0.67680  0.19884  1.0000
  C   C1097     1.0  0.49693  0.90926  0.47486  1.0000
  C   C1098     1.0  0.48858  0.99153  0.28409  1.0000
  C   C1099     1.0  0.49703  0.89728  0.48357  1.0000
  S   S284      1.0  0.25776  0.68803  0.17566  1.0000
  C   C1100     1.0  0.45954  0.68653  0.99100  1.0000
  H   H1310     1.0  0.45349  0.91723  0.98948  1.0000
  H   H1311     1.0  0.42911  0.97030  0.48196  1.0000
  H   H1312     1.0  0.39037  0.95373  0.00207  1.0000
  H   H1313     1.0  0.49776  0.69575  0.00699  1.0000
  H   H1314     1.0  0.47055  0.71375  0.01492  1.0000
  H   H1315     1.0  0.26966  0.69409  0.07093  1.0000
  C   C1101     1.0  0.49517  0.70401  0.00369  1.0000
  C   C1102     1.0  0.29332  0.78348  0.98883  1.0000
  H   H1316     1.0  0.36201  0.68107  0.24057  1.0000
  H   H1317     1.0  0.48631  0.87587  0.99830  1.0000
  H   H1318     1.0  0.28230  0.75401  0.99665  1.0000
  H   H1319     1.0  0.43038  0.77639  0.00150  1.0000
  H   H1320     1.0  0.28721  0.76567  0.46732  1.0000
  C   C1103     1.0  0.29176  0.76545  0.48438  1.0000
  C   C1104     1.0  0.32290  0.84129  0.00733  1.0000
  H   H1321     1.0  0.44965  0.94614  0.47994  1.0000
  C   C1105     1.0  0.30143  0.77477  0.48198  1.0000
  H   H1322     1.0  0.48241  0.77882  0.98961  1.0000
  S   S285      1.0  0.47046  0.81511  0.99350  1.0000
  C   C1106     1.0  0.37856  0.67349  0.37245  1.0000
  H   H1323     1.0  0.38411  0.67370  0.38729  1.0000
  H   H1324     1.0  0.33023  0.84577  0.48363  1.0000
  H   H1325     1.0  0.39649  0.97569  0.98806  1.0000
  H   H1326     1.0  0.45440  0.68457  0.48735  1.0000
  S   S286      1.0  0.43881  0.96220  0.66241  1.0000
  H   H1327     1.0  0.49846  0.69598  0.52730  1.0000
  H   H1328     1.0  0.38050  0.67551  0.79649  1.0000
  H   H1329     1.0  0.49420  0.91836  0.94729  1.0000
  C   C1107     1.0  0.43620  0.73247  0.57623  1.0000
  H   H1330     1.0  0.30579  0.74608  0.57060  1.0000
  H   H1331     1.0  0.40978  0.71294  0.62187  1.0000
  C   C1108     1.0  0.26559  0.73746  0.76695  1.0000
  H   H1332     1.0  0.31004  0.75496  0.59416  1.0000
  H   H1333     1.0  0.35953  0.67575  0.80388  1.0000
  H   H1334     1.0  0.38911  0.67944  0.66456  1.0000
  H   H1335     1.0  0.25789  0.73771  0.97583  1.0000
  Fe  Fe142     1.0  0.40868  0.93037  0.96758  1.0000
  H   H1336     1.0  0.41957  0.71668  0.54477  1.0000
  H   H1337     1.0  0.45046  0.67642  0.94947  1.0000
  Fe  Fe143     1.0  0.40828  0.93492  0.90256  1.0000
  S   S287      1.0  0.41372  0.91838  0.89770  1.0000
  S   S288      1.0  0.40354  0.94655  0.86541  1.0000
  Fe  Fe144     1.0  0.40027  0.90917  0.94000  1.0000
  S   S289      1.0  0.39049  0.88953  0.94590  1.0000
  Fe  Fe145     1.0  0.42618  0.92366  0.92419  1.0000
  S   S290      1.0  0.44467  0.92160  0.91569  1.0000
  S   S291      1.0  0.39420  0.92558  0.94456  1.0000
  S   S292      1.0  0.42193  0.94104  0.92588  1.0000
  Fe  Fe146     1.0  0.46500  0.85754  0.96922  1.0000
  H   H1338     1.0  0.48154  0.73355  0.94570  1.0000
  S   S293      1.0  0.47498  0.87721  0.94980  1.0000
  H   H1339     1.0  0.47727  0.99690  0.72620  1.0000
  H   H1340     1.0  0.45500  0.76663  0.57889  1.0000
  C   C1109     1.0  0.30378  0.76493  0.52896  1.0000
  Fe  Fe147     1.0  0.44439  0.84030  0.95802  1.0000
  S   S294      1.0  0.43117  0.83680  0.93161  1.0000
  C   C1110     1.0  0.44430  0.77054  0.51946  1.0000
  C   C1111     1.0  0.30301  0.83830  0.93379  1.0000
  S   S295      1.0  0.46409  0.84370  0.94338  1.0000
  H   H1341     1.0  0.37324  0.86917  0.55426  1.0000
  Fe  Fe148     1.0  0.44786  0.83046  0.70896  1.0000
  S   S296      1.0  0.43151  0.81569  0.71954  1.0000
  S   S297      1.0  0.45959  0.83664  0.66360  1.0000
  Fe  Fe149     1.0  0.44424  0.83264  0.77103  1.0000
  S   S298      1.0  0.42748  0.81803  0.78683  1.0000
  S   S299      1.0  0.45312  0.84287  0.79846  1.0000
  Fe  Fe150     1.0  0.43703  0.80840  0.75904  1.0000
  S   S300      1.0  0.43579  0.78901  0.77634  1.0000
  Fe  Fe151     1.0  0.42324  0.82651  0.74611  1.0000
  S   S301      1.0  0.40486  0.82878  0.74871  1.0000
  S   S302      1.0  0.45427  0.82230  0.74640  1.0000
  S   S303      1.0  0.43923  0.84201  0.73243  1.0000
  Fe  Fe152     1.0  0.31887  0.81451  0.92582  1.0000
  S   S304      1.0  0.32991  0.80160  0.92462  1.0000
  Fe  Fe153     1.0  0.34034  0.83523  0.92474  1.0000
  S   S305      1.0  0.35261  0.82337  0.92295  1.0000
  S   S306      1.0  0.34604  0.85521  0.92266  1.0000
  Fe  Fe154     1.0  0.34348  0.81661  0.89112  1.0000
  S   S307      1.0  0.35398  0.81377  0.85038  1.0000
  Fe  Fe155     1.0  0.33771  0.80967  0.95660  1.0000
  C   C1112     1.0  0.42143  0.70879  0.55599  1.0000
  S   S308      1.0  0.33210  0.82933  0.89046  1.0000
  S   S309      1.0  0.32577  0.82173  0.96027  1.0000
  Fe  Fe156     1.0  0.36053  0.80166  0.67651  1.0000
  S   S310      1.0  0.35539  0.81878  0.67221  1.0000
  S   S311      1.0  0.37945  0.80145  0.67126  1.0000
  Fe  Fe157     1.0  0.33586  0.78730  0.68111  1.0000
  S   S312      1.0  0.32875  0.80332  0.67621  1.0000
  S   S313      1.0  0.32418  0.76885  0.69095  1.0000
  Fe  Fe158     1.0  0.34559  0.81215  0.64154  1.0000
  S   S314      1.0  0.34837  0.82446  0.59766  1.0000
  Fe  Fe159     1.0  0.33924  0.80813  0.70739  1.0000
  S   S315      1.0  0.32986  0.81306  0.74619  1.0000
  S   S316      1.0  0.35178  0.79563  0.64382  1.0000
  S   S317      1.0  0.34533  0.79153  0.71436  1.0000
  Fe  Fe160     1.0  0.43456  0.73910  0.93553  1.0000
  S   S318      1.0  0.42716  0.74353  0.89658  1.0000
  Fe  Fe161     1.0  0.45566  0.97611  0.65582  1.0000
  S   S319      1.0  0.49578  0.94565  0.50532  1.0000
  S   S320      1.0  0.43479  0.75204  0.96354  1.0000
  Fe  Fe162     1.0  0.26279  0.72143  0.63772  1.0000
  Fe  Fe163     1.0  0.40434  0.73603  0.73623  1.0000
  S   S321      1.0  0.42261  0.73393  0.73406  1.0000
  S   S322      1.0  0.40057  0.75385  0.73227  1.0000
  Fe  Fe164     1.0  0.39399  0.71022  0.73923  1.0000
  S   S323      1.0  0.41145  0.70590  0.73770  1.0000
  S   S324      1.0  0.37640  0.69749  0.74328  1.0000
  Fe  Fe165     1.0  0.41361  0.71726  0.76912  1.0000
  S   S325      1.0  0.42119  0.71173  0.80730  1.0000
  Fe  Fe166     1.0  0.41893  0.72303  0.70291  1.0000
  S   S326      1.0  0.43324  0.72533  0.66249  1.0000
  S   S327      1.0  0.39547  0.72017  0.77352  1.0000
  S   S328      1.0  0.40131  0.72648  0.70224  1.0000
  C   C1113     1.0  0.37442  0.69069  0.71511  1.0000
  C   C1114     1.0  0.38389  0.68831  0.69740  1.0000
  C   C1115     1.0  0.38184  0.68170  0.67725  1.0000
  H   H1342     1.0  0.46581  0.67863  0.86088  1.0000
  H   H1343     1.0  0.45444  0.80200  0.96428  1.0000
  H   H1344     1.0  0.39272  0.69120  0.69996  1.0000
  C   C1116     1.0  0.50293  0.98051  0.84571  1.0000
  N   N75       1.0  0.45221  0.77405  0.53771  1.0000
  C   C1117     1.0  0.42558  0.73451  0.87211  1.0000
  C   C1118     1.0  0.42924  0.72403  0.87482  1.0000
  C   C1119     1.0  0.42786  0.71715  0.85482  1.0000
  C   C1120     1.0  0.42283  0.72066  0.83194  1.0000
  C   C1121     1.0  0.41919  0.73115  0.82924  1.0000
  C   C1122     1.0  0.42057  0.73804  0.84919  1.0000
  H   H1345     1.0  0.45910  0.90013  0.87114  1.0000
  H   H1346     1.0  0.43066  0.70904  0.85710  1.0000
  H   H1347     1.0  0.41522  0.73388  0.81191  1.0000
  H   H1348     1.0  0.41764  0.74607  0.84697  1.0000
  H   H1349     1.0  0.31167  0.86144  0.91171  1.0000
  C   C1123     1.0  0.25919  0.73474  0.74695  1.0000
  C   C1124     1.0  0.43263  0.95453  0.53749  1.0000
  C   C1125     1.0  0.36295  0.68658  0.71219  1.0000
  C   C1126     1.0  0.48020  0.69853  0.94818  1.0000
  H   H1350     1.0  0.49042  0.75539  0.96879  1.0000
  H   H1351     1.0  0.41624  0.73727  0.64376  1.0000
  C   C1127     1.0  0.38506  0.89181  0.86353  1.0000
  H   H1352     1.0  0.32046  0.77287  0.74993  1.0000
  S   S329      1.0  0.49049  0.67991  0.95492  1.0000
  C   C1128     1.0  0.31302  0.76778  0.67249  1.0000
  C   C1129     1.0  0.30436  0.75705  0.67887  1.0000
  H   H1353     1.0  0.28555  0.70161  0.67416  1.0000
  C   C1130     1.0  0.29489  0.76580  0.64376  1.0000
  C   C1131     1.0  0.30353  0.77655  0.63745  1.0000
  C   C1132     1.0  0.31262  0.77753  0.65169  1.0000
  C   C1133     1.0  0.38976  0.79003  0.76527  1.0000
  C   C1134     1.0  0.31454  0.85767  0.93103  1.0000
  H   H1354     1.0  0.30322  0.78415  0.62150  1.0000
  H   H1355     1.0  0.31934  0.78581  0.64641  1.0000
  C   C1135     1.0  0.34706  0.81323  0.82186  1.0000
  C   C1136     1.0  0.33565  0.81470  0.82439  1.0000
  C   C1137     1.0  0.33044  0.81458  0.80108  1.0000
  C   C1138     1.0  0.33656  0.81291  0.77521  1.0000
  C   C1139     1.0  0.34789  0.81122  0.77283  1.0000
  C   C1140     1.0  0.35315  0.81143  0.79606  1.0000
  H   H1356     1.0  0.33084  0.81598  0.84423  1.0000
  H   H1357     1.0  0.32166  0.81586  0.80308  1.0000
  H   H1358     1.0  0.35266  0.80993  0.75296  1.0000
  H   H1359     1.0  0.36198  0.81028  0.79395  1.0000
  C   C1141     1.0  0.34016  0.80601  0.52783  1.0000
  C   C1142     1.0  0.33780  0.79941  0.55649  1.0000
  C   C1143     1.0  0.34030  0.80502  0.57800  1.0000
  C   C1144     1.0  0.34548  0.81723  0.57082  1.0000
  C   C1145     1.0  0.34825  0.82377  0.54193  1.0000
  C   C1146     1.0  0.34543  0.81821  0.52053  1.0000
  H   H1360     1.0  0.33396  0.78994  0.56219  1.0000
  H   H1361     1.0  0.33811  0.79989  0.60017  1.0000
  H   H1362     1.0  0.35255  0.83315  0.53609  1.0000
  C   C1147     1.0  0.28799  0.75586  0.50870  1.0000
  C   C1148     1.0  0.42593  0.77915  0.76443  1.0000
  C   C1149     1.0  0.42429  0.76688  0.77406  1.0000
  C   C1150     1.0  0.41646  0.75900  0.76438  1.0000
  C   C1151     1.0  0.41025  0.76339  0.74516  1.0000
  C   C1152     1.0  0.41194  0.77562  0.73556  1.0000
  C   C1153     1.0  0.41972  0.78344  0.74522  1.0000
  H   H1363     1.0  0.42904  0.76346  0.78904  1.0000
  H   H1364     1.0  0.41513  0.74954  0.77201  1.0000
  H   H1365     1.0  0.40728  0.77914  0.72056  1.0000
  H   H1366     1.0  0.42063  0.79276  0.73824  1.0000
  C   C1154     1.0  0.39791  0.82245  0.72499  1.0000
  C   C1155     1.0  0.40446  0.81906  0.70248  1.0000
  C   C1156     1.0  0.39875  0.81278  0.68572  1.0000
  C   C1157     1.0  0.38647  0.81018  0.69082  1.0000
  C   C1158     1.0  0.37991  0.81414  0.71221  1.0000
  C   C1159     1.0  0.38563  0.82021  0.72944  1.0000
  H   H1367     1.0  0.41393  0.82135  0.69777  1.0000
  H   H1368     1.0  0.40388  0.80990  0.66890  1.0000
  H   H1369     1.0  0.37042  0.81224  0.71603  1.0000
  H   H1370     1.0  0.38051  0.82295  0.74657  1.0000
  C   C1160     1.0  0.26776  0.79002  0.92418  1.0000
  H   H1371     1.0  0.43665  0.75800  0.71515  1.0000
  H   H1372     1.0  0.44553  0.76655  0.89489  1.0000
  H   H1373     1.0  0.35895  0.77675  0.74755  1.0000
  S   S330      1.0  0.45502  0.74129  0.49105  1.0000
  H   H1374     1.0  0.28162  0.68650  0.63549  1.0000
  C   C1161     1.0  0.31539  0.77561  0.76805  1.0000
  C   C1162     1.0  0.44011  0.83439  0.64114  1.0000
  C   C1163     1.0  0.45237  0.83621  0.63576  1.0000
  H   H1375     1.0  0.49766  0.98369  0.64459  1.0000
  H   H1376     1.0  0.27198  0.76777  0.84843  1.0000
  H   H1377     1.0  0.32218  0.84377  0.56055  1.0000
  H   H1378     1.0  0.43491  0.83338  0.66273  1.0000
  H   H1379     1.0  0.48796  0.96240  0.91203  1.0000
  H   H1380     1.0  0.43805  0.93543  0.95547  1.0000
  C   C1164     1.0  0.43722  0.83848  0.89459  1.0000
  C   C1165     1.0  0.43026  0.83328  0.87820  1.0000
  C   C1166     1.0  0.43502  0.83451  0.84863  1.0000
  C   C1167     1.0  0.44668  0.84111  0.83531  1.0000
  C   C1168     1.0  0.45354  0.84644  0.85166  1.0000
  C   C1169     1.0  0.44885  0.84508  0.88121  1.0000
  H   H1381     1.0  0.42125  0.82816  0.88849  1.0000
  H   H1382     1.0  0.42971  0.83038  0.83615  1.0000
  H   H1383     1.0  0.46256  0.85154  0.84143  1.0000
  H   H1384     1.0  0.45424  0.84923  0.89352  1.0000
  C   C1170     1.0  0.37782  0.88014  0.94015  1.0000
  C   C1171     1.0  0.36874  0.88444  0.93144  1.0000
  C   C1172     1.0  0.35912  0.87668  0.92636  1.0000
  C   C1173     1.0  0.35831  0.86447  0.93018  1.0000
  C   C1174     1.0  0.36725  0.86011  0.93953  1.0000
  C   C1175     1.0  0.37692  0.86789  0.94436  1.0000
  H   H1385     1.0  0.36908  0.89372  0.92875  1.0000
  H   H1386     1.0  0.35227  0.88019  0.91930  1.0000
  H   H1387     1.0  0.36670  0.85074  0.94315  1.0000
  H   H1388     1.0  0.38376  0.86438  0.95147  1.0000
  C   C1176     1.0  0.29627  0.68459  0.68782  1.0000
  C   C1177     1.0  0.44036  0.76714  0.70092  1.0000
  H   H1389     1.0  0.45322  0.86509  0.59494  1.0000
  C   C1178     1.0  0.48329  0.88811  0.96348  1.0000
  C   C1179     1.0  0.48566  0.90019  0.94924  1.0000
  C   C1180     1.0  0.49243  0.90914  0.95865  1.0000
  H   H1390     1.0  0.48244  0.90271  0.93045  1.0000
  H   H1391     1.0  0.30101  0.84216  0.91321  1.0000
  C   C1181     1.0  0.46626  0.94521  0.95957  1.0000
  C   C1182     1.0  0.47161  0.93860  0.94286  1.0000
  C   C1183     1.0  0.46496  0.93127  0.92952  1.0000
  C   C1184     1.0  0.45289  0.93035  0.93336  1.0000
  C   C1185     1.0  0.44744  0.93650  0.95122  1.0000
  C   C1186     1.0  0.45414  0.94409  0.96380  1.0000
  H   H1392     1.0  0.48088  0.93922  0.93976  1.0000
  H   H1393     1.0  0.46921  0.92638  0.91615  1.0000
  H   H1394     1.0  0.39198  0.69022  0.57788  1.0000
  H   H1395     1.0  0.44171  0.86390  0.57705  1.0000
  S   S331      1.0  0.26773  0.74108  0.89876  1.0000
  C   C1187     1.0  0.47607  0.78364  0.98459  1.0000
  C   C1188     1.0  0.49323  0.98647  0.66257  1.0000
  H   H1396     1.0  0.25753  0.75316  0.51196  1.0000
  H   H1397     1.0  0.39408  0.70651  0.63513  1.0000
  C   C1189     1.0  0.41378  0.96250  0.76616  1.0000
  H   H1398     1.0  0.29042  0.74788  0.54901  1.0000
  C   C1190     1.0  0.40073  0.95830  0.81442  1.0000
  C   C1191     1.0  0.40821  0.95259  0.82706  1.0000
  C   C1192     1.0  0.41865  0.95183  0.80894  1.0000
  C   C1193     1.0  0.42147  0.95686  0.77853  1.0000
  H   H1399     1.0  0.36317  0.75832  0.75130  1.0000
  H   H1400     1.0  0.46598  0.76741  0.51553  1.0000
  H   H1401     1.0  0.42455  0.94748  0.81829  1.0000
  C   C1194     1.0  0.42684  0.95744  0.56225  1.0000
  H   H1402     1.0  0.42050  0.99352  0.70068  1.0000
  C   C1195     1.0  0.42621  0.94805  0.52171  1.0000
  C   C1196     1.0  0.41385  0.94451  0.52998  1.0000
  C   C1197     1.0  0.40807  0.94741  0.55469  1.0000
  C   C1198     1.0  0.41447  0.95373  0.57078  1.0000
  C   C1199     1.0  0.44341  0.89657  0.49185  1.0000
  H   H1403     1.0  0.39852  0.94475  0.56152  1.0000
  H   H1404     1.0  0.40981  0.95582  0.58966  1.0000
  C   C1200     1.0  0.29532  0.75606  0.66450  1.0000
  H   H1405     1.0  0.32747  0.77348  0.52227  1.0000
  S   S332      1.0  0.28392  0.76471  0.62467  1.0000
  C   C1201     1.0  0.48099  0.98216  0.67352  1.0000
  C   C1202     1.0  0.41745  0.88139  0.95142  1.0000
  C   C1203     1.0  0.45140  0.76848  0.87277  1.0000
  C   C1204     1.0  0.28000  0.77385  0.83382  1.0000
  H   H1406     1.0  0.36948  0.78983  0.74638  1.0000
  H   H1407     1.0  0.31996  0.85931  0.50767  1.0000
  H   H1408     1.0  0.44502  0.79789  0.82059  1.0000
  H   H1409     1.0  0.44505  0.72444  0.60608  1.0000
  H   H1410     1.0  0.44631  0.87709  0.58883  1.0000
  C   C1205     1.0  0.46403  0.96072  0.59999  1.0000
  H   H1411     1.0  0.43884  0.92174  0.55039  1.0000
  H   H1412     1.0  0.37453  0.83235  0.61063  1.0000
  S   S333      1.0  0.40518  0.93700  0.50966  1.0000
  N   N76       1.0  0.44835  0.77749  0.85185  1.0000
  C   C1206     1.0  0.38162  0.77667  0.72281  1.0000
  H   H1413     1.0  0.50369  0.97646  0.75782  1.0000
  H   H1414     1.0  0.38567  0.92381  0.81011  1.0000
  C   C1207     1.0  0.47113  0.70423  0.95424  1.0000
  C   C1208     1.0  0.36540  0.86585  0.54738  1.0000
  H   H1415     1.0  0.30907  0.79335  0.73802  1.0000
  H   H1416     1.0  0.31526  0.76949  0.78865  1.0000
  H   H1417     1.0  0.50047  0.69166  0.49417  1.0000
  C   C1209     1.0  0.35644  0.85623  0.56546  1.0000
  H   H1418     1.0  0.30292  0.76155  0.74292  1.0000
  C   C1210     1.0  0.49723  0.90614  0.98207  1.0000
  H   H1419     1.0  0.29591  0.85733  0.97339  1.0000
  H   H1420     1.0  0.48047  0.67875  0.54871  1.0000
  C   C1211     1.0  0.34630  0.85195  0.55670  1.0000
  H   H1421     1.0  0.44538  0.89122  0.86854  1.0000
  N   N77       1.0  0.31024  0.76498  0.55179  1.0000
  C   C1212     1.0  0.30526  0.75444  0.57692  1.0000
  H   H1422     1.0  0.32334  0.75760  0.53031  1.0000
  H   H1423     1.0  0.49421  0.96458  0.78743  1.0000
  C   C1213     1.0  0.26486  0.77617  0.51230  1.0000
  C   C1214     1.0  0.40251  0.70502  0.62394  1.0000
  H   H1424     1.0  0.44542  0.90234  0.88836  1.0000
  C   C1215     1.0  0.50048  0.67507  0.56091  1.0000
  C   C1216     1.0  0.44982  0.89541  0.88328  1.0000
  C   C1217     1.0  0.49003  0.96628  0.88896  1.0000
  H   H1425     1.0  0.43665  0.86256  0.91904  1.0000
  H   H1426     1.0  0.32782  0.76511  0.55642  1.0000
  C   C1218     1.0  0.46057  0.68226  0.87677  1.0000
  H   H1427     1.0  0.40411  0.69747  0.63862  1.0000
  C   C1219     1.0  0.25649  0.75992  0.49396  1.0000
  C   C1220     1.0  0.45577  0.80630  0.54186  1.0000
  N   N78       1.0  0.49804  0.98168  0.79697  1.0000
  H   H1428     1.0  0.32059  0.78462  0.76741  1.0000
  H   H1429     1.0  0.35384  0.87143  0.49005  1.0000
  C   C1221     1.0  0.39234  0.69227  0.59896  1.0000
  C   C1222     1.0  0.49540  0.97656  0.82855  1.0000
  C   C1223     1.0  0.48526  0.96698  0.84294  1.0000
  H   H1430     1.0  0.30075  0.77608  0.57092  1.0000
  C   C1224     1.0  0.48259  0.96202  0.87273  1.0000
  H   H1431     1.0  0.41038  0.99362  0.74817  1.0000
  C   C1225     1.0  0.45361  0.90205  0.49856  1.0000
  C   C1226     1.0  0.50021  0.97542  0.87545  1.0000
  C   C1227     1.0  0.33795  0.84985  0.49102  1.0000
  C   C1228     1.0  0.29078  0.78747  0.91661  1.0000
  H   H1432     1.0  0.46665  0.90031  0.52125  1.0000
  H   H1433     1.0  0.26319  0.73839  0.72410  1.0000
  H   H1434     1.0  0.32991  0.83453  0.54334  1.0000
  C   C1229     1.0  0.30998  0.77568  0.56276  1.0000
  H   H1435     1.0  0.31807  0.83888  0.53091  1.0000
  H   H1436     1.0  0.25819  0.71856  0.53217  1.0000
  H   H1437     1.0  0.47935  0.96314  0.83128  1.0000
  S   S334      1.0  0.26630  0.73831  0.60375  1.0000
  H   H1438     1.0  0.47473  0.95478  0.88337  1.0000
  H   H1439     1.0  0.33368  0.87035  0.49795  1.0000
  S   S335      1.0  0.26016  0.71472  0.96840  1.0000
  N   N79       1.0  0.38885  0.82611  0.58934  1.0000
  C   C1230     1.0  0.38047  0.81489  0.59001  1.0000
  C   C1231     1.0  0.39953  0.82314  0.59663  1.0000
  C   C1232     1.0  0.38336  0.83120  0.61231  1.0000
  C   C1233     1.0  0.39139  0.83456  0.56071  1.0000
  C   C1234     1.0  0.38213  0.83853  0.55104  1.0000
  C   C1235     1.0  0.40289  0.83892  0.54149  1.0000
  S   S336      1.0  0.44766  0.98718  0.68197  1.0000
  H   H1440     1.0  0.28676  0.78671  0.97841  1.0000
  H   H1441     1.0  0.37871  0.80811  0.61082  1.0000
  H   H1442     1.0  0.37172  0.81614  0.58776  1.0000
  H   H1443     1.0  0.38401  0.81102  0.57228  1.0000
  H   H1444     1.0  0.40382  0.81870  0.58111  1.0000
  H   H1445     1.0  0.39733  0.81690  0.61843  1.0000
  H   H1446     1.0  0.40616  0.83117  0.59698  1.0000
  S   S337      1.0  0.46597  0.84522  0.50330  1.0000
  H   H1447     1.0  0.38192  0.82532  0.63427  1.0000
  H   H1448     1.0  0.38907  0.83998  0.61154  1.0000
  H   H1449     1.0  0.29609  0.69368  0.63531  1.0000
  H   H1450     1.0  0.41051  0.83637  0.54669  1.0000
  C   C1236     1.0  0.43218  0.70669  0.54400  1.0000
  N   N80       1.0  0.39111  0.82641  0.83665  1.0000
  C   C1237     1.0  0.38536  0.82977  0.81315  1.0000
  C   C1238     1.0  0.40277  0.82492  0.82299  1.0000
  C   C1239     1.0  0.38400  0.81473  0.85590  1.0000
  C   C1240     1.0  0.39188  0.83540  0.85363  1.0000
  C   C1241     1.0  0.40269  0.84131  0.85832  1.0000
  C   C1242     1.0  0.38149  0.83819  0.86696  1.0000
  C   C1243     1.0  0.40296  0.84936  0.87559  1.0000
  C   C1244     1.0  0.38187  0.84633  0.88392  1.0000
  C   C1245     1.0  0.39258  0.85186  0.88837  1.0000
  H   H1451     1.0  0.37617  0.83022  0.82129  1.0000
  H   H1452     1.0  0.39043  0.83853  0.79821  1.0000
  H   H1453     1.0  0.38473  0.82319  0.79987  1.0000
  H   H1454     1.0  0.40854  0.83334  0.80760  1.0000
  H   H1455     1.0  0.40182  0.81822  0.81013  1.0000
  H   H1456     1.0  0.40744  0.82178  0.83930  1.0000
  H   H1457     1.0  0.37497  0.81496  0.86654  1.0000
  H   H1458     1.0  0.38284  0.80778  0.84378  1.0000
  H   H1459     1.0  0.38819  0.81175  0.87342  1.0000
  H   H1460     1.0  0.41107  0.83985  0.84901  1.0000
  H   H1461     1.0  0.37292  0.83393  0.86466  1.0000
  H   H1462     1.0  0.41130  0.85363  0.87915  1.0000
  H   H1463     1.0  0.37377  0.84823  0.89387  1.0000
  H   H1464     1.0  0.39283  0.85806  0.90182  1.0000
  H   H1465     1.0  0.41187  0.88652  0.96039  1.0000
  S   S338      1.0  0.26852  0.73055  0.67039  1.0000
  C   C1246     1.0  0.28841  0.79782  0.92340  1.0000
  H   H1466     1.0  0.42799  0.79414  0.58466  1.0000
  C   C1247     1.0  0.46081  0.69828  0.97599  1.0000
  H   H1467     1.0  0.43481  0.76794  0.53133  1.0000
  H   H1468     1.0  0.42442  0.76507  0.65103  1.0000
  C   C1248     1.0  0.28604  0.77061  0.81027  1.0000
  H   H1469     1.0  0.27478  0.80675  0.93253  1.0000
  H   H1470     1.0  0.46590  0.98225  0.70588  1.0000
  H   H1471     1.0  0.47215  0.71319  0.94219  1.0000
  H   H1472     1.0  0.41618  0.85345  0.94432  1.0000
  C   C1249     1.0  0.30074  0.78951  0.79690  1.0000
  N   N81       1.0  0.43878  0.76788  0.67134  1.0000
  H   H1473     1.0  0.40890  0.96305  0.49161  1.0000
  H   H1474     1.0  0.43812  0.71282  0.52453  1.0000
  H   H1475     1.0  0.43081  0.99025  0.73632  1.0000
  H   H1476     1.0  0.39894  0.71223  0.55612  1.0000
  H   H1477     1.0  0.43585  0.77286  0.71188  1.0000
  C   C1250     1.0  0.28424  0.78487  0.83877  1.0000
  Fe  Fe167     1.0  0.49296  0.95359  0.97306  1.0000
  H   H1478     1.0  0.45820  0.80436  0.90726  1.0000
  H   H1479     1.0  0.43471  0.00070  0.75625  1.0000
  H   H1480     1.0  0.39737  0.96733  0.77543  1.0000
  H   H1481     1.0  0.31487  0.78195  0.50082  1.0000
  H   H1482     1.0  0.46601  0.69135  0.87477  1.0000
  H   H1483     1.0  0.28047  0.74859  0.51050  1.0000
  C   C1251     1.0  0.28297  0.79193  0.50457  1.0000
  C   C1252     1.0  0.50074  0.96075  0.68646  1.0000
  C   C1253     1.0  0.36427  0.87122  0.52039  1.0000
  H   H1484     1.0  0.48823  0.70324  0.93163  1.0000
  C   C1254     1.0  0.47661  0.73508  0.96589  1.0000
  C   C1255     1.0  0.28637  0.76354  0.98534  1.0000
  Fe  Fe168     1.0  0.25485  0.72534  0.93154  1.0000
  H   H1485     1.0  0.45709  0.69008  0.92316  1.0000
  N   N82       1.0  0.45840  0.87597  0.55100  1.0000
  H   H1486     1.0  0.28224  0.76193  0.80781  1.0000
  H   H1487     1.0  0.41545  0.00486  0.76538  1.0000
  H   H1488     1.0  0.35208  0.67716  0.68944  1.0000
  N   N83       1.0  0.28531  0.68323  0.67758  1.0000
  H   H1489     1.0  0.46578  0.88291  0.89064  1.0000
  H   H1490     1.0  0.49899  0.74715  0.95132  1.0000
  H   H1491     1.0  0.41371  0.84986  0.49999  1.0000
  H   H1492     1.0  0.44548  0.77793  0.50030  1.0000
  H   H1493     1.0  0.48950  0.98928  0.76559  1.0000
  S   S339      1.0  0.26892  0.70597  0.62642  1.0000
  C   C1256     1.0  0.42598  0.76443  0.67289  1.0000
  C   C1257     1.0  0.44952  0.87032  0.57909  1.0000
  C   C1258     1.0  0.36798  0.88787  0.83283  1.0000
  S   S340      1.0  0.44918  0.70496  0.98552  1.0000
  H   H1494     1.0  0.39145  0.89282  0.87627  1.0000
  N   N84       1.0  0.30322  0.77541  0.76553  1.0000
  C   C1259     1.0  0.44873  0.94214  0.58564  1.0000
  C   C1260     1.0  0.44130  0.83548  0.59029  1.0000
  H   H1495     1.0  0.44987  0.76996  0.70058  1.0000
  H   H1496     1.0  0.40353  0.86524  0.96526  1.0000
  C   C1261     1.0  0.30392  0.78430  0.73875  1.0000
  C   C1262     1.0  0.27965  0.69254  0.68477  1.0000
  C   C1263     1.0  0.29774  0.76352  0.76221  1.0000
  H   H1497     1.0  0.42168  0.75515  0.68602  1.0000
  H   H1498     1.0  0.44204  0.80862  0.65311  1.0000
  C   C1264     1.0  0.25874  0.69636  0.61449  1.0000
  H   H1499     1.0  0.28024  0.76643  0.97271  1.0000
  H   H1500     1.0  0.45548  0.96310  0.60226  1.0000
  H   H1501     1.0  0.45180  0.75609  0.55808  1.0000
  C   C1265     1.0  0.43536  0.69674  0.55678  1.0000
  C   C1266     1.0  0.45592  0.93430  0.53649  1.0000
  H   H1502     1.0  0.30839  0.78203  0.71909  1.0000
  H   H1503     1.0  0.33977  0.84444  0.57188  1.0000
  H   H1504     1.0  0.46692  0.79753  0.52042  1.0000
  H   H1505     1.0  0.44217  0.95723  0.53056  1.0000
  C   C1267     1.0  0.44515  0.80149  0.64606  1.0000
  C   C1268     1.0  0.30897  0.84177  0.97665  1.0000
  Fe  Fe169     1.0  0.25838  0.73472  0.86691  1.0000
  C   C1269     1.0  0.43897  0.78444  0.56397  1.0000
  C   C1270     1.0  0.44479  0.92885  0.55520  1.0000
  N   N85       1.0  0.33435  0.85281  0.51900  1.0000
  C   C1271     1.0  0.50258  0.69018  0.51562  1.0000
  H   H1506     1.0  0.44299  0.68123  0.92282  1.0000
  H   H1507     1.0  0.39048  0.71421  0.58864  1.0000
  C   C1272     1.0  0.27682  0.79891  0.92719  1.0000
  C   C1273     1.0  0.36093  0.68013  0.69174  1.0000
  H   H1508     1.0  0.47101  0.77844  0.53370  1.0000
  H   H1509     1.0  0.45303  0.78209  0.95359  1.0000
  H   H1510     1.0  0.28925  0.80011  0.49113  1.0000
  H   H1511     1.0  0.48315  0.67608  0.51338  1.0000
  H   H1512     1.0  0.29496  0.78487  0.73669  1.0000
  H   H1513     1.0  0.41290  0.74384  0.59532  1.0000
  H   H1514     1.0  0.38789  0.93230  0.83559  1.0000
  C   C1274     1.0  0.45856  0.89554  0.51775  1.0000
  H   H1515     1.0  0.39267  0.95897  0.82794  1.0000
  S   S341      1.0  0.41608  0.96887  0.72837  1.0000
  H   H1516     1.0  0.43862  0.86859  0.53229  1.0000
  H   H1517     1.0  0.38869  0.92346  0.88308  1.0000
  H   H1518     1.0  0.45857  0.81335  0.60975  1.0000
  C   C1275     1.0  0.28154  0.77837  0.91386  1.0000
  H   H1519     1.0  0.44600  0.76278  0.51147  1.0000
  C   C1276     1.0  0.39924  0.71319  0.57818  1.0000
  H   H1520     1.0  0.40959  0.83005  0.98230  1.0000
  H   H1521     1.0  0.45432  0.88620  0.94959  1.0000
  S   S342      1.0  0.47298  0.97207  0.65835  1.0000
  C   C1277     1.0  0.28470  0.78648  0.53083  1.0000
  H   H1522     1.0  0.42108  0.77006  0.68317  1.0000
  H   H1523     1.0  0.44366  0.69516  0.54688  1.0000
  H   H1524     1.0  0.43978  0.74978  0.67419  1.0000
  H   H1525     1.0  0.43080  0.94590  0.50290  1.0000
  Fe  Fe170     1.0  0.46186  0.83033  0.98530  1.0000
  C   C1278     1.0  0.43169  0.86819  0.92774  1.0000
  H   H1526     1.0  0.42950  0.95628  0.76471  1.0000
  H   H1527     1.0  0.38425  0.76023  0.79513  1.0000
  H   H1528     1.0  0.48414  0.99057  0.80157  1.0000
  S   S343      1.0  0.47446  0.95501  0.97512  1.0000
  H   H1529     1.0  0.29588  0.75372  0.58727  1.0000
  H   H1530     1.0  0.46853  0.83903  0.60343  1.0000
  S   S344      1.0  0.33637  0.79876  0.50171  1.0000
  H   H1531     1.0  0.44288  0.81347  0.56487  1.0000
  H   H1532     1.0  0.30126  0.78474  0.97094  1.0000
  H   H1533     1.0  0.32555  0.86500  0.53515  1.0000
  N   N86       1.0  0.38763  0.91387  0.85022  1.0000
  H   H1534     1.0  0.40226  0.80338  0.77536  1.0000
  H   H1535     1.0  0.38358  0.69349  0.60880  1.0000
  S   S345      1.0  0.42700  0.72312  0.97334  1.0000
  C   C1279     1.0  0.47893  0.68679  0.96337  1.0000
  C   C1280     1.0  0.50143  0.97288  0.78171  1.0000
  H   H1536     1.0  0.31428  0.77575  0.58091  1.0000
  C   C1281     1.0  0.45333  0.88323  0.53096  1.0000
  H   H1537     1.0  0.43308  0.72121  0.89237  1.0000
  H   H1538     1.0  0.50362  0.89506  0.49438  1.0000
  H   H1539     1.0  0.40577  0.72166  0.57606  1.0000
  H   H1540     1.0  0.43290  0.77880  0.83605  1.0000
  H   H1541     1.0  0.49276  0.96214  0.69877  1.0000
  C   C1282     1.0  0.41718  0.69098  0.59453  1.0000
  S   S346      1.0  0.41351  0.91317  0.96608  1.0000
  H   H1542     1.0  0.31470  0.78406  0.54599  1.0000
  C   C1283     1.0  0.45628  0.87823  0.90074  1.0000
  H   H1543     1.0  0.45159  0.89997  0.93340  1.0000
  H   H1544     1.0  0.45300  0.87398  0.88457  1.0000
  H   H1545     1.0  0.46477  0.89648  0.91855  1.0000
  C   C1284     1.0  0.43810  0.88454  0.50426  1.0000
  C   C1285     1.0  0.39797  0.79400  0.78015  1.0000
  C   C1286     1.0  0.43079  0.73030  0.62829  1.0000
  S   S347      1.0  0.44444  0.82636  0.48910  1.0000
  C   C1287     1.0  0.45868  0.79511  0.61274  1.0000
  Fe  Fe171     1.0  0.43582  0.74080  0.49829  1.0000
  N   N87       1.0  0.44931  0.88643  0.90966  1.0000
  H   H1546     1.0  0.43240  0.89626  0.93481  1.0000
  C   C1288     1.0  0.48174  0.99404  0.70838  1.0000
  C   C1289     1.0  0.40098  0.78590  0.80028  1.0000
  H   H1547     1.0  0.43433  0.76409  0.84644  1.0000
  C   C1290     1.0  0.45518  0.89251  0.92867  1.0000
  H   H1548     1.0  0.40768  0.78896  0.81100  1.0000
  C   C1291     1.0  0.42926  0.88687  0.93686  1.0000
  C   C1292     1.0  0.43583  0.77281  0.85199  1.0000
  H   H1549     1.0  0.42983  0.77146  0.87365  1.0000
  H   H1550     1.0  0.45616  0.87116  0.91964  1.0000
  C   C1293     1.0  0.26042  0.73312  0.79671  1.0000
  C   C1294     1.0  0.38758  0.76973  0.79070  1.0000
  C   C1295     1.0  0.39582  0.77380  0.80550  1.0000
  H   H1551     1.0  0.34360  0.84355  0.49245  1.0000
  H   H1552     1.0  0.45521  0.76994  0.81752  1.0000
  C   C1296     1.0  0.43681  0.88041  0.92486  1.0000
  H   H1553     1.0  0.36214  0.77932  0.78057  1.0000
  C   C1297     1.0  0.41984  0.86281  0.94228  1.0000
  C   C1298     1.0  0.45953  0.78550  0.96438  1.0000
  C   C1299     1.0  0.44970  0.76413  0.56381  1.0000
  H   H1554     1.0  0.38794  0.79663  0.74939  1.0000
  C   C1300     1.0  0.36615  0.78020  0.75735  1.0000
  Fe  Fe172     1.0  0.45300  0.75037  0.96327  1.0000
  H   H1555     1.0  0.45239  0.68335  0.87024  1.0000
  H   H1556     1.0  0.29212  0.67794  0.63929  1.0000
  H   H1557     1.0  0.39852  0.76749  0.82036  1.0000
  H   H1558     1.0  0.46599  0.79732  0.59371  1.0000
  H   H1559     1.0  0.45548  0.78473  0.89876  1.0000
  H   H1560     1.0  0.38860  0.90831  0.89456  1.0000
  H   H1561     1.0  0.46077  0.77131  0.87357  1.0000
  H   H1562     1.0  0.27453  0.74305  0.75929  1.0000
  C   C1301     1.0  0.42180  0.73588  0.62508  1.0000
  C   C1302     1.0  0.38423  0.77778  0.77017  1.0000
  S   S348      1.0  0.45345  0.73857  0.93236  1.0000
  H   H1563     1.0  0.39313  0.68419  0.61343  1.0000
  H   H1564     1.0  0.35557  0.68835  0.72589  1.0000
  H   H1565     1.0  0.41177  0.68474  0.61439  1.0000
  H   H1566     1.0  0.37062  0.90647  0.82051  1.0000
  C   C1303     1.0  0.45451  0.80418  0.62166  1.0000
  H   H1567     1.0  0.38671  0.78611  0.71412  1.0000
  C   C1304     1.0  0.48519  0.67400  0.53482  1.0000
  S   S349      1.0  0.29895  0.80943  0.92979  1.0000
  C   C1305     1.0  0.28891  0.68537  0.64566  1.0000
  C   C1306     1.0  0.44122  0.93276  0.57971  1.0000
  C   C1307     1.0  0.41354  0.70092  0.58165  1.0000
  H   H1568     1.0  0.49414  0.96074  0.64870  1.0000
  H   H1569     1.0  0.35733  0.85197  0.58645  1.0000
  N   N88       1.0  0.37558  0.77387  0.75394  1.0000
  H   H1570     1.0  0.45397  0.86003  0.53648  1.0000
  H   H1571     1.0  0.47351  0.74316  0.95968  1.0000
  H   H1572     1.0  0.27946  0.78736  0.85688  1.0000
  S   S350      1.0  0.46839  0.76560  0.96100  1.0000
  Fe  Fe173     1.0  0.44595  0.72325  0.97216  1.0000
  H   H1573     1.0  0.46718  0.89011  0.56686  1.0000
  C   C1308     1.0  0.45592  0.77869  0.82281  1.0000
  C   C1309     1.0  0.44789  0.79890  0.83976  1.0000
  N   N89       1.0  0.25445  0.77059  0.50311  1.0000
  C   C1310     1.0  0.43651  0.79463  0.57097  1.0000
  C   C1311     1.0  0.45905  0.83768  0.60763  1.0000
  H   H1574     1.0  0.46309  0.95294  0.61806  1.0000
  H   H1575     1.0  0.45340  0.78433  0.80530  1.0000
  C   C1312     1.0  0.40062  0.91664  0.83876  1.0000
  C   C1313     1.0  0.38425  0.84643  0.52405  1.0000
  H   H1576     1.0  0.47980  0.94801  0.58387  1.0000
  C   C1314     1.0  0.36976  0.76093  0.76355  1.0000
  C   C1315     1.0  0.46342  0.94379  0.54201  1.0000
  C   C1316     1.0  0.44997  0.78923  0.85849  1.0000
  H   H1577     1.0  0.45867  0.93139  0.51717  1.0000
  H   H1578     1.0  0.45874  0.83803  0.56368  1.0000
  H   H1579     1.0  0.44810  0.81740  0.83019  1.0000
  H   H1580     1.0  0.42512  0.83271  0.62270  1.0000
  C   C1317     1.0  0.43459  0.83405  0.61841  1.0000
  H   H1581     1.0  0.37524  0.77496  0.70945  1.0000
  C   C1318     1.0  0.46033  0.79679  0.97038  1.0000
  C   C1319     1.0  0.44955  0.81012  0.84516  1.0000
  H   H1582     1.0  0.38176  0.87280  0.87577  1.0000
  H   H1583     1.0  0.37523  0.91212  0.89037  1.0000
  H   H1584     1.0  0.46219  0.81486  0.53263  1.0000
  C   C1320     1.0  0.49974  0.99449  0.67458  1.0000
  C   C1321     1.0  0.38206  0.90179  0.84852  1.0000
  C   C1322     1.0  0.26198  0.68700  0.60456  1.0000
  H   H1585     1.0  0.37627  0.75560  0.75971  1.0000
  H   H1586     1.0  0.48598  0.96378  0.57550  1.0000
  C   C1323     1.0  0.41273  0.86939  0.95413  1.0000
  H   H1587     1.0  0.27098  0.68634  0.60143  1.0000
  H   H1588     1.0  0.40509  0.92571  0.83972  1.0000
  C   C1324     1.0  0.40342  0.96309  0.78448  1.0000
  C   C1325     1.0  0.32811  0.86227  0.51478  1.0000
  S   S351      1.0  0.43548  0.96578  0.58128  1.0000
  C   C1326     1.0  0.46885  0.96905  0.54879  1.0000
  C   C1327     1.0  0.43807  0.72875  0.60374  1.0000
  H   H1589     1.0  0.38795  0.77122  0.71883  1.0000
  S   S352      1.0  0.26864  0.73689  0.82115  1.0000
  C   C1328     1.0  0.29661  0.77842  0.79091  1.0000
  C   C1329     1.0  0.32579  0.84205  0.53942  1.0000
  H   H1590     1.0  0.45020  0.75981  0.86691  1.0000
  H   H1591     1.0  0.34749  0.82329  0.49833  1.0000
  H   H1592     1.0  0.47245  0.96820  0.52668  1.0000
  Fe  Fe174     1.0  0.43055  0.97411  0.68588  1.0000
  H   H1593     1.0  0.40298  0.91625  0.81582  1.0000
  H   H1594     1.0  0.48475  0.95689  0.54715  1.0000
  N   N90       1.0  0.46808  0.95837  0.57142  1.0000
  C   C1330     1.0  0.46850  0.68077  0.98460  1.0000
  H   H1595     1.0  0.43045  0.68120  0.59213  1.0000
  H   H1596     1.0  0.36130  0.88625  0.82101  1.0000
  C   C1331     1.0  0.46177  0.86649  0.53839  1.0000
  H   H1597     1.0  0.25892  0.79120  0.92701  1.0000
  H   H1598     1.0  0.30465  0.74948  0.69496  1.0000
  C   C1332     1.0  0.32273  0.76528  0.53967  1.0000
  H   H1599     1.0  0.29221  0.79047  0.53800  1.0000
  C   C1333     1.0  0.45181  0.68081  0.92632  1.0000
  C   C1334     1.0  0.44488  0.80555  0.55983  1.0000
  H   H1600     1.0  0.29446  0.68400  0.71136  1.0000
  C   C1335     1.0  0.45320  0.81205  0.86949  1.0000
  C   C1336     1.0  0.37957  0.88027  0.86338  1.0000
  H   H1601     1.0  0.36655  0.86928  0.84883  1.0000
  H   H1602     1.0  0.29725  0.75631  0.78123  1.0000
  C   C1337     1.0  0.37098  0.87828  0.84828  1.0000
  C   C1338     1.0  0.48011  0.95663  0.56942  1.0000
  H   H1603     1.0  0.36504  0.75819  0.78687  1.0000
  H   H1604     1.0  0.32285  0.85529  0.92269  1.0000
  H   H1605     1.0  0.46783  0.87028  0.51640  1.0000
  C   C1339     1.0  0.30739  0.77452  0.50380  1.0000
  Fe  Fe175     1.0  0.43697  0.97345  0.62113  1.0000
  H   H1606     1.0  0.27144  0.69217  0.67733  1.0000
  C   C1340     1.0  0.45367  0.79149  0.88322  1.0000
  C   C1341     1.0  0.26993  0.77966  0.91761  1.0000
  C   C1342     1.0  0.29385  0.75556  0.53078  1.0000
  H   H1607     1.0  0.28697  0.84329  0.97286  1.0000
  C   C1343     1.0  0.45525  0.80276  0.88848  1.0000
  C   C1344     1.0  0.38352  0.92337  0.83362  1.0000
  H   H1608     1.0  0.46536  0.78271  0.82134  1.0000
  H   H1609     1.0  0.40460  0.91041  0.85115  1.0000
  Fe  Fe176     1.0  0.44537  0.99699  0.64024  1.0000
  H   H1610     1.0  0.47172  0.94806  0.52618  1.0000
  H   H1611     1.0  0.28868  0.76288  0.75922  1.0000
  H   H1612     1.0  0.45449  0.82080  0.87351  1.0000
  C   C1345     1.0  0.41996  0.73964  0.59760  1.0000
  C   C1346     1.0  0.44408  0.78022  0.65351  1.0000
  C   C1347     1.0  0.46890  0.80134  0.98400  1.0000
  H   H1613     1.0  0.32622  0.85455  0.96871  1.0000
  H   H1614     1.0  0.44990  0.94910  0.97681  1.0000
  C   C1348     1.0  0.38493  0.91444  0.88082  1.0000
  H   H1615     1.0  0.28872  0.74775  0.66953  1.0000
  H   H1616     1.0  0.29968  0.78645  0.91362  1.0000
  H   H1617     1.0  0.37386  0.92215  0.84172  1.0000
  C   C1349     1.0  0.45003  0.78486  0.54589  1.0000
  H   H1618     1.0  0.43242  0.92874  0.59383  1.0000
  H   H1619     1.0  0.29533  0.83063  0.94562  1.0000
  C   C1350     1.0  0.46012  0.94797  0.56685  1.0000
  H   H1620     1.0  0.27723  0.69158  0.70849  1.0000
  H   H1621     1.0  0.47641  0.88680  0.53692  1.0000
  C   C1351     1.0  0.40489  0.84677  0.51445  1.0000
  C   C1352     1.0  0.37341  0.89948  0.83280  1.0000
  Fe  Fe177     1.0  0.44614  0.83910  0.51708  1.0000
  C   C1353     1.0  0.45838  0.79616  0.53497  1.0000
  C   C1354     1.0  0.46907  0.67365  0.91347  1.0000
  H   H1622     1.0  0.30875  0.79587  0.78334  1.0000
  C   C1355     1.0  0.45352  0.83717  0.58505  1.0000
  C   C1356     1.0  0.43410  0.99993  0.73432  1.0000
  Fe  Fe178     1.0  0.26980  0.74744  0.63809  1.0000
  S   S353      1.0  0.43427  0.83530  0.56199  1.0000
  H   H1623     1.0  0.45361  0.76062  0.65948  1.0000
  C   C1357     1.0  0.43997  0.78970  0.66175  1.0000
  H   H1624     1.0  0.44523  0.94493  0.60454  1.0000
  H   H1625     1.0  0.30092  0.67777  0.68314  1.0000
  H   H1626     1.0  0.43284  0.78811  0.68078  1.0000
  H   H1627     1.0  0.37313  0.83545  0.56426  1.0000
  H   H1628     1.0  0.47034  0.96838  0.60310  1.0000
  C   C1358     1.0  0.47527  0.98589  0.69660  1.0000
  C   C1359     1.0  0.50016  0.72530  0.98379  1.0000
  H   H1629     1.0  0.31661  0.86492  0.94187  1.0000
  H   H1630     1.0  0.44023  0.76119  0.57570  1.0000
  H   H1631     1.0  0.47464  0.97715  0.55153  1.0000
  C   C1360     1.0  0.29463  0.79264  0.82050  1.0000
  H   H1632     1.0  0.46862  0.72747  0.97520  1.0000
  H   H1633     1.0  0.45995  0.97061  0.54954  1.0000
  S   S354      1.0  0.42748  0.98463  0.64501  1.0000
  S   S355      1.0  0.42422  0.74247  0.53929  1.0000
  S   S356      1.0  0.45457  0.98671  0.61360  1.0000
  C   C1361     1.0  0.31981  0.84669  0.98280  1.0000
  C   C1362     1.0  0.44405  0.75894  0.66014  1.0000
  H   H1634     1.0  0.29800  0.80115  0.82465  1.0000
  H   H1635     1.0  0.28341  0.77048  0.90848  1.0000
  C   C1363     1.0  0.49399  0.99827  0.69753  1.0000
  H   H1636     1.0  0.43025  0.88027  0.49871  1.0000
  C   C1364     1.0  0.46456  0.77569  0.52126  1.0000
  H   H1637     1.0  0.46633  0.86127  0.55183  1.0000
  H   H1638     1.0  0.43202  0.77628  0.57217  1.0000
  C   C1365     1.0  0.42709  0.73787  0.57315  1.0000
  C   C1366     1.0  0.46756  0.77896  0.97119  1.0000
  C   C1367     1.0  0.45358  0.78328  0.62831  1.0000
  C   C1368     1.0  0.26718  0.77059  0.53836  1.0000
  H   H1639     1.0  0.30266  0.69339  0.67690  1.0000
  C   C1369     1.0  0.35423  0.86695  0.51128  1.0000
  H   H1640     1.0  0.44282  0.75865  0.63832  1.0000
  C   C1370     1.0  0.37038  0.67765  0.67420  1.0000
  H   H1641     1.0  0.45735  0.77673  0.62044  1.0000
  H   H1642     1.0  0.47262  0.87719  0.57231  1.0000
  C   C1371     1.0  0.42790  0.68891  0.58209  1.0000
  N   N91       1.0  0.30542  0.84714  0.95075  1.0000
  H   H1643     1.0  0.44173  0.73103  0.55753  1.0000
  H   H1644     1.0  0.37124  0.87876  0.50637  1.0000
  C   C1372     1.0  0.48748  0.98464  0.78891  1.0000
  C   C1373     1.0  0.44295  0.87794  0.52354  1.0000
  C   C1374     1.0  0.46910  0.88287  0.55697  1.0000
  C   C1375     1.0  0.41470  0.00328  0.74412  1.0000
  H   H1645     1.0  0.46688  0.78243  0.50037  1.0000
  H   H1646     1.0  0.37701  0.84929  0.51719  1.0000
  H   H1647     1.0  0.48013  0.97667  0.79223  1.0000
  N   N92       1.0  0.40213  0.70288  0.59525  1.0000
  C   C1376     1.0  0.29453  0.85091  0.95991  1.0000
  C   C1377     1.0  0.39562  0.85056  0.50580  1.0000
  S   S357      1.0  0.25764  0.76917  0.91363  1.0000
  H   H1648     1.0  0.29171  0.85524  0.94102  1.0000
  H   H1649     1.0  0.43286  0.00544  0.67941  1.0000
  C   C1378     1.0  0.34494  0.85712  0.52910  1.0000
  H   H1650     1.0  0.31076  0.83467  0.92808  1.0000
  C   C1379     1.0  0.50148  0.95996  0.65816  1.0000
  H   H1651     1.0  0.29474  0.76408  0.96962  1.0000
  H   H1652     1.0  0.26481  0.67423  0.66300  1.0000
  C   C1380     1.0  0.27323  0.78689  0.49531  1.0000
  C   C1381     1.0  0.49385  0.74736  0.97280  1.0000
  N   N93       1.0  0.45776  0.67464  0.90663  1.0000
  C   C1382     1.0  0.27685  0.77580  0.54761  1.0000
  H   H1653     1.0  0.44323  0.00300  0.71997  1.0000
  H   H1654     1.0  0.26156  0.76213  0.55182  1.0000
  H   H1655     1.0  0.27828  0.77148  0.56792  1.0000
  H   H1656     1.0  0.38054  0.67407  0.76116  1.0000
  C   C1383     1.0  0.42440  0.00324  0.69626  1.0000
  S   S358      1.0  0.44527  0.85486  0.98079  1.0000
  H   H1657     1.0  0.47528  0.68251  0.90979  1.0000
  N   N94       1.0  0.49810  0.67750  0.53201  1.0000
  H   H1658     1.0  0.35921  0.67348  0.76928  1.0000
  C   C1384     1.0  0.48783  0.88510  0.98738  1.0000
  H   H1659     1.0  0.49994  0.74880  0.98695  1.0000
  H   H1660     1.0  0.45786  0.91137  0.48832  1.0000
  N   N95       1.0  0.48410  0.73638  0.98632  1.0000
  C   C1385     1.0  0.56412  0.11533  0.36097  1.0000
  H   H1661     1.0  0.55694  0.10541  0.26858  1.0000
  H   H1662     1.0  0.55762  0.01670  0.03358  1.0000
  H   H1663     1.0  0.50938  0.15176  0.18292  1.0000
  N   N96       1.0  0.58835  0.30944  0.99476  1.0000
  H   H1664     1.0  0.52011  0.17102  0.42547  1.0000
  H   H1665     1.0  0.51790  0.04980  0.15064  1.0000
  C   C1386     1.0  0.60773  0.21122  0.40871  1.0000
  C   C1387     1.0  0.68068  0.21178  0.00056  1.0000
  C   C1388     1.0  0.58786  0.24447  0.99645  1.0000
  Fe  Fe179     1.0  0.58782  0.25573  0.33083  1.0000
  S   S359      1.0  0.56804  0.25186  0.34293  1.0000
  S   S360      1.0  0.59981  0.25695  0.28781  1.0000
  C   C1389     1.0  0.61948  0.21689  0.39394  1.0000
  H   H1666     1.0  0.58080  0.11227  0.36558  1.0000
  H   H1667     1.0  0.54983  0.11572  0.25220  1.0000
  N   N97       1.0  0.74203  0.31807  0.00921  1.0000
  H   H1668     1.0  0.61198  0.26160  0.00850  1.0000
  H   H1669     1.0  0.53394  0.11051  0.29302  1.0000
  Fe  Fe180     1.0  0.60368  0.28263  0.08529  1.0000
  S   S361      1.0  0.58670  0.26846  0.09616  1.0000
  S   S362      1.0  0.60479  0.30193  0.06791  1.0000
  Fe  Fe181     1.0  0.61731  0.26531  0.10443  1.0000
  S   S363      1.0  0.60164  0.24948  0.11727  1.0000
  S   S364      1.0  0.63571  0.26422  0.10556  1.0000
  Fe  Fe182     1.0  0.59784  0.25786  0.07582  1.0000
  S   S365      1.0  0.59043  0.24597  0.04969  1.0000
  Fe  Fe183     1.0  0.59177  0.26123  0.13661  1.0000
  S   S366      1.0  0.57847  0.25607  0.17982  1.0000
  S   S367      1.0  0.61442  0.27273  0.06116  1.0000
  S   S368      1.0  0.60774  0.27629  0.12747  1.0000
  Fe  Fe184     1.0  0.69679  0.26609  0.40287  1.0000
  S   S369      1.0  0.68405  0.27746  0.40442  1.0000
  S   S370      1.0  0.69202  0.24726  0.39581  1.0000
  H   H1670     1.0  0.67398  0.26769  0.03089  1.0000
  H   H1671     1.0  0.62012  0.24486  0.40007  1.0000
  Fe  Fe185     1.0  0.69896  0.29169  0.37228  1.0000
  S   S371      1.0  0.69566  0.30343  0.33387  1.0000
  Fe  Fe186     1.0  0.67962  0.30295  0.15709  1.0000
  S   S372      1.0  0.68945  0.28885  0.15871  1.0000
  S   S373      1.0  0.65993  0.29877  0.17165  1.0000
  Fe  Fe187     1.0  0.70163  0.32306  0.13329  1.0000
  S   S374      1.0  0.71335  0.31078  0.13244  1.0000
  H   H1672     1.0  0.57291  0.30713  0.02885  1.0000
  Fe  Fe188     1.0  0.70019  0.30003  0.11489  1.0000
  S   S375      1.0  0.70758  0.29284  0.07806  1.0000
  Fe  Fe189     1.0  0.70164  0.30089  0.17620  1.0000
  S   S376      1.0  0.71023  0.29384  0.21054  1.0000
  S   S377      1.0  0.68941  0.31323  0.11183  1.0000
  S   S378      1.0  0.69085  0.31407  0.17844  1.0000
  Fe  Fe190     1.0  0.52321  0.13859  0.33668  1.0000
  S   S379      1.0  0.52779  0.12715  0.37318  1.0000
  S   S380      1.0  0.52377  0.13335  0.29332  1.0000
  Fe  Fe191     1.0  0.52604  0.15973  0.36610  1.0000
  S   S381      1.0  0.53054  0.14952  0.40437  1.0000
  S   S382      1.0  0.52582  0.17917  0.36090  1.0000
  Fe  Fe192     1.0  0.54172  0.14328  0.37123  1.0000
  S   S383      1.0  0.56021  0.14221  0.36974  1.0000
  Fe  Fe193     1.0  0.51610  0.13431  0.40361  1.0000
  C   C1390     1.0  0.55161  0.12972  0.28882  1.0000
  S   S384      1.0  0.53826  0.15438  0.33293  1.0000
  H   H1673     1.0  0.53825  0.06750  0.15603  1.0000
  C   C1391     1.0  0.57717  0.29733  0.38495  1.0000
  C   C1392     1.0  0.59784  0.06488  0.13610  1.0000
  H   H1674     1.0  0.58224  0.21249  0.39668  1.0000
  C   C1393     1.0  0.61662  0.09847  0.14434  1.0000
  H   H1675     1.0  0.61192  0.07346  0.15113  1.0000
  H   H1676     1.0  0.59977  0.23538  0.42580  1.0000
  Fe  Fe194     1.0  0.51624  0.08977  0.14318  1.0000
  S   S385      1.0  0.53540  0.09036  0.13093  1.0000
  C   C1394     1.0  0.74496  0.31711  0.40802  1.0000
  Fe  Fe195     1.0  0.59438  0.10303  0.19605  1.0000
  S   S386      1.0  0.59113  0.11376  0.15667  1.0000
  S   S387      1.0  0.59198  0.08287  0.20538  1.0000
  Fe  Fe196     1.0  0.60123  0.12530  0.22111  1.0000
  S   S388      1.0  0.59825  0.13744  0.18279  1.0000
  S   S389      1.0  0.60313  0.12996  0.26441  1.0000
  Fe  Fe197     1.0  0.58216  0.12282  0.18721  1.0000
  S   S390      1.0  0.56389  0.12537  0.18936  1.0000
  Fe  Fe198     1.0  0.60750  0.12744  0.15481  1.0000
  S   S391      1.0  0.62214  0.13499  0.11271  1.0000
  S   S392      1.0  0.58437  0.11126  0.22676  1.0000
  S   S393      1.0  0.61160  0.11611  0.19290  1.0000
  Fe  Fe199     1.0  0.62745  0.16814  0.37714  1.0000
  S   S394      1.0  0.62261  0.18542  0.37827  1.0000
  S   S395      1.0  0.63031  0.16375  0.33234  1.0000
  Fe  Fe200     1.0  0.62597  0.16263  0.44324  1.0000
  S   S396      1.0  0.62040  0.17909  0.44783  1.0000
  C   C1395     1.0  0.58486  0.29700  0.99284  1.0000
  Fe  Fe201     1.0  0.60896  0.17462  0.41851  1.0000
  S   S397      1.0  0.59054  0.17699  0.42497  1.0000
  Fe  Fe202     1.0  0.63484  0.18864  0.40720  1.0000
  S   S398      1.0  0.64420  0.20745  0.40944  1.0000
  S   S399      1.0  0.61327  0.15729  0.41692  1.0000
  S   S400      1.0  0.64096  0.17218  0.40327  1.0000
  C   C1396     1.0  0.61130  0.13907  0.28297  1.0000
  C   C1397     1.0  0.60718  0.13715  0.31316  1.0000
  C   C1398     1.0  0.61269  0.14462  0.32853  1.0000
  C   C1399     1.0  0.62270  0.15403  0.31413  1.0000
  C   C1400     1.0  0.62695  0.15582  0.28402  1.0000
  C   C1401     1.0  0.62130  0.14849  0.26857  1.0000
  H   H1677     1.0  0.59957  0.12988  0.32484  1.0000
  H   H1678     1.0  0.60930  0.14296  0.35163  1.0000
  H   H1679     1.0  0.63471  0.16298  0.27249  1.0000
  H   H1680     1.0  0.62470  0.15016  0.24548  1.0000
  C   C1402     1.0  0.62414  0.14071  0.07478  1.0000
  C   C1403     1.0  0.63517  0.14164  0.05681  1.0000
  C   C1404     1.0  0.63767  0.14609  0.02679  1.0000
  C   C1405     1.0  0.62932  0.14998  0.01373  1.0000
  C   C1406     1.0  0.61819  0.14922  0.03151  1.0000
  C   C1407     1.0  0.61556  0.14447  0.06199  1.0000
  H   H1681     1.0  0.64190  0.13886  0.06620  1.0000
  H   H1682     1.0  0.64627  0.14660  0.01354  1.0000
  H   H1683     1.0  0.51571  0.13753  0.47385  1.0000
  H   H1684     1.0  0.60701  0.14388  0.07553  1.0000
  C   C1408     1.0  0.54323  0.09988  0.14771  1.0000
  C   C1409     1.0  0.53735  0.10320  0.17134  1.0000
  C   C1410     1.0  0.54374  0.11095  0.18428  1.0000
  C   C1411     1.0  0.55598  0.11551  0.17340  1.0000
  C   C1412     1.0  0.56177  0.11235  0.14944  1.0000
  C   C1413     1.0  0.55545  0.10443  0.13687  1.0000
  H   H1685     1.0  0.52792  0.09965  0.18001  1.0000
  H   H1686     1.0  0.53921  0.11338  0.20276  1.0000
  H   H1687     1.0  0.57108  0.11625  0.14005  1.0000
  H   H1688     1.0  0.56003  0.10197  0.11848  1.0000
  C   C1414     1.0  0.56680  0.05398  0.17936  1.0000
  C   C1415     1.0  0.57279  0.05091  0.20036  1.0000
  C   C1416     1.0  0.58027  0.05986  0.20838  1.0000
  C   C1417     1.0  0.58173  0.07199  0.19598  1.0000
  C   C1418     1.0  0.57547  0.07505  0.17558  1.0000
  C   C1419     1.0  0.56816  0.06612  0.16719  1.0000
  H   H1689     1.0  0.58507  0.05736  0.22413  1.0000
  H   H1690     1.0  0.57652  0.08431  0.16565  1.0000
  H   H1691     1.0  0.56373  0.06867  0.15066  1.0000
  C   C1420     1.0  0.68886  0.29209  0.00536  1.0000
  H   H1692     1.0  0.67886  0.19732  0.03677  1.0000
  C   C1421     1.0  0.51450  0.07393  0.24881  1.0000
  H   H1693     1.0  0.58351  0.05837  0.11834  1.0000
  C   C1422     1.0  0.58622  0.25057  0.46868  1.0000
  C   C1423     1.0  0.50660  0.06355  0.24868  1.0000
  C   C1424     1.0  0.59868  0.32929  0.32239  1.0000
  C   C1425     1.0  0.60676  0.07467  0.13553  1.0000
  H   H1694     1.0  0.63820  0.20168  0.00694  1.0000
  H   H1695     1.0  0.58024  0.22631  0.42889  1.0000
  C   C1426     1.0  0.51530  0.12366  0.27687  1.0000
  H   H1696     1.0  0.60597  0.31313  0.28874  1.0000
  H   H1697     1.0  0.71010  0.32796  0.30192  1.0000
  S   S401      1.0  0.60300  0.26030  0.41726  1.0000
  C   C1427     1.0  0.51425  0.11511  0.23523  1.0000
  C   C1428     1.0  0.52064  0.12237  0.24956  1.0000
  H   H1698     1.0  0.62657  0.11457  0.09424  1.0000
  N   N98       1.0  0.72803  0.33899  0.28361  1.0000
  H   H1699     1.0  0.51848  0.11429  0.21425  1.0000
  H   H1700     1.0  0.52978  0.12706  0.23933  1.0000
  C   C1429     1.0  0.56844  0.15226  0.38455  1.0000
  C   C1430     1.0  0.58045  0.15298  0.38124  1.0000
  C   C1431     1.0  0.58731  0.16095  0.39256  1.0000
  C   C1432     1.0  0.58210  0.16779  0.40867  1.0000
  C   C1433     1.0  0.57010  0.16721  0.41178  1.0000
  C   C1434     1.0  0.56331  0.15958  0.39932  1.0000
  H   H1701     1.0  0.58450  0.14735  0.36998  1.0000
  H   H1702     1.0  0.59663  0.16172  0.38888  1.0000
  H   H1703     1.0  0.56605  0.17263  0.42383  1.0000
  H   H1704     1.0  0.55411  0.15923  0.40165  1.0000
  C   C1435     1.0  0.70000  0.30090  0.29955  1.0000
  C   C1436     1.0  0.70663  0.29279  0.29507  1.0000
  C   C1437     1.0  0.70983  0.29081  0.26756  1.0000
  C   C1438     1.0  0.70632  0.29683  0.24446  1.0000
  C   C1439     1.0  0.70008  0.30528  0.24867  1.0000
  C   C1440     1.0  0.69694  0.30731  0.27615  1.0000
  H   H1705     1.0  0.70927  0.28800  0.31273  1.0000
  H   H1706     1.0  0.71489  0.28445  0.26424  1.0000
  H   H1707     1.0  0.69754  0.31015  0.23092  1.0000
  C   C1441     1.0  0.55812  0.28164  0.45809  1.0000
  C   C1442     1.0  0.68361  0.29508  0.03033  1.0000
  C   C1443     1.0  0.68928  0.29538  0.05283  1.0000
  C   C1444     1.0  0.70021  0.29271  0.05038  1.0000
  C   C1445     1.0  0.70549  0.28987  0.02531  1.0000
  C   C1446     1.0  0.69988  0.28965  0.00280  1.0000
  H   H1708     1.0  0.67516  0.29714  0.03236  1.0000
  H   H1709     1.0  0.68510  0.29749  0.07219  1.0000
  H   H1710     1.0  0.71394  0.28779  0.02330  1.0000
  S   S402      1.0  0.63142  0.33330  0.13682  1.0000
  C   C1447     1.0  0.67855  0.23637  0.39983  1.0000
  C   C1448     1.0  0.66739  0.23790  0.41085  1.0000
  C   C1449     1.0  0.65704  0.22902  0.41341  1.0000
  C   C1450     1.0  0.65763  0.21846  0.40503  1.0000
  C   C1451     1.0  0.66879  0.21703  0.39362  1.0000
  C   C1452     1.0  0.67914  0.22589  0.39116  1.0000
  H   H1711     1.0  0.66673  0.24589  0.41760  1.0000
  H   H1712     1.0  0.64848  0.23028  0.42220  1.0000
  H   H1713     1.0  0.66947  0.20912  0.38650  1.0000
  H   H1714     1.0  0.68769  0.22461  0.38237  1.0000
  C   C1453     1.0  0.64238  0.27359  0.12455  1.0000
  C   C1454     1.0  0.65473  0.27750  0.11799  1.0000
  C   C1455     1.0  0.66016  0.28526  0.13236  1.0000
  C   C1456     1.0  0.65326  0.28907  0.15348  1.0000
  C   C1457     1.0  0.64095  0.28510  0.16023  1.0000
  C   C1458     1.0  0.63552  0.27731  0.14591  1.0000
  H   H1715     1.0  0.66011  0.27457  0.10174  1.0000
  H   H1716     1.0  0.66969  0.28826  0.12712  1.0000
  H   H1717     1.0  0.63561  0.28789  0.17686  1.0000
  H   H1718     1.0  0.62607  0.27390  0.15212  1.0000
  N   N99       1.0  0.64859  0.19096  0.98900  1.0000
  C   C1459     1.0  0.66462  0.19382  0.01621  1.0000
  C   C1460     1.0  0.54217  0.13596  0.13970  1.0000
  C   C1461     1.0  0.59519  0.24981  0.01177  1.0000
  H   H1719     1.0  0.53968  0.13355  0.09886  1.0000
  H   H1720     1.0  0.73101  0.30276  0.04305  1.0000
  C   C1462     1.0  0.66079  0.32516  0.11387  1.0000
  H   H1721     1.0  0.60229  0.22622  0.02776  1.0000
  H   H1722     1.0  0.74673  0.30942  0.34865  1.0000
  C   C1463     1.0  0.64280  0.17979  0.01199  1.0000
  C   C1464     1.0  0.58451  0.25643  0.20961  1.0000
  C   C1465     1.0  0.57728  0.25637  0.23607  1.0000
  C   C1466     1.0  0.58196  0.25686  0.26002  1.0000
  C   C1467     1.0  0.59385  0.25719  0.25773  1.0000
  C   C1468     1.0  0.60111  0.25736  0.23121  1.0000
  C   C1469     1.0  0.59646  0.25703  0.20713  1.0000
  H   H1723     1.0  0.56806  0.25608  0.23791  1.0000
  H   H1724     1.0  0.57638  0.25701  0.28017  1.0000
  H   H1725     1.0  0.61034  0.25765  0.22929  1.0000
  H   H1726     1.0  0.60211  0.25709  0.18676  1.0000
  H   H1727     1.0  0.53545  0.11178  0.32753  1.0000
  H   H1728     1.0  0.59330  0.29107  0.15511  1.0000
  C   C1470     1.0  0.54393  0.18715  0.38585  1.0000
  C   C1471     1.0  0.53612  0.19015  0.36966  1.0000
  C   C1472     1.0  0.53612  0.20216  0.36117  1.0000
  C   C1473     1.0  0.54370  0.21104  0.36909  1.0000
  C   C1474     1.0  0.72954  0.32832  0.17251  1.0000
  C   C1475     1.0  0.59222  0.07679  0.09785  1.0000
  H   H1729     1.0  0.53008  0.20459  0.34874  1.0000
  H   H1730     1.0  0.54337  0.22018  0.36293  1.0000
  C   C1476     1.0  0.62475  0.32524  0.11544  1.0000
  C   C1477     1.0  0.62626  0.31390  0.11587  1.0000
  C   C1478     1.0  0.62035  0.30689  0.10075  1.0000
  C   C1479     1.0  0.61279  0.31107  0.08534  1.0000
  C   C1480     1.0  0.61153  0.32256  0.08419  1.0000
  C   C1481     1.0  0.58727  0.28781  0.01235  1.0000
  H   H1731     1.0  0.63196  0.31047  0.12801  1.0000
  H   H1732     1.0  0.62197  0.29837  0.10037  1.0000
  H   H1733     1.0  0.60576  0.32592  0.07212  1.0000
  H   H1734     1.0  0.72854  0.29937  0.48160  1.0000
  Fe  Fe203     1.0  0.52315  0.00938  0.19567  1.0000
  H   H1735     1.0  0.55379  0.31521  0.39650  1.0000
  C   C1482     1.0  0.59062  0.06592  0.11723  1.0000
  H   H1736     1.0  0.51745  0.06427  0.15543  1.0000
  H   H1737     1.0  0.57213  0.20147  0.42722  1.0000
  H   H1738     1.0  0.51943  0.13491  0.10847  1.0000
  H   H1739     1.0  0.57639  0.31516  0.33205  1.0000
  N   N100      1.0  0.56625  0.27889  0.47624  1.0000
  C   C1483     1.0  0.57779  0.29311  0.26474  1.0000
  H   H1740     1.0  0.58354  0.29214  0.38251  1.0000
  H   H1741     1.0  0.58683  0.11009  0.31584  1.0000
  H   H1742     1.0  0.73834  0.31715  0.13296  1.0000
  H   H1743     1.0  0.63937  0.17349  0.47921  1.0000
  H   H1744     1.0  0.73009  0.30933  0.21689  1.0000
  H   H1745     1.0  0.66904  0.16929  0.45800  1.0000
  H   H1746     1.0  0.60417  0.31112  0.15493  1.0000
  H   H1747     1.0  0.57798  0.29980  0.22084  1.0000
  C   C1484     1.0  0.56722  0.29933  0.48551  1.0000
  H   H1748     1.0  0.73702  0.31876  0.40265  1.0000
  N   N101      1.0  0.65820  0.18049  0.47147  1.0000
  C   C1485     1.0  0.58064  0.21919  0.44701  1.0000
  C   C1486     1.0  0.50425  0.12014  0.48123  1.0000
  C   C1487     1.0  0.58969  0.28982  0.17873  1.0000
  H   H1749     1.0  0.63577  0.29917  0.03939  1.0000
  H   H1750     1.0  0.58160  0.29304  0.18089  1.0000
  H   H1751     1.0  0.67341  0.28762  0.22117  1.0000
  H   H1752     1.0  0.58136  0.24531  0.45722  1.0000
  S   S403      1.0  0.57218  0.32447  0.42124  1.0000
  H   H1753     1.0  0.67715  0.33571  0.04420  1.0000
  C   C1488     1.0  0.53856  0.09817  0.04754  1.0000
  C   C1489     1.0  0.74783  0.32764  0.32922  1.0000
  C   C1490     1.0  0.52539  0.13860  0.17227  1.0000
  C   C1491     1.0  0.73840  0.31481  0.21743  1.0000
  C   C1492     1.0  0.73404  0.30774  0.48399  1.0000
  S   S404      1.0  0.53483  0.01509  0.22344  1.0000
  C   C1493     1.0  0.60086  0.22319  0.00893  1.0000
  H   H1754     1.0  0.73385  0.30763  0.16870  1.0000
  C   C1494     1.0  0.57088  0.11283  0.30495  1.0000
  S   S405      1.0  0.70570  0.29949  0.40585  1.0000
  H   H1755     1.0  0.55117  0.13513  0.13527  1.0000
  H   H1756     1.0  0.64274  0.24945  0.05743  1.0000
  S   S406      1.0  0.56991  0.25184  0.40923  1.0000
  Fe  Fe204     1.0  0.54887  0.02318  0.18139  1.0000
  H   H1757     1.0  0.58638  0.07760  0.08369  1.0000
  C   C1495     1.0  0.50840  0.12805  0.02590  1.0000
  H   H1758     1.0  0.65355  0.16342  0.46143  1.0000
  H   H1759     1.0  0.65630  0.26820  0.05808  1.0000
  C   C1496     1.0  0.60345  0.26530  0.46925  1.0000
  H   H1760     1.0  0.53752  0.07497  0.19482  1.0000
  C   C1497     1.0  0.60650  0.32019  0.27039  1.0000
  H   H1761     1.0  0.74928  0.31319  0.15048  1.0000
  C   C1498     1.0  0.56229  0.01450  0.99043  1.0000
  C   C1499     1.0  0.66697  0.19204  0.45644  1.0000
  C   C1500     1.0  0.61572  0.33012  0.21999  1.0000
  C   C1501     1.0  0.61443  0.32104  0.24427  1.0000
  C   C1502     1.0  0.66082  0.17173  0.45501  1.0000
  H   H1762     1.0  0.74374  0.30021  0.02221  1.0000
  H   H1763     1.0  0.58495  0.31972  0.02569  1.0000
  C   C1503     1.0  0.53604  0.12204  0.47088  1.0000
  H   H1764     1.0  0.64852  0.29236  0.06972  1.0000
  H   H1765     1.0  0.52757  0.01459  0.09949  1.0000
  H   H1766     1.0  0.73762  0.33679  0.24375  1.0000
  H   H1767     1.0  0.72652  0.33073  0.15254  1.0000
  C   C1504     1.0  0.52400  0.13591  0.12512  1.0000
  C   C1505     1.0  0.62233  0.33693  0.45986  1.0000
  H   H1768     1.0  0.58545  0.19874  0.41019  1.0000
  C   C1506     1.0  0.50974  0.05701  0.22897  1.0000
  H   H1769     1.0  0.71395  0.33090  0.06739  1.0000
  H   H1770     1.0  0.53171  0.08591  0.22937  1.0000
  H   H1771     1.0  0.59309  0.32928  0.34361  1.0000
  C   C1507     1.0  0.53568  0.13507  0.11924  1.0000
  H   H1772     1.0  0.64045  0.18151  0.03368  1.0000
  C   C1508     1.0  0.58302  0.31576  0.31187  1.0000
  H   H1773     1.0  0.73436  0.31492  0.46517  1.0000
  N   N102      1.0  0.52385  0.05393  0.18715  1.0000
  C   C1509     1.0  0.58419  0.27602  0.01082  1.0000
  H   H1774     1.0  0.72957  0.33574  0.18312  1.0000
  C   C1510     1.0  0.53629  0.05828  0.16956  1.0000
  C   C1511     1.0  0.52098  0.06069  0.20875  1.0000
  N   N103      1.0  0.74142  0.32610  0.16599  1.0000
  C   C1512     1.0  0.52887  0.07129  0.20964  1.0000
  C   C1513     1.0  0.51308  0.01041  0.08023  1.0000
  H   H1775     1.0  0.58606  0.26915  0.02609  1.0000
  H   H1776     1.0  0.75225  0.33528  0.40959  1.0000
  C   C1514     1.0  0.51867  0.01517  0.09926  1.0000
  C   C1515     1.0  0.74316  0.31542  0.33528  1.0000
  C   C1516     1.0  0.67526  0.33171  0.06783  1.0000
  H   H1777     1.0  0.55969  0.12834  0.00679  1.0000
  H   H1778     1.0  0.68882  0.21701  0.00300  1.0000
  S   S407      1.0  0.50447  0.01063  0.20481  1.0000
  H   H1779     1.0  0.68130  0.33757  0.07682  1.0000
  C   C1517     1.0  0.51524  0.16603  0.44807  1.0000
  C   C1518     1.0  0.51267  0.02041  0.11847  1.0000
  H   H1780     1.0  0.72517  0.31154  0.00039  1.0000
  H   H1781     1.0  0.73623  0.30564  0.26166  1.0000
  S   S408      1.0  0.51123  0.10646  0.14672  1.0000
  C   C1519     1.0  0.58732  0.20188  0.46168  1.0000
  H   H1782     1.0  0.64131  0.27539  0.00168  1.0000
  N   N104      1.0  0.57631  0.21963  0.29958  1.0000
  C   C1520     1.0  0.57366  0.22892  0.31389  1.0000
  C   C1521     1.0  0.58455  0.22547  0.27064  1.0000
  C   C1522     1.0  0.56510  0.21310  0.29504  1.0000
  C   C1523     1.0  0.58183  0.21198  0.31744  1.0000
  C   C1524     1.0  0.57641  0.19973  0.33075  1.0000
  C   C1525     1.0  0.59292  0.21682  0.32241  1.0000
  C   C1526     1.0  0.58202  0.19274  0.34695  1.0000
  C   C1527     1.0  0.59842  0.20975  0.33872  1.0000
  C   C1528     1.0  0.59304  0.19771  0.35073  1.0000
  H   H1783     1.0  0.56802  0.22495  0.33628  1.0000
  H   H1784     1.0  0.58180  0.23502  0.31529  1.0000
  H   H1785     1.0  0.56897  0.23455  0.30194  1.0000
  H   H1786     1.0  0.58048  0.23093  0.25625  1.0000
  H   H1787     1.0  0.58731  0.21881  0.25966  1.0000
  H   H1788     1.0  0.59269  0.23170  0.27171  1.0000
  H   H1789     1.0  0.55819  0.20914  0.31580  1.0000
  H   H1790     1.0  0.56131  0.21908  0.28110  1.0000
  H   H1791     1.0  0.56646  0.20596  0.28421  1.0000
  H   H1792     1.0  0.56778  0.19532  0.32924  1.0000
  H   H1793     1.0  0.59740  0.22616  0.31375  1.0000
  H   H1794     1.0  0.57776  0.18342  0.35684  1.0000
  H   H1795     1.0  0.60693  0.21364  0.34206  1.0000
  H   H1796     1.0  0.59734  0.19222  0.36331  1.0000
  H   H1797     1.0  0.59163  0.19507  0.45538  1.0000
  H   H1798     1.0  0.58693  0.28011  0.18887  1.0000
  H   H1799     1.0  0.74306  0.30642  0.48239  1.0000
  H   H1800     1.0  0.61678  0.29707  0.19134  1.0000
  C   C1529     1.0  0.73346  0.33109  0.30107  1.0000
  N   N105      1.0  0.58763  0.21130  0.43635  1.0000
  H   H1801     1.0  0.54985  0.28272  0.47119  1.0000
  H   H1802     1.0  0.60436  0.32266  0.99110  1.0000
  C   C1530     1.0  0.57713  0.27796  0.45712  1.0000
  H   H1803     1.0  0.52736  0.10879  0.08566  1.0000
  H   H1804     1.0  0.66388  0.31704  0.11905  1.0000
  H   H1805     1.0  0.61240  0.31403  0.46699  1.0000
  H   H1806     1.0  0.63330  0.25835  0.04690  1.0000
  H   H1807     1.0  0.59626  0.05653  0.15190  1.0000
  C   C1531     1.0  0.61752  0.32966  0.09923  1.0000
  C   C1532     1.0  0.55815  0.30046  0.38171  1.0000
  H   H1808     1.0  0.54788  0.13459  0.43288  1.0000
  H   H1809     1.0  0.64599  0.18561  0.44776  1.0000
  H   H1810     1.0  0.65801  0.28254  0.47183  1.0000
  H   H1811     1.0  0.59196  0.20566  0.47664  1.0000
  H   H1812     1.0  0.51245  0.03672  0.21232  1.0000
  C   C1533     1.0  0.53290  0.11427  0.99893  1.0000
  C   C1534     1.0  0.60114  0.08665  0.09704  1.0000
  C   C1535     1.0  0.52861  0.11241  0.06205  1.0000
  C   C1536     1.0  0.64823  0.27083  0.99508  1.0000
  C   C1537     1.0  0.52190  0.04124  0.20177  1.0000
  H   H1813     1.0  0.55070  0.12518  0.05621  1.0000
  H   H1814     1.0  0.56065  0.13570  0.28097  1.0000
  C   C1538     1.0  0.55666  0.11649  0.34256  1.0000
  C   C1539     1.0  0.74044  0.30702  0.03166  1.0000
  H   H1815     1.0  0.54888  0.01317  0.43840  1.0000
  C   C1540     1.0  0.51610  0.05485  0.16712  1.0000
  C   C1541     1.0  0.66102  0.25894  0.01056  1.0000
  C   C1542     1.0  0.74586  0.33859  0.01904  1.0000
  H   H1816     1.0  0.55701  0.19342  0.40752  1.0000
  C   C1543     1.0  0.67353  0.28656  0.26558  1.0000
  Fe  Fe205     1.0  0.58956  0.25599  0.39208  1.0000
  H   H1817     1.0  0.53087  0.09390  0.04038  1.0000
  H   H1818     1.0  0.58431  0.22331  0.46289  1.0000
  H   H1819     1.0  0.60118  0.32184  0.46990  1.0000
  H   H1820     1.0  0.64244  0.28106  0.47739  1.0000
  C   C1544     1.0  0.55608  0.11465  0.26602  1.0000
  H   H1821     1.0  0.62207  0.33097  0.19991  1.0000
  H   H1822     1.0  0.57194  0.04166  0.20985  1.0000
  N   N106      1.0  0.58494  0.15790  0.28668  1.0000
  C   C1545     1.0  0.58171  0.16549  0.30603  1.0000
  C   C1546     1.0  0.58279  0.14573  0.30486  1.0000
  C   C1547     1.0  0.59778  0.16265  0.27265  1.0000
  C   C1548     1.0  0.57810  0.15738  0.26469  1.0000
  C   C1549     1.0  0.58106  0.15159  0.24259  1.0000
  C   C1550     1.0  0.56779  0.16161  0.26592  1.0000
  C   C1551     1.0  0.57430  0.15036  0.22264  1.0000
  C   C1552     1.0  0.56103  0.16022  0.24597  1.0000
  C   C1553     1.0  0.56431  0.15465  0.22433  1.0000
  H   H1823     1.0  0.57251  0.16178  0.31982  1.0000
  H   H1824     1.0  0.58741  0.16610  0.32140  1.0000
  H   H1825     1.0  0.58272  0.17470  0.29351  1.0000
  H   H1826     1.0  0.57323  0.14173  0.31538  1.0000
  H   H1827     1.0  0.58746  0.14562  0.32232  1.0000
  H   H1828     1.0  0.58582  0.13970  0.29219  1.0000
  H   H1829     1.0  0.59973  0.17159  0.25773  1.0000
  H   H1830     1.0  0.60309  0.16336  0.28884  1.0000
  H   H1831     1.0  0.60137  0.15686  0.26006  1.0000
  H   H1832     1.0  0.58844  0.14763  0.24102  1.0000
  H   H1833     1.0  0.56459  0.16579  0.28245  1.0000
  H   H1834     1.0  0.57671  0.14586  0.20601  1.0000
  H   H1835     1.0  0.55310  0.16333  0.24759  1.0000
  H   H1836     1.0  0.55902  0.15348  0.20905  1.0000
  N   N107      1.0  0.66269  0.33005  0.08233  1.0000
  H   H1837     1.0  0.74576  0.33836  0.12375  1.0000
  C   C1554     1.0  0.74552  0.32381  0.19273  1.0000
  H   H1838     1.0  0.58728  0.30847  0.31724  1.0000
  C   C1555     1.0  0.65520  0.32174  0.07042  1.0000
  C   C1556     1.0  0.65542  0.30963  0.07560  1.0000
  C   C1557     1.0  0.55312  0.13679  0.47146  1.0000
  H   H1839     1.0  0.56077  0.14414  0.45988  1.0000
  H   H1840     1.0  0.66708  0.19471  0.43318  1.0000
  C   C1558     1.0  0.51845  0.13762  0.15204  1.0000
  C   C1559     1.0  0.64110  0.31730  0.04136  1.0000
  H   H1841     1.0  0.57936  0.23841  0.00799  1.0000
  H   H1842     1.0  0.57966  0.20556  0.98912  1.0000
  S   S409      1.0  0.51044  0.14487  0.36721  1.0000
  H   H1843     1.0  0.52450  0.10791  0.00980  1.0000
  N   N108      1.0  0.59162  0.32761  0.30114  1.0000
  C   C1560     1.0  0.54589  0.13143  0.45617  1.0000
  H   H1844     1.0  0.52849  0.12191  0.05829  1.0000
  H   H1845     1.0  0.57809  0.19702  0.47400  1.0000
  H   H1846     1.0  0.66091  0.30622  0.08843  1.0000
  H   H1847     1.0  0.56289  0.30199  0.46887  1.0000
  H   H1848     1.0  0.60328  0.32220  0.32676  1.0000
  H   H1849     1.0  0.68966  0.25937  0.01206  1.0000
  H   H1850     1.0  0.69192  0.31371  0.27939  1.0000
  C   C1561     1.0  0.72841  0.33616  0.25527  1.0000
  H   H1851     1.0  0.50895  0.00872  0.26626  1.0000
  H   H1852     1.0  0.53979  0.09998  0.31392  1.0000
  H   H1853     1.0  0.61162  0.15218  0.02181  1.0000
  H   H1854     1.0  0.53839  0.05278  0.15431  1.0000
  H   H1855     1.0  0.66563  0.33155  0.12394  1.0000
  H   H1856     1.0  0.66479  0.19941  0.46545  1.0000
  C   C1562     1.0  0.64848  0.30162  0.06454  1.0000
  C   C1563     1.0  0.57829  0.11170  0.32350  1.0000
  H   H1857     1.0  0.71478  0.33866  0.32096  1.0000
  H   H1858     1.0  0.53727  0.09327  0.07038  1.0000
  H   H1859     1.0  0.60744  0.28585  0.23747  1.0000
  H   H1860     1.0  0.56934  0.29475  0.27294  1.0000
  H   H1861     1.0  0.52179  0.13987  0.19322  1.0000
  H   H1862     1.0  0.67607  0.19162  0.45744  1.0000
  H   H1863     1.0  0.64845  0.17346  0.01250  1.0000
  S   S410      1.0  0.53645  0.01851  0.15374  1.0000
  S   S411      1.0  0.70412  0.27169  0.43871  1.0000
  C   C1564     1.0  0.53981  0.10949  0.30787  1.0000
  H   H1864     1.0  0.66193  0.17520  0.43142  1.0000
  N   N109      1.0  0.59848  0.29603  0.19186  1.0000
  H   H1865     1.0  0.61285  0.29423  0.15982  1.0000
  S   S412      1.0  0.55826  0.04317  0.16584  1.0000
  C   C1565     1.0  0.64070  0.25467  0.03831  1.0000
  H   H1866     1.0  0.54713  0.13194  0.30851  1.0000
  C   C1566     1.0  0.60950  0.29228  0.18363  1.0000
  C   C1567     1.0  0.60119  0.30897  0.17890  1.0000
  C   C1568     1.0  0.59361  0.29339  0.22352  1.0000
  C   C1569     1.0  0.58278  0.29588  0.23495  1.0000
  H   H1867     1.0  0.59342  0.31258  0.18392  1.0000
  C   C1570     1.0  0.59927  0.28826  0.24386  1.0000
  H   H1868     1.0  0.60802  0.28254  0.19204  1.0000
  H   H1869     1.0  0.60837  0.31399  0.18649  1.0000
  H   H1870     1.0  0.68578  0.27591  0.33750  1.0000
  C   C1571     1.0  0.59427  0.28566  0.27358  1.0000
  C   C1572     1.0  0.58350  0.28796  0.28403  1.0000
  H   H1871     1.0  0.57949  0.28558  0.30710  1.0000
  C   C1573     1.0  0.67084  0.25025  0.32721  1.0000
  H   H1872     1.0  0.59864  0.28147  0.28854  1.0000
  H   H1873     1.0  0.67010  0.26875  0.34948  1.0000
  C   C1574     1.0  0.67483  0.28252  0.24062  1.0000
  H   H1874     1.0  0.57419  0.11198  0.28353  1.0000
  S   S413      1.0  0.59074  0.27029  0.35333  1.0000
  C   C1575     1.0  0.67900  0.26728  0.34279  1.0000
  H   H1875     1.0  0.68037  0.26157  0.36220  1.0000
  Fe  Fe206     1.0  0.69223  0.28396  0.43787  1.0000
  H   H1876     1.0  0.68214  0.25712  0.26460  1.0000
  H   H1877     1.0  0.54679  0.13194  0.27211  1.0000
  C   C1576     1.0  0.54170  0.11711  0.01387  1.0000
  H   H1878     1.0  0.56228  0.28985  0.44049  1.0000
  S   S414      1.0  0.58856  0.24182  0.36819  1.0000
  C   C1577     1.0  0.55122  0.20798  0.38614  1.0000
  H   H1879     1.0  0.54408  0.17798  0.39255  1.0000
  H   H1880     1.0  0.54255  0.05799  0.18353  1.0000
  C   C1578     1.0  0.67980  0.26531  0.26568  1.0000
  N   N110      1.0  0.68003  0.26172  0.31811  1.0000
  H   H1881     1.0  0.69897  0.26767  0.30427  1.0000
  H   H1882     1.0  0.60178  0.09482  0.08176  1.0000
  Fe  Fe207     1.0  0.57110  0.26551  0.36876  1.0000
  H   H1883     1.0  0.67153  0.24447  0.34743  1.0000
  H   H1884     1.0  0.69342  0.25421  0.33255  1.0000
  H   H1885     1.0  0.58186  0.28659  0.44120  1.0000
  C   C1579     1.0  0.69183  0.25928  0.31253  1.0000
  C   C1580     1.0  0.67853  0.26915  0.29156  1.0000
  C   C1581     1.0  0.67803  0.27195  0.24062  1.0000
  H   H1886     1.0  0.67157  0.24509  0.31068  1.0000
  H   H1887     1.0  0.62856  0.33312  0.44679  1.0000
  H   H1888     1.0  0.53026  0.11807  0.45897  1.0000
  S   S415      1.0  0.68114  0.28720  0.47731  1.0000
  H   H1889     1.0  0.57811  0.31384  0.29560  1.0000
  H   H1890     1.0  0.58771  0.30999  0.40211  1.0000
  H   H1891     1.0  0.72997  0.30141  0.32982  1.0000
  C   C1582     1.0  0.59959  0.32844  0.27293  1.0000
  C   C1583     1.0  0.72891  0.31860  0.30783  1.0000
  C   C1584     1.0  0.53704  0.13771  0.16615  1.0000
  C   C1585     1.0  0.55131  0.19598  0.39429  1.0000
  H   H1892     1.0  0.58567  0.30519  0.04126  1.0000
  C   C1586     1.0  0.73372  0.31092  0.32461  1.0000
  C   C1587     1.0  0.60626  0.25750  0.99677  1.0000
  H   H1893     1.0  0.56469  0.12093  0.25325  1.0000
  C   C1588     1.0  0.74668  0.30562  0.41104  1.0000
  C   C1589     1.0  0.67204  0.26163  0.01774  1.0000
  C   C1590     1.0  0.55244  0.12560  0.99752  1.0000
  C   C1591     1.0  0.74312  0.33541  0.31234  1.0000
  H   H1894     1.0  0.66182  0.25167  0.33121  1.0000
  H   H1895     1.0  0.69295  0.25393  0.29654  1.0000
  H   H1896     1.0  0.72293  0.32710  0.25741  1.0000
  N   N111      1.0  0.55200  0.11716  0.29441  1.0000
  C   C1592     1.0  0.73828  0.32714  0.02290  1.0000
  C   C1593     1.0  0.64135  0.30545  0.04740  1.0000
  C   C1594     1.0  0.67540  0.28006  0.29071  1.0000
  S   S416      1.0  0.71148  0.28019  0.36893  1.0000
  C   C1595     1.0  0.55976  0.11521  0.31399  1.0000
  C   C1596     1.0  0.57493  0.11296  0.35144  1.0000
  C   C1597     1.0  0.60490  0.22983  0.41741  1.0000
  H   H1897     1.0  0.51684  0.02388  0.13381  1.0000
  H   H1898     1.0  0.67446  0.28389  0.30900  1.0000
  H   H1899     1.0  0.64698  0.33433  0.04776  1.0000
  C   C1598     1.0  0.60005  0.21753  0.42086  1.0000
  H   H1900     1.0  0.54859  0.11878  0.35067  1.0000
  C   C1599     1.0  0.74190  0.31259  0.24316  1.0000
  H   H1901     1.0  0.72259  0.32040  0.18671  1.0000
  H   H1902     1.0  0.72147  0.31468  0.30051  1.0000
  C   C1600     1.0  0.74069  0.31556  0.15405  1.0000
  H   H1903     1.0  0.57518  0.27121  0.44477  1.0000
  Fe  Fe208     1.0  0.56881  0.23852  0.38195  1.0000
  C   C1601     1.0  0.62398  0.22895  0.39100  1.0000
  H   H1904     1.0  0.58360  0.21193  0.03112  1.0000
  C   C1602     1.0  0.57117  0.31409  0.39986  1.0000
  H   H1905     1.0  0.67917  0.26893  0.22099  1.0000
  H   H1906     1.0  0.61101  0.11027  0.09924  1.0000
  C   C1603     1.0  0.58164  0.20577  0.41676  1.0000
  S   S417      1.0  0.56209  0.28051  0.36705  1.0000
  C   C1604     1.0  0.61668  0.23542  0.40261  1.0000
  H   H1907     1.0  0.55785  0.11395  0.04720  1.0000
  C   C1605     1.0  0.64787  0.32537  0.05269  1.0000
  H   H1908     1.0  0.56164  0.11661  0.38251  1.0000
  C   C1606     1.0  0.55468  0.01257  0.01753  1.0000
  C   C1607     1.0  0.54937  0.11553  0.05769  1.0000
  H   H1909     1.0  0.61193  0.27147  0.45805  1.0000
  C   C1608     1.0  0.52563  0.07774  0.22949  1.0000
  C   C1609     1.0  0.72663  0.32467  0.04055  1.0000
  C   C1610     1.0  0.50967  0.12886  0.99616  1.0000
  H   H1910     1.0  0.59159  0.28967  0.02898  1.0000
  H   H1911     1.0  0.54210  0.13817  0.18218  1.0000
  C   C1611     1.0  0.60750  0.31853  0.48125  1.0000
  C   C1612     1.0  0.57959  0.30754  0.39566  1.0000
  C   C1613     1.0  0.59028  0.21518  0.01072  1.0000
  C   C1614     1.0  0.61915  0.10716  0.09414  1.0000
  H   H1912     1.0  0.51729  0.17219  0.46170  1.0000
  H   H1913     1.0  0.55559  0.27454  0.44702  1.0000
  N   N112      1.0  0.65126  0.26420  0.02045  1.0000
  H   H1914     1.0  0.51188  0.07918  0.26348  1.0000
  C   C1615     1.0  0.60875  0.08585  0.11584  1.0000
  S   S418      1.0  0.62799  0.14893  0.48108  1.0000
  N   N113      1.0  0.53969  0.11101  0.04472  1.0000
  H   H1915     1.0  0.63043  0.08541  0.12462  1.0000
  H   H1916     1.0  0.62311  0.10668  0.14437  1.0000
  H   H1917     1.0  0.72032  0.31624  0.04415  1.0000
  H   H1918     1.0  0.60764  0.09964  0.15156  1.0000
  C   C1616     1.0  0.59713  0.25859  0.45417  1.0000
  H   H1919     1.0  0.61744  0.09117  0.16133  1.0000
  C   C1617     1.0  0.62990  0.09310  0.10823  1.0000
  H   H1920     1.0  0.54972  0.29770  0.37682  1.0000
  H   H1921     1.0  0.51218  0.13575  0.03272  1.0000
  H   H1922     1.0  0.60474  0.20181  0.41072  1.0000
  C   C1618     1.0  0.56628  0.29362  0.37851  1.0000
  C   C1619     1.0  0.56051  0.31050  0.39257  1.0000
  H   H1923     1.0  0.67123  0.29489  0.26528  1.0000
  H   H1924     1.0  0.54661  0.09670  0.03438  1.0000
  H   H1925     1.0  0.63739  0.10067  0.10714  1.0000
  N   N114      1.0  0.61840  0.09602  0.11544  1.0000
  H   H1926     1.0  0.62520  0.21186  0.38501  1.0000
  Fe  Fe209     1.0  0.71736  0.28715  0.40489  1.0000
  C   C1620     1.0  0.68121  0.25685  0.00704  1.0000
  H   H1927     1.0  0.62080  0.10615  0.07166  1.0000
  H   H1928     1.0  0.57907  0.33582  0.28460  1.0000
  H   H1929     1.0  0.63726  0.24843  0.02607  1.0000
  H   H1930     1.0  0.60455  0.30794  0.00666  1.0000
  H   H1931     1.0  0.63142  0.09088  0.08696  1.0000
  S   S419      1.0  0.55991  0.21857  0.39980  1.0000
  C   C1621     1.0  0.65944  0.19803  0.99376  1.0000
  C   C1622     1.0  0.65418  0.27261  0.03816  1.0000
  H   H1932     1.0  0.50655  0.05135  0.17855  1.0000
  H   H1933     1.0  0.74521  0.30882  0.04826  1.0000
  H   H1934     1.0  0.64966  0.27290  0.45560  1.0000
  H   H1935     1.0  0.52062  0.10756  0.05699  1.0000
  H   H1936     1.0  0.54744  0.11096  0.08105  1.0000
  H   H1937     1.0  0.57879  0.33576  0.32142  1.0000
  S   S420      1.0  0.73673  0.29318  0.40596  1.0000
  H   H1938     1.0  0.63314  0.23324  0.37980  1.0000
  H   H1939     1.0  0.57128  0.21425  0.45800  1.0000
  H   H1940     1.0  0.64665  0.27632  0.04544  1.0000
  H   H1941     1.0  0.58339  0.27538  0.46954  1.0000
  H   H1942     1.0  0.66083  0.18524  0.03139  1.0000
  H   H1943     1.0  0.65127  0.32288  0.12532  1.0000
  C   C1623     1.0  0.64932  0.27608  0.47553  1.0000
  H   H1944     1.0  0.63445  0.17492  0.00825  1.0000
  H   H1945     1.0  0.66174  0.28029  0.02575  1.0000
  C   C1624     1.0  0.58269  0.31038  0.02387  1.0000
  H   H1946     1.0  0.75129  0.32559  0.47759  1.0000
  H   H1947     1.0  0.51910  0.15848  0.45419  1.0000
  H   H1948     1.0  0.61977  0.31477  0.24294  1.0000
  C   C1625     1.0  0.64635  0.18202  0.47031  1.0000
  H   H1949     1.0  0.67772  0.32315  0.07029  1.0000
  C   C1626     1.0  0.71551  0.33714  0.29901  1.0000
  C   C1627     1.0  0.72286  0.33302  0.05384  1.0000
  C   C1628     1.0  0.67505  0.20068  0.01952  1.0000
  H   H1950     1.0  0.51124  0.15747  0.14493  1.0000
  C   C1629     1.0  0.74932  0.33654  0.14310  1.0000
  C   C1630     1.0  0.60136  0.31330  0.99000  1.0000
  H   H1951     1.0  0.63527  0.32017  0.02870  1.0000
  C   C1631     1.0  0.65969  0.25093  0.99278  1.0000
  C   C1632     1.0  0.58474  0.33664  0.29993  1.0000
  H   H1952     1.0  0.52701  0.04026  0.21840  1.0000
  H   H1953     1.0  0.52477  0.03609  0.18626  1.0000
  C   C1633     1.0  0.75263  0.31923  0.24504  1.0000
  S   S421      1.0  0.50458  0.08480  0.11477  1.0000
  H   H1954     1.0  0.55716  0.26030  0.48571  1.0000
  H   H1955     1.0  0.60558  0.33791  0.31445  1.0000
  C   C1634     1.0  0.67967  0.24921  0.98921  1.0000
  H   H1956     1.0  0.63831  0.25375  0.46567  1.0000
  C   C1635     1.0  0.60095  0.33743  0.24754  1.0000
  H   H1957     1.0  0.50576  0.16131  0.40615  1.0000
  C   C1636     1.0  0.75362  0.32649  0.41189  1.0000
  C   C1637     1.0  0.50584  0.15026  0.16423  1.0000
  N   N115      1.0  0.50606  0.13843  0.15929  1.0000
  H   H1958     1.0  0.70046  0.33973  0.17690  1.0000
  H   H1959     1.0  0.61848  0.24114  0.47309  1.0000
  C   C1638     1.0  0.73469  0.31533  0.98912  1.0000
  H   H1960     1.0  0.64385  0.18830  0.48296  1.0000
  H   H1961     1.0  0.61633  0.33842  0.09874  1.0000
  C   C1639     1.0  0.60891  0.33820  0.22157  1.0000
  H   H1962     1.0  0.50423  0.14361  0.11573  1.0000
  H   H1963     1.0  0.61636  0.33970  0.44664  1.0000
  H   H1964     1.0  0.65603  0.25602  0.47763  1.0000
  C   C1640     1.0  0.57871  0.27303  0.98977  1.0000
  C   C1641     1.0  0.63190  0.25263  0.48572  1.0000
  H   H1965     1.0  0.57639  0.26387  0.98860  1.0000
  H   H1966     1.0  0.50444  0.14753  0.43105  1.0000
  C   C1642     1.0  0.58641  0.17842  0.80211  1.0000
  H   H1967     1.0  0.52729  0.10461  0.58534  1.0000
  H   H1968     1.0  0.59317  0.29176  0.80772  1.0000
  H   H1969     1.0  0.67370  0.32680  0.60995  1.0000
  H   H1970     1.0  0.56662  0.10982  0.86539  1.0000
  C   C1643     1.0  0.62445  0.31226  0.51087  1.0000
  H   H1971     1.0  0.55661  0.09781  0.69654  1.0000
  H   H1972     1.0  0.55244  0.11009  0.54601  1.0000
  H   H1973     1.0  0.55263  0.00916  0.55955  1.0000
  H   H1974     1.0  0.72212  0.31735  0.82350  1.0000
  Fe  Fe210     1.0  0.58760  0.26129  0.83204  1.0000
  S   S422      1.0  0.56799  0.25368  0.84974  1.0000
  S   S423      1.0  0.59735  0.27169  0.78649  1.0000
  S   S424      1.0  0.50976  0.14428  0.87466  1.0000
  S   S425      1.0  0.59215  0.24557  0.85637  1.0000
  H   H1975     1.0  0.57286  0.20341  0.80053  1.0000
  H   H1976     1.0  0.53487  0.06835  0.70722  1.0000
  H   H1977     1.0  0.60107  0.30262  0.85361  1.0000
  Fe  Fe211     1.0  0.54701  0.02081  0.68538  1.0000
  Fe  Fe212     1.0  0.59618  0.28905  0.58845  1.0000
  S   S426      1.0  0.57999  0.27377  0.60310  1.0000
  S   S427      1.0  0.59621  0.30811  0.57379  1.0000
  Fe  Fe213     1.0  0.61269  0.27369  0.59678  1.0000
  S   S428      1.0  0.59812  0.25682  0.61155  1.0000
  S   S429      1.0  0.63179  0.27358  0.59194  1.0000
  Fe  Fe214     1.0  0.59099  0.26507  0.57564  1.0000
  S   S430      1.0  0.58176  0.25408  0.55024  1.0000
  Fe  Fe215     1.0  0.58824  0.26670  0.63796  1.0000
  S   S431      1.0  0.57784  0.25760  0.68391  1.0000
  S   S432      1.0  0.60657  0.28099  0.55811  1.0000
  S   S433      1.0  0.60329  0.28286  0.62609  1.0000
  Fe  Fe216     1.0  0.69516  0.26688  0.90924  1.0000
  S   S434      1.0  0.68295  0.27881  0.90847  1.0000
  S   S435      1.0  0.68929  0.24711  0.90914  1.0000
  Fe  Fe217     1.0  0.69168  0.28638  0.93982  1.0000
  H   H1978     1.0  0.58942  0.31819  0.95075  1.0000
  H   H1979     1.0  0.58297  0.17444  0.78658  1.0000
  S   S436      1.0  0.69464  0.30306  0.83519  1.0000
  Fe  Fe218     1.0  0.67864  0.30328  0.65207  1.0000
  S   S437      1.0  0.68378  0.28613  0.66110  1.0000
  S   S438      1.0  0.66011  0.30498  0.65826  1.0000
  Fe  Fe219     1.0  0.70357  0.31837  0.63148  1.0000
  S   S439      1.0  0.71114  0.30271  0.63807  1.0000
  H   H1980     1.0  0.65778  0.27737  0.52155  1.0000
  Fe  Fe220     1.0  0.69724  0.29425  0.61852  1.0000
  S   S440      1.0  0.70248  0.28402  0.58626  1.0000
  Fe  Fe221     1.0  0.69718  0.29598  0.68003  1.0000
  S   S441      1.0  0.70248  0.28696  0.71879  1.0000
  S   S442      1.0  0.69098  0.31061  0.60793  1.0000
  S   S443      1.0  0.69073  0.31244  0.67501  1.0000
  Fe  Fe222     1.0  0.52207  0.13833  0.84213  1.0000
  S   S444      1.0  0.52748  0.12667  0.87672  1.0000
  S   S445      1.0  0.52213  0.13405  0.79790  1.0000
  Fe  Fe223     1.0  0.52550  0.15910  0.87291  1.0000
  S   S446      1.0  0.53080  0.14857  0.90927  1.0000
  S   S447      1.0  0.52551  0.17857  0.86911  1.0000
  Fe  Fe224     1.0  0.54155  0.14278  0.87434  1.0000
  S   S448      1.0  0.56050  0.14254  0.86988  1.0000
  Fe  Fe225     1.0  0.51616  0.13342  0.90906  1.0000
  H   H1981     1.0  0.56774  0.14528  0.72529  1.0000
  S   S449      1.0  0.53714  0.15410  0.83792  1.0000
  C   C1644     1.0  0.50436  0.11913  0.98705  1.0000
  C   C1645     1.0  0.54539  0.12777  0.95416  1.0000
  H   H1982     1.0  0.65584  0.32855  0.63799  1.0000
  N   N116      1.0  0.72918  0.31049  0.51159  1.0000
  S   S450      1.0  0.55842  0.04023  0.66956  1.0000
  H   H1983     1.0  0.57303  0.32010  0.76293  1.0000
  C   C1646     1.0  0.57325  0.29693  0.89527  1.0000
  Fe  Fe226     1.0  0.51547  0.09237  0.64302  1.0000
  S   S451      1.0  0.53478  0.09323  0.63218  1.0000
  H   H1984     1.0  0.73842  0.30021  0.53566  1.0000
  Fe  Fe227     1.0  0.59198  0.10314  0.69864  1.0000
  S   S452      1.0  0.58959  0.11461  0.65879  1.0000
  S   S453      1.0  0.58642  0.08264  0.71354  1.0000
  Fe  Fe228     1.0  0.60011  0.12504  0.72410  1.0000
  S   S454      1.0  0.59771  0.13774  0.68627  1.0000
  S   S455      1.0  0.60456  0.12937  0.76585  1.0000
  Fe  Fe229     1.0  0.58121  0.12399  0.68936  1.0000
  S   S456      1.0  0.56383  0.12826  0.68901  1.0000
  Fe  Fe230     1.0  0.60640  0.12762  0.65774  1.0000
  S   S457      1.0  0.62055  0.13958  0.61751  1.0000
  S   S458      1.0  0.58265  0.11200  0.72938  1.0000
  S   S459      1.0  0.60976  0.11541  0.69560  1.0000
  Fe  Fe231     1.0  0.62715  0.17124  0.87407  1.0000
  S   S460      1.0  0.62099  0.18768  0.87746  1.0000
  S   S461      1.0  0.62855  0.16751  0.82856  1.0000
  Fe  Fe232     1.0  0.62774  0.16629  0.93890  1.0000
  S   S462      1.0  0.62082  0.18182  0.94561  1.0000
  C   C1647     1.0  0.52697  0.08587  0.73039  1.0000
  Fe  Fe233     1.0  0.60873  0.17610  0.91878  1.0000
  S   S463      1.0  0.58984  0.17688  0.92836  1.0000
  Fe  Fe234     1.0  0.63396  0.19228  0.90371  1.0000
  S   S464      1.0  0.64140  0.21180  0.90419  1.0000
  S   S465      1.0  0.61437  0.15953  0.91540  1.0000
  S   S466      1.0  0.64144  0.17683  0.89717  1.0000
  C   C1648     1.0  0.61028  0.14055  0.78324  1.0000
  C   C1649     1.0  0.60919  0.13735  0.81328  1.0000
  C   C1650     1.0  0.61411  0.14558  0.82777  1.0000
  C   C1651     1.0  0.62048  0.15719  0.81241  1.0000
  C   C1652     1.0  0.62136  0.16046  0.78246  1.0000
  C   C1653     1.0  0.61624  0.15230  0.76806  1.0000
  H   H1985     1.0  0.60463  0.12835  0.82551  1.0000
  H   H1986     1.0  0.61332  0.14279  0.85071  1.0000
  H   H1987     1.0  0.62631  0.16933  0.77011  1.0000
  H   H1988     1.0  0.61722  0.15504  0.74506  1.0000
  C   C1654     1.0  0.61949  0.14122  0.58097  1.0000
  C   C1655     1.0  0.61904  0.15220  0.56447  1.0000
  C   C1656     1.0  0.62077  0.15448  0.53408  1.0000
  C   C1657     1.0  0.62338  0.14593  0.51964  1.0000
  C   C1658     1.0  0.62368  0.13496  0.53623  1.0000
  C   C1659     1.0  0.62168  0.13258  0.56654  1.0000
  H   H1989     1.0  0.61773  0.15911  0.57510  1.0000
  H   H1990     1.0  0.62063  0.16304  0.52176  1.0000
  H   H1991     1.0  0.57832  0.27768  0.51881  1.0000
  H   H1992     1.0  0.62246  0.12424  0.57859  1.0000
  C   C1660     1.0  0.54262  0.10387  0.64627  1.0000
  C   C1661     1.0  0.53682  0.10785  0.66877  1.0000
  C   C1662     1.0  0.54332  0.11577  0.68109  1.0000
  C   C1663     1.0  0.55562  0.11976  0.67084  1.0000
  C   C1664     1.0  0.56134  0.11614  0.64759  1.0000
  C   C1665     1.0  0.55488  0.10807  0.63562  1.0000
  H   H1993     1.0  0.52737  0.10453  0.67746  1.0000
  H   H1994     1.0  0.53883  0.11848  0.69918  1.0000
  H   H1995     1.0  0.57075  0.11954  0.63880  1.0000
  H   H1996     1.0  0.55942  0.10504  0.61820  1.0000
  C   C1666     1.0  0.56629  0.05179  0.68236  1.0000
  C   C1667     1.0  0.56851  0.04983  0.70976  1.0000
  C   C1668     1.0  0.57493  0.05928  0.71852  1.0000
  C   C1669     1.0  0.57901  0.07091  0.70039  1.0000
  C   C1670     1.0  0.57680  0.07285  0.67298  1.0000
  C   C1671     1.0  0.57054  0.06337  0.66408  1.0000
  H   H1997     1.0  0.57663  0.05759  0.73967  1.0000
  H   H1998     1.0  0.57998  0.08166  0.65851  1.0000
  H   H1999     1.0  0.56900  0.06503  0.64274  1.0000
  H   H2000     1.0  0.62581  0.33652  0.72279  1.0000
  C   C1672     1.0  0.74034  0.32134  0.72703  1.0000
  S   S467      1.0  0.71537  0.33672  0.61165  1.0000
  H   H2001     1.0  0.56613  0.26357  0.50919  1.0000
  H   H2002     1.0  0.51069  0.09112  0.73898  1.0000
  C   C1673     1.0  0.58301  0.20413  0.93716  1.0000
  H   H2003     1.0  0.65617  0.27775  0.98064  1.0000
  H   H2004     1.0  0.59624  0.32780  0.63616  1.0000
  C   C1674     1.0  0.51447  0.04610  0.63997  1.0000
  C   C1675     1.0  0.56026  0.26715  0.49691  1.0000
  C   C1676     1.0  0.66540  0.20938  0.97495  1.0000
  C   C1677     1.0  0.59481  0.22358  0.91071  1.0000
  Fe  Fe235     1.0  0.71652  0.28797  0.90752  1.0000
  C   C1678     1.0  0.59713  0.30663  0.66145  1.0000
  C   C1679     1.0  0.57273  0.29416  0.74415  1.0000
  C   C1680     1.0  0.51882  0.12613  0.74978  1.0000
  C   C1681     1.0  0.64079  0.32922  0.52474  1.0000
  H   H2005     1.0  0.62582  0.12831  0.52545  1.0000
  H   H2006     1.0  0.60242  0.20437  0.90131  1.0000
  H   H2007     1.0  0.52765  0.13167  0.73940  1.0000
  C   C1682     1.0  0.56855  0.15207  0.88638  1.0000
  C   C1683     1.0  0.58086  0.15431  0.87983  1.0000
  C   C1684     1.0  0.58744  0.16200  0.89250  1.0000
  C   C1685     1.0  0.58173  0.16744  0.91189  1.0000
  C   C1686     1.0  0.56945  0.16531  0.91821  1.0000
  C   C1687     1.0  0.56288  0.15762  0.90555  1.0000
  H   H2008     1.0  0.58535  0.15019  0.86474  1.0000
  H   H2009     1.0  0.59694  0.16387  0.88673  1.0000
  H   H2010     1.0  0.56500  0.16953  0.93308  1.0000
  H   H2011     1.0  0.55346  0.15600  0.91081  1.0000
  C   C1688     1.0  0.69756  0.29911  0.80223  1.0000
  C   C1689     1.0  0.70367  0.29054  0.79859  1.0000
  C   C1690     1.0  0.70521  0.28699  0.77273  1.0000
  C   C1691     1.0  0.70075  0.29207  0.75026  1.0000
  C   C1692     1.0  0.69496  0.30092  0.75350  1.0000
  C   C1693     1.0  0.69338  0.30445  0.77945  1.0000
  H   H2012     1.0  0.70709  0.28651  0.81579  1.0000
  H   H2013     1.0  0.70978  0.28019  0.77022  1.0000
  H   H2014     1.0  0.69149  0.30489  0.73629  1.0000
  H   H2015     1.0  0.71639  0.31898  0.49755  1.0000
  C   C1694     1.0  0.68240  0.29093  0.53031  1.0000
  C   C1695     1.0  0.68700  0.29024  0.55472  1.0000
  C   C1696     1.0  0.69592  0.28446  0.55708  1.0000
  C   C1697     1.0  0.70009  0.27927  0.53517  1.0000
  H   H2016     1.0  0.55469  0.06610  0.73255  1.0000
  H   H2017     1.0  0.67552  0.29542  0.52856  1.0000
  H   H2018     1.0  0.68363  0.29416  0.57167  1.0000
  Fe  Fe236     1.0  0.57076  0.26330  0.88427  1.0000
  H   H2019     1.0  0.64527  0.15177  0.55953  1.0000
  C   C1698     1.0  0.67593  0.23768  0.90669  1.0000
  C   C1699     1.0  0.66506  0.24053  0.91204  1.0000
  C   C1700     1.0  0.65467  0.23250  0.91116  1.0000
  C   C1701     1.0  0.65494  0.22156  0.90460  1.0000
  C   C1702     1.0  0.66583  0.21880  0.89873  1.0000
  C   C1703     1.0  0.67620  0.22676  0.90002  1.0000
  H   H2020     1.0  0.66461  0.24886  0.91721  1.0000
  H   H2021     1.0  0.64633  0.23478  0.91575  1.0000
  H   H2022     1.0  0.66629  0.21052  0.89333  1.0000
  H   H2023     1.0  0.68452  0.22442  0.89579  1.0000
  C   C1704     1.0  0.63994  0.28298  0.60868  1.0000
  C   C1705     1.0  0.65156  0.28265  0.60879  1.0000
  C   C1706     1.0  0.65790  0.28956  0.62355  1.0000
  C   C1707     1.0  0.65260  0.29675  0.63842  1.0000
  C   C1708     1.0  0.64107  0.29718  0.63804  1.0000
  C   C1709     1.0  0.63483  0.29040  0.62298  1.0000
  H   H2024     1.0  0.65565  0.27699  0.59765  1.0000
  H   H2025     1.0  0.66684  0.28922  0.62360  1.0000
  H   H2026     1.0  0.63698  0.30280  0.64928  1.0000
  H   H2027     1.0  0.62610  0.29104  0.62243  1.0000
  H   H2028     1.0  0.60989  0.31621  0.69465  1.0000
  C   C1710     1.0  0.55861  0.00895  0.96992  1.0000
  C   C1711     1.0  0.62406  0.32432  0.50339  1.0000
  C   C1712     1.0  0.58792  0.25599  0.51334  1.0000
  N   N117      1.0  0.64688  0.26626  0.50179  1.0000
  H   H2029     1.0  0.73423  0.31681  0.74874  1.0000
  H   H2030     1.0  0.73153  0.31614  0.86023  1.0000
  H   H2031     1.0  0.60363  0.26938  0.51025  1.0000
  H   H2032     1.0  0.57332  0.24285  0.50956  1.0000
  C   C1713     1.0  0.60397  0.20750  0.92054  1.0000
  C   C1714     1.0  0.58257  0.26229  0.71255  1.0000
  C   C1715     1.0  0.57722  0.25549  0.74098  1.0000
  C   C1716     1.0  0.58149  0.25848  0.76402  1.0000
  C   C1717     1.0  0.59111  0.26829  0.75865  1.0000
  C   C1718     1.0  0.59627  0.27527  0.73035  1.0000
  C   C1719     1.0  0.59195  0.27231  0.70740  1.0000
  H   H2033     1.0  0.56991  0.24776  0.74514  1.0000
  H   H2034     1.0  0.57748  0.25304  0.78582  1.0000
  H   H2035     1.0  0.60372  0.28288  0.72613  1.0000
  H   H2036     1.0  0.59599  0.27769  0.68574  1.0000
  C   C1720     1.0  0.54318  0.07561  0.69904  1.0000
  H   H2037     1.0  0.56544  0.04099  0.72405  1.0000
  C   C1721     1.0  0.54383  0.18643  0.89368  1.0000
  C   C1722     1.0  0.53655  0.18952  0.87598  1.0000
  C   C1723     1.0  0.53808  0.20162  0.86325  1.0000
  C   C1724     1.0  0.54700  0.21050  0.86745  1.0000
  H   H2038     1.0  0.54294  0.12273  0.82048  1.0000
  H   H2039     1.0  0.54267  0.17720  0.90407  1.0000
  H   H2040     1.0  0.53244  0.20416  0.84974  1.0000
  H   H2041     1.0  0.54815  0.21974  0.85720  1.0000
  C   C1725     1.0  0.62713  0.33058  0.59605  1.0000
  C   C1726     1.0  0.62677  0.31886  0.59539  1.0000
  C   C1727     1.0  0.61763  0.31217  0.58685  1.0000
  C   C1728     1.0  0.60865  0.31707  0.57971  1.0000
  C   C1729     1.0  0.60933  0.32898  0.57893  1.0000
  H   H2042     1.0  0.64256  0.20558  0.96802  1.0000
  H   H2043     1.0  0.63352  0.31495  0.60169  1.0000
  H   H2044     1.0  0.61756  0.30321  0.58583  1.0000
  H   H2045     1.0  0.60251  0.33292  0.57306  1.0000
  C   C1730     1.0  0.60824  0.33422  0.50506  1.0000
  S   S468      1.0  0.53328  0.01296  0.72806  1.0000
  C   C1731     1.0  0.59765  0.17747  0.80438  1.0000
  H   H2046     1.0  0.56726  0.19940  0.83909  1.0000
  H   H2047     1.0  0.55636  0.12458  0.55239  1.0000
  C   C1732     1.0  0.61449  0.24922  0.53629  1.0000
  H   H2048     1.0  0.65535  0.17065  0.74232  1.0000
  H   H2049     1.0  0.51445  0.13711  0.98042  1.0000
  H   H2050     1.0  0.58592  0.24226  0.95501  1.0000
  H   H2051     1.0  0.58080  0.29331  0.89122  1.0000
  H   H2052     1.0  0.52459  0.08244  0.71292  1.0000
  C   C1733     1.0  0.58341  0.31846  0.72319  1.0000
  C   C1734     1.0  0.56988  0.30192  0.76059  1.0000
  N   N118      1.0  0.63963  0.13742  0.71169  1.0000
  C   C1735     1.0  0.63429  0.12442  0.72278  1.0000
  C   C1736     1.0  0.63133  0.14264  0.69780  1.0000
  C   C1737     1.0  0.65071  0.13918  0.68933  1.0000
  C   C1738     1.0  0.64215  0.14333  0.73453  1.0000
  C   C1739     1.0  0.64825  0.15554  0.72718  1.0000
  C   C1740     1.0  0.63852  0.13734  0.76442  1.0000
  C   C1741     1.0  0.65085  0.16129  0.74830  1.0000
  C   C1742     1.0  0.64120  0.14317  0.78532  1.0000
  C   C1743     1.0  0.64738  0.15509  0.77729  1.0000
  H   H2053     1.0  0.62534  0.12237  0.73772  1.0000
  H   H2054     1.0  0.63310  0.12009  0.70504  1.0000
  H   H2055     1.0  0.63996  0.12000  0.73427  1.0000
  H   H2056     1.0  0.62284  0.14142  0.71384  1.0000
  H   H2057     1.0  0.62921  0.13846  0.68035  1.0000
  H   H2058     1.0  0.63491  0.15231  0.68776  1.0000
  H   H2059     1.0  0.65746  0.13601  0.69920  1.0000
  H   H2060     1.0  0.64918  0.13427  0.67270  1.0000
  H   H2061     1.0  0.65463  0.14861  0.67726  1.0000
  H   H2062     1.0  0.65089  0.16080  0.70508  1.0000
  H   H2063     1.0  0.63327  0.12825  0.77240  1.0000
  H   H2064     1.0  0.64477  0.26499  0.98198  1.0000
  C   C1744     1.0  0.50624  0.02586  0.63862  1.0000
  H   H2065     1.0  0.51091  0.16035  0.91779  1.0000
  C   C1745     1.0  0.52266  0.04391  0.65640  1.0000
  C   C1746     1.0  0.53315  0.05246  0.65303  1.0000
  C   C1747     1.0  0.53578  0.06344  0.63335  1.0000
  H   H2066     1.0  0.72832  0.32205  0.65173  1.0000
  H   H2067     1.0  0.58144  0.31983  0.65624  1.0000
  H   H2068     1.0  0.54389  0.07009  0.63087  1.0000
  N   N119      1.0  0.67203  0.26339  0.83294  1.0000
  C   C1748     1.0  0.68232  0.26640  0.84518  1.0000
  C   C1749     1.0  0.67081  0.25110  0.82963  1.0000
  C   C1750     1.0  0.67460  0.27142  0.80373  1.0000
  H   H2069     1.0  0.68481  0.27589  0.84533  1.0000
  H   H2070     1.0  0.68044  0.26110  0.86783  1.0000
  H   H2071     1.0  0.69037  0.26467  0.83268  1.0000
  H   H2072     1.0  0.66891  0.24459  0.85089  1.0000
  H   H2073     1.0  0.67909  0.25017  0.81615  1.0000
  H   H2074     1.0  0.67660  0.28092  0.80408  1.0000
  H   H2075     1.0  0.68240  0.27034  0.78868  1.0000
  H   H2076     1.0  0.66696  0.26969  0.79406  1.0000
  N   N120      1.0  0.61800  0.25344  0.69690  1.0000
  C   C1751     1.0  0.60639  0.24627  0.71641  1.0000
  C   C1752     1.0  0.61575  0.26046  0.67089  1.0000
  C   C1753     1.0  0.62470  0.24504  0.68811  1.0000
  C   C1754     1.0  0.62496  0.26157  0.71023  1.0000
  C   C1755     1.0  0.62051  0.26305  0.73818  1.0000
  C   C1756     1.0  0.63652  0.26854  0.69485  1.0000
  C   C1757     1.0  0.62727  0.27099  0.74983  1.0000
  C   C1758     1.0  0.64328  0.27626  0.70696  1.0000
  C   C1759     1.0  0.63865  0.27755  0.73429  1.0000
  H   H2077     1.0  0.60065  0.25199  0.72272  1.0000
  H   H2078     1.0  0.60134  0.24027  0.70579  1.0000
  H   H2079     1.0  0.60744  0.24065  0.73637  1.0000
  H   H2080     1.0  0.62401  0.26499  0.65378  1.0000
  H   H2081     1.0  0.61151  0.26746  0.67614  1.0000
  H   H2082     1.0  0.60988  0.25484  0.66112  1.0000
  H   H2083     1.0  0.62723  0.24011  0.70677  1.0000
  H   H2084     1.0  0.61944  0.23844  0.67927  1.0000
  H   H2085     1.0  0.63293  0.24959  0.67077  1.0000
  H   H2086     1.0  0.61176  0.25832  0.75147  1.0000
  H   H2087     1.0  0.64041  0.26821  0.67314  1.0000
  H   H2088     1.0  0.62358  0.27208  0.77101  1.0000
  H   H2089     1.0  0.65214  0.28141  0.69485  1.0000
  H   H2090     1.0  0.64388  0.28372  0.74329  1.0000
  N   N121      1.0  0.59488  0.31578  0.67689  1.0000
  C   C1760     1.0  0.55461  0.14482  0.77672  1.0000
  H   H2091     1.0  0.58732  0.32795  0.71602  1.0000
  H   H2092     1.0  0.58047  0.19215  0.85638  1.0000
  H   H2093     1.0  0.60244  0.17289  0.79101  1.0000
  C   C1761     1.0  0.57985  0.18405  0.82014  1.0000
  C   C1762     1.0  0.59642  0.18752  0.84253  1.0000
  C   C1763     1.0  0.59152  0.24673  0.96634  1.0000
  C   C1764     1.0  0.58516  0.18841  0.84071  1.0000
  H   H2094     1.0  0.64386  0.18188  0.95740  1.0000
  N   N122      1.0  0.55904  0.13487  0.76900  1.0000
  H   H2095     1.0  0.64714  0.26483  0.54646  1.0000
  H   H2096     1.0  0.55845  0.19271  0.91115  1.0000
  C   C1765     1.0  0.52872  0.10764  0.56155  1.0000
  C   C1766     1.0  0.55949  0.17621  0.84620  1.0000
  H   H2097     1.0  0.72423  0.29195  0.53408  1.0000
  C   C1767     1.0  0.55213  0.29427  0.90569  1.0000
  H   H2098     1.0  0.72628  0.33416  0.70673  1.0000
  H   H2099     1.0  0.55729  0.19741  0.81738  1.0000
  C   C1768     1.0  0.57054  0.30775  0.50056  1.0000
  S   S469      1.0  0.53408  0.01679  0.65830  1.0000
  H   H2100     1.0  0.66206  0.21308  0.95729  1.0000
  H   H2101     1.0  0.62615  0.29994  0.73489  1.0000
  H   H2102     1.0  0.51069  0.02189  0.65441  1.0000
  N   N123      1.0  0.53834  0.11876  0.54902  1.0000
  S   S470      1.0  0.73607  0.29371  0.90773  1.0000
  S   S471      1.0  0.51080  0.10946  0.64361  1.0000
  C   C1769     1.0  0.55183  0.12199  0.81988  1.0000
  C   C1770     1.0  0.54076  0.12298  0.51720  1.0000
  H   H2103     1.0  0.55634  0.13733  0.51241  1.0000
  C   C1771     1.0  0.73988  0.31672  0.84437  1.0000
  H   H2104     1.0  0.58713  0.30312  0.79157  1.0000
  S   S472      1.0  0.63377  0.15582  0.97535  1.0000
  H   H2105     1.0  0.58224  0.19567  0.95296  1.0000
  S   S473      1.0  0.55874  0.27436  0.89954  1.0000
  C   C1772     1.0  0.60717  0.30489  0.83165  1.0000
  H   H2106     1.0  0.52674  0.12989  0.55725  1.0000
  H   H2107     1.0  0.72542  0.30185  0.72724  1.0000
  H   H2108     1.0  0.60966  0.29662  0.82899  1.0000
  H   H2109     1.0  0.52100  0.03555  0.67212  1.0000
  S   S474      1.0  0.68132  0.29090  0.97816  1.0000
  C   C1773     1.0  0.56394  0.18121  0.79456  1.0000
  H   H2110     1.0  0.72508  0.30517  0.69028  1.0000
  S   S475      1.0  0.50425  0.12004  0.95028  1.0000
  C   C1774     1.0  0.57916  0.29363  0.97172  1.0000
  C   C1775     1.0  0.59658  0.21614  0.95904  1.0000
  C   C1776     1.0  0.57890  0.29429  0.52861  1.0000
  H   H2111     1.0  0.60758  0.24804  0.55563  1.0000
  N   N124      1.0  0.54668  0.08048  0.72265  1.0000
  H   H2112     1.0  0.72507  0.30179  0.55706  1.0000
  C   C1777     1.0  0.65571  0.25930  0.49741  1.0000
  C   C1778     1.0  0.53783  0.08564  0.73779  1.0000
  C   C1779     1.0  0.66071  0.33644  0.64371  1.0000
  C   C1780     1.0  0.54003  0.09075  0.76067  1.0000
  H   H2113     1.0  0.63339  0.32074  0.70528  1.0000
  C   C1781     1.0  0.74206  0.32621  0.67424  1.0000
  C   C1782     1.0  0.73597  0.32184  0.51486  1.0000
  H   H2114     1.0  0.59285  0.22139  0.89078  1.0000
  C   C1783     1.0  0.50948  0.12878  0.51950  1.0000
  H   H2115     1.0  0.56233  0.09250  0.72633  1.0000
  C   C1784     1.0  0.62576  0.25657  0.53240  1.0000
  C   C1785     1.0  0.51260  0.11961  0.73377  1.0000
  C   C1786     1.0  0.51368  0.12564  0.77879  1.0000
  H   H2116     1.0  0.54816  0.09101  0.76720  1.0000
  C   C1787     1.0  0.64861  0.27168  0.52597  1.0000
  H   H2117     1.0  0.53286  0.12506  0.58666  1.0000
  C   C1788     1.0  0.73779  0.33264  0.80586  1.0000
  C   C1789     1.0  0.67875  0.33451  0.61592  1.0000
  H   H2118     1.0  0.61401  0.22829  0.93797  1.0000
  Fe  Fe237     1.0  0.52106  0.00780  0.70095  1.0000
  C   C1790     1.0  0.59107  0.30026  0.80962  1.0000
  C   C1791     1.0  0.65821  0.17620  0.50208  1.0000
  C   C1792     1.0  0.71962  0.32965  0.78907  1.0000
  H   H2119     1.0  0.61315  0.32572  0.65889  1.0000
  Fe  Fe238     1.0  0.57256  0.23841  0.87713  1.0000
  C   C1793     1.0  0.62272  0.32741  0.73585  1.0000
  H   H2120     1.0  0.50551  0.14585  0.94172  1.0000
  S   S476      1.0  0.56637  0.21798  0.88941  1.0000
  C   C1794     1.0  0.66422  0.18347  0.51717  1.0000
  H   H2121     1.0  0.56454  0.08678  0.69551  1.0000
  C   C1795     1.0  0.64102  0.31737  0.53147  1.0000
  H   H2122     1.0  0.52792  0.11720  0.95854  1.0000
  H   H2123     1.0  0.54391  0.33821  0.89827  1.0000
  C   C1796     1.0  0.53476  0.11953  0.96952  1.0000
  H   H2124     1.0  0.60350  0.23027  0.90397  1.0000
  C   C1797     1.0  0.58811  0.21166  0.98625  1.0000
  H   H2125     1.0  0.51382  0.13636  0.52595  1.0000
  H   H2126     1.0  0.58328  0.11905  0.82189  1.0000
  C   C1798     1.0  0.56627  0.19670  0.81907  1.0000
  C   C1799     1.0  0.74711  0.32843  0.49576  1.0000
  H   H2127     1.0  0.57675  0.14622  0.75030  1.0000
  H   H2128     1.0  0.56863  0.28470  0.75238  1.0000
  C   C1800     1.0  0.55445  0.20737  0.88464  1.0000
  H   H2129     1.0  0.65379  0.25150  0.51615  1.0000
  H   H2130     1.0  0.60310  0.23810  0.51809  1.0000
  C   C1801     1.0  0.65072  0.16058  0.54761  1.0000
  S   S477      1.0  0.70296  0.27357  0.94329  1.0000
  H   H2131     1.0  0.66780  0.24028  0.96830  1.0000
  H   H2132     1.0  0.61861  0.26547  0.95497  1.0000
  H   H2133     1.0  0.66808  0.18500  0.55771  1.0000
  H   H2134     1.0  0.60010  0.19066  0.85895  1.0000
  C   C1802     1.0  0.57524  0.31405  0.75017  1.0000
  C   C1803     1.0  0.59028  0.32421  0.65836  1.0000
  C   C1804     1.0  0.61193  0.24358  0.51512  1.0000
  C   C1805     1.0  0.68684  0.28602  0.50800  1.0000
  C   C1806     1.0  0.72925  0.30070  0.53559  1.0000
  H   H2135     1.0  0.71181  0.30310  0.50652  1.0000
  H   H2136     1.0  0.64263  0.27751  0.52975  1.0000
  H   H2137     1.0  0.57688  0.29992  0.95603  1.0000
  C   C1807     1.0  0.55056  0.13274  0.50153  1.0000
  H   H2138     1.0  0.60090  0.30013  0.67381  1.0000
  H   H2139     1.0  0.69903  0.27620  0.49381  1.0000
  N   N125      1.0  0.73443  0.31992  0.70349  1.0000
  C   C1808     1.0  0.72629  0.32573  0.80765  1.0000
  H   H2140     1.0  0.56866  0.31633  0.49519  1.0000
  C   C1809     1.0  0.63247  0.33268  0.51089  1.0000
  S   S478      1.0  0.60745  0.25669  0.91353  1.0000
  H   H2141     1.0  0.57545  0.20781  0.94450  1.0000
  H   H2142     1.0  0.54726  0.11248  0.58091  1.0000
  N   N126      1.0  0.59455  0.21283  0.93249  1.0000
  N   N127      1.0  0.74516  0.32886  0.82508  1.0000
  H   H2143     1.0  0.56352  0.29850  0.78150  1.0000
  C   C1810     1.0  0.60266  0.18205  0.82444  1.0000
  H   H2144     1.0  0.72338  0.32182  0.55415  1.0000
  H   H2145     1.0  0.56244  0.13728  0.95592  1.0000
  H   H2146     1.0  0.57342  0.13307  0.73721  1.0000
  C   C1811     1.0  0.53486  0.12796  0.56263  1.0000
  C   C1812     1.0  0.63285  0.30890  0.52466  1.0000
  C   C1813     1.0  0.51738  0.05746  0.62022  1.0000
  H   H2147     1.0  0.54329  0.28869  0.90941  1.0000
  C   C1814     1.0  0.63485  0.25848  0.50691  1.0000
  H   H2148     1.0  0.55377  0.00767  0.91622  1.0000
  C   C1815     1.0  0.73071  0.30707  0.70521  1.0000
  H   H2149     1.0  0.54018  0.06388  0.75506  1.0000
  C   C1816     1.0  0.57262  0.12626  0.79617  1.0000
  N   N128      1.0  0.60160  0.30959  0.80890  1.0000
  C   C1817     1.0  0.58077  0.29851  0.71698  1.0000
  H   H2150     1.0  0.63114  0.19264  0.98680  1.0000
  C   C1818     1.0  0.71676  0.31081  0.51265  1.0000
  C   C1819     1.0  0.61019  0.31282  0.78026  1.0000
  C   C1820     1.0  0.61450  0.32465  0.76259  1.0000
  C   C1821     1.0  0.61467  0.30402  0.76943  1.0000
  C   C1822     1.0  0.62697  0.31855  0.72597  1.0000
  H   H2151     1.0  0.73836  0.33746  0.85701  1.0000
  C   C1823     1.0  0.53346  0.11783  0.50093  1.0000
  C   C1824     1.0  0.58170  0.24918  0.49828  1.0000
  H   H2152     1.0  0.58897  0.30181  0.65684  1.0000
  N   N129      1.0  0.61564  0.32832  0.48772  1.0000
  C   C1825     1.0  0.67588  0.21611  0.97824  1.0000
  C   C1826     1.0  0.57618  0.28180  0.97031  1.0000
  H   H2153     1.0  0.51165  0.06009  0.60716  1.0000
  H   H2154     1.0  0.60431  0.19965  0.93684  1.0000
  H   H2155     1.0  0.58411  0.29805  0.83027  1.0000
  H   H2156     1.0  0.60364  0.31066  0.64018  1.0000
  C   C1827     1.0  0.66348  0.17931  0.54656  1.0000
  H   H2157     1.0  0.68868  0.31113  0.78213  1.0000
  C   C1828     1.0  0.55418  0.13084  0.96812  1.0000
  C   C1829     1.0  0.69566  0.28016  0.51058  1.0000
  H   H2158     1.0  0.66373  0.24844  0.81879  1.0000
  C   C1830     1.0  0.57446  0.11981  0.82133  1.0000
  H   H2159     1.0  0.58032  0.13017  0.77826  1.0000
  H   H2160     1.0  0.51672  0.12015  0.71154  1.0000
  C   C1831     1.0  0.65163  0.18773  0.96120  1.0000
  H   H2161     1.0  0.64962  0.24717  0.85899  1.0000
  H   H2162     1.0  0.65489  0.19562  0.94238  1.0000
  H   H2163     1.0  0.54684  0.13175  0.93131  1.0000
  C   C1832     1.0  0.52791  0.06592  0.61702  1.0000
  H   H2164     1.0  0.55005  0.07182  0.68812  1.0000
  H   H2165     1.0  0.74799  0.31738  0.72545  1.0000
  C   C1833     1.0  0.55364  0.30610  0.90685  1.0000
  H   H2166     1.0  0.71079  0.32434  0.79117  1.0000
  C   C1834     1.0  0.54907  0.11641  0.55726  1.0000
  C   C1835     1.0  0.56183  0.28956  0.89984  1.0000
  C   C1836     1.0  0.66138  0.26497  0.85161  1.0000
  C   C1837     1.0  0.54864  0.07066  0.74354  1.0000
  H   H2167     1.0  0.58806  0.22800  0.91936  1.0000
  C   C1838     1.0  0.59739  0.31972  0.81640  1.0000
  H   H2168     1.0  0.63806  0.13856  0.80806  1.0000
  C   C1839     1.0  0.65061  0.25588  0.86289  1.0000
  H   H2169     1.0  0.58342  0.29236  0.54539  1.0000
  H   H2170     1.0  0.55279  0.07379  0.75996  1.0000
  H   H2171     1.0  0.74591  0.31394  0.85738  1.0000
  H   H2172     1.0  0.61173  0.33199  0.76894  1.0000
  C   C1840     1.0  0.60260  0.25429  0.95125  1.0000
  C   C1841     1.0  0.56974  0.14010  0.74452  1.0000
  C   C1842     1.0  0.66148  0.27604  0.85834  1.0000
  H   H2173     1.0  0.66930  0.28344  0.85024  1.0000
  C   C1843     1.0  0.64065  0.25781  0.87990  1.0000
  H   H2174     1.0  0.55289  0.11967  0.75340  1.0000
  H   H2175     1.0  0.53311  0.00729  0.94269  1.0000
  H   H2176     1.0  0.65597  0.16474  0.58460  1.0000
  H   H2177     1.0  0.63247  0.25082  0.88822  1.0000
  C   C1844     1.0  0.56123  0.12765  0.79478  1.0000
  H   H2178     1.0  0.52009  0.10888  0.55836  1.0000
  H   H2179     1.0  0.64732  0.31468  0.54280  1.0000
  C   C1845     1.0  0.55277  0.19527  0.89777  1.0000
  C   C1846     1.0  0.74560  0.31659  0.91497  1.0000
  H   H2180     1.0  0.59302  0.32364  0.80019  1.0000
  H   H2181     1.0  0.56101  0.15039  0.78537  1.0000
  C   C1847     1.0  0.57479  0.30893  0.89674  1.0000
  C   C1848     1.0  0.65150  0.27784  0.87550  1.0000
  C   C1849     1.0  0.64109  0.26875  0.88620  1.0000
  Fe  Fe239     1.0  0.69808  0.29204  0.87446  1.0000
  H   H2182     1.0  0.55286  0.15051  0.75786  1.0000
  C   C1850     1.0  0.56508  0.11455  0.84574  1.0000
  H   H2183     1.0  0.54846  0.13252  0.73864  1.0000
  C   C1851     1.0  0.55003  0.12745  0.75864  1.0000
  H   H2184     1.0  0.61128  0.18108  0.82647  1.0000
  C   C1852     1.0  0.60728  0.22429  0.95802  1.0000
  C   C1853     1.0  0.74450  0.33203  0.62177  1.0000
  H   H2185     1.0  0.56500  0.01076  0.94949  1.0000
  C   C1854     1.0  0.51886  0.09087  0.74518  1.0000
  H   H2186     1.0  0.65184  0.28636  0.88039  1.0000
  H   H2187     1.0  0.63330  0.27018  0.89925  1.0000
  Fe  Fe240     1.0  0.59258  0.25518  0.89126  1.0000
  C   C1855     1.0  0.56954  0.28799  0.49191  1.0000
  C   C1856     1.0  0.65671  0.16791  0.56175  1.0000
  H   H2188     1.0  0.64905  0.15965  0.79376  1.0000
  H   H2189     1.0  0.55491  0.18221  0.79430  1.0000
  H   H2190     1.0  0.53368  0.09958  0.79270  1.0000
  H   H2191     1.0  0.58942  0.33203  0.66696  1.0000
  H   H2192     1.0  0.60577  0.32996  0.68905  1.0000
  S   S479      1.0  0.58997  0.27164  0.86490  1.0000
  H   H2193     1.0  0.66371  0.33971  0.58631  1.0000
  H   H2194     1.0  0.61289  0.21382  0.91358  1.0000
  H   H2195     1.0  0.59076  0.31697  0.83771  1.0000
  H   H2196     1.0  0.54129  0.12414  0.77461  1.0000
  C   C1857     1.0  0.66890  0.24618  0.98230  1.0000
  H   H2197     1.0  0.55248  0.26771  0.51296  1.0000
  N   N130      1.0  0.56764  0.18456  0.81970  1.0000
  H   H2198     1.0  0.57007  0.18688  0.77382  1.0000
  H   H2199     1.0  0.74342  0.33088  0.72668  1.0000
  S   S480      1.0  0.70547  0.30092  0.90574  1.0000
  H   H2200     1.0  0.70232  0.33696  0.66839  1.0000
  H   H2201     1.0  0.55016  0.17632  0.84730  1.0000
  H   H2202     1.0  0.56342  0.17172  0.79535  1.0000
  C   C1858     1.0  0.74692  0.30520  0.91379  1.0000
  H   H2203     1.0  0.68039  0.22467  0.96314  1.0000
  H   H2204     1.0  0.71802  0.32011  0.73143  1.0000
  H   H2205     1.0  0.56014  0.16698  0.84721  1.0000
  S   S481      1.0  0.56568  0.32836  0.90456  1.0000
  H   H2206     1.0  0.52558  0.11065  0.51087  1.0000
  C   C1859     1.0  0.59876  0.26414  0.49875  1.0000
  H   H2207     1.0  0.54190  0.13644  0.55556  1.0000
  H   H2208     1.0  0.56156  0.17833  0.86603  1.0000
  H   H2209     1.0  0.54613  0.14164  0.79361  1.0000
  C   C1860     1.0  0.74695  0.33721  0.84354  1.0000
  H   H2210     1.0  0.60475  0.32684  0.81802  1.0000
  H   H2211     1.0  0.58354  0.31456  0.89360  1.0000
  H   H2212     1.0  0.58235  0.29200  0.70526  1.0000
  H   H2213     1.0  0.66945  0.19245  0.50685  1.0000
  H   H2214     1.0  0.54652  0.11165  0.86413  1.0000
  H   H2215     1.0  0.62707  0.26071  0.54961  1.0000
  H   H2216     1.0  0.54202  0.08263  0.68194  1.0000
  C   C1861     1.0  0.61867  0.33578  0.58669  1.0000
  C   C1862     1.0  0.55799  0.08977  0.70982  1.0000
  C   C1863     1.0  0.55377  0.11558  0.84496  1.0000
  C   C1864     1.0  0.73162  0.32647  0.53826  1.0000
  H   H2217     1.0  0.74067  0.33218  0.60347  1.0000
  C   C1865     1.0  0.51050  0.12952  0.48987  1.0000
  H   H2218     1.0  0.57866  0.31165  0.53430  1.0000
  H   H2219     1.0  0.73741  0.31871  0.91296  1.0000
  H   H2220     1.0  0.53074  0.10029  0.55229  1.0000
  H   H2221     1.0  0.71805  0.32264  0.69441  1.0000
  S   S482      1.0  0.71007  0.27993  0.87344  1.0000
  C   C1866     1.0  0.53184  0.09570  0.77534  1.0000
  C   C1867     1.0  0.60639  0.32219  0.68006  1.0000
  H   H2222     1.0  0.71162  0.31038  0.53466  1.0000
  H   H2223     1.0  0.61187  0.29485  0.78171  1.0000
  H   H2224     1.0  0.70689  0.27466  0.53703  1.0000
  C   C1868     1.0  0.57623  0.30518  0.52234  1.0000
  C   C1869     1.0  0.73746  0.32631  0.64965  1.0000
  H   H2225     1.0  0.52993  0.07457  0.60206  1.0000
  S   S483      1.0  0.63766  0.33832  0.61043  1.0000
  C   C1870     1.0  0.52127  0.09572  0.76765  1.0000
  C   C1871     1.0  0.56490  0.31352  0.90252  1.0000
  C   C1872     1.0  0.72376  0.32440  0.70920  1.0000
  C   C1873     1.0  0.62289  0.30686  0.74266  1.0000
  H   H2226     1.0  0.54595  0.30949  0.91139  1.0000
  H   H2227     1.0  0.57183  0.27939  0.95405  1.0000
  C   C1874     1.0  0.57578  0.28587  0.51345  1.0000
  H   H2228     1.0  0.61532  0.31151  0.83134  1.0000
  C   C1875     1.0  0.65146  0.16463  0.51826  1.0000
  H   H2229     1.0  0.60601  0.31264  0.96850  1.0000
  C   C1876     1.0  0.58639  0.31084  0.70565  1.0000
  S   S484      1.0  0.57337  0.24740  0.91345  1.0000
  C   C1877     1.0  0.62060  0.24533  0.48981  1.0000
  C   C1878     1.0  0.61001  0.25964  0.96653  1.0000
  H   H2230     1.0  0.53930  0.05053  0.66566  1.0000
  C   C1879     1.0  0.50576  0.15534  0.94009  1.0000
  H   H2231     1.0  0.65856  0.18279  0.96087  1.0000
  H   H2232     1.0  0.58185  0.20170  0.91685  1.0000
  H   H2233     1.0  0.60268  0.32793  0.52563  1.0000
  H   H2234     1.0  0.63286  0.29964  0.53078  1.0000
  S   S485      1.0  0.50385  0.08668  0.61491  1.0000
  H   H2235     1.0  0.51494  0.09960  0.77895  1.0000
  H   H2236     1.0  0.73545  0.32345  0.97223  1.0000
  H   H2237     1.0  0.64645  0.15868  0.50850  1.0000
  H   H2238     1.0  0.73811  0.30998  0.83197  1.0000
  H   H2239     1.0  0.60221  0.33785  0.49323  1.0000
  H   H2240     1.0  0.66279  0.33319  0.66461  1.0000
  H   H2241     1.0  0.51217  0.02758  0.61668  1.0000
  H   H2242     1.0  0.73847  0.30347  0.69951  1.0000
  H   H2243     1.0  0.68128  0.33076  0.63583  1.0000
  C   C1880     1.0  0.75329  0.33908  0.49968  1.0000
  H   H2244     1.0  0.64692  0.33574  0.53092  1.0000
  H   H2245     1.0  0.68692  0.24580  0.98029  1.0000
  H   H2246     1.0  0.51085  0.15833  0.95519  1.0000
  H   H2247     1.0  0.60206  0.31185  0.50149  1.0000
  H   H2248     1.0  0.73741  0.30869  0.97792  1.0000
  H   H2249     1.0  0.70409  0.28754  0.98355  1.0000
  H   H2250     1.0  0.68691  0.33866  0.59806  1.0000
  H   H2251     1.0  0.58760  0.32716  0.97548  1.0000
  H   H2252     1.0  0.75245  0.33465  0.85839  1.0000
  H   H2253     1.0  0.53271  0.00917  0.55341  1.0000
  C   C1881     1.0  0.58497  0.31793  0.97324  1.0000
  H   H2254     1.0  0.61828  0.30521  0.50671  1.0000
  H   H2255     1.0  0.65156  0.24845  0.98649  1.0000
  H   H2256     1.0  0.57525  0.31571  0.97592  1.0000
  C   C1882     1.0  0.53889  0.00690  0.53729  1.0000
  C   C1883     1.0  0.73780  0.33721  0.54169  1.0000
  H   H2257     1.0  0.57115  0.02023  0.98540  1.0000
  C   C1884     1.0  0.60934  0.22775  0.98262  1.0000
  H   H2258     1.0  0.61737  0.23432  0.98106  1.0000
  H   H2259     1.0  0.66483  0.26470  0.49494  1.0000
  C   C1885     1.0  0.55013  0.00689  0.54081  1.0000
  C   C1886     1.0  0.63979  0.19805  0.98767  1.0000
  C   C1887     1.0  0.71083  0.38354  0.15579  1.0000
  H   H2260     1.0  0.62398  0.40175  0.29398  1.0000
  C   C1888     1.0  0.57583  0.55801  0.12540  1.0000
  H   H2261     1.0  0.62285  0.38637  0.29818  1.0000
  H   H2262     1.0  0.69453  0.38273  0.20469  1.0000
  H   H2263     1.0  0.71664  0.39981  0.20317  1.0000
  Fe  Fe241     1.0  0.72482  0.48080  0.44982  1.0000
  S   S486      1.0  0.72577  0.46202  0.45507  1.0000
  H   H2264     1.0  0.70511  0.38290  0.14056  1.0000
  Fe  Fe242     1.0  0.69875  0.47483  0.44788  1.0000
  S   S487      1.0  0.69802  0.45540  0.45340  1.0000
  S   S488      1.0  0.68160  0.47901  0.44083  1.0000
  H   H2265     1.0  0.54105  0.56390  0.20602  1.0000
  C   C1889     1.0  0.70895  0.34620  0.17003  1.0000
  Fe  Fe243     1.0  0.71562  0.46154  0.42103  1.0000
  S   S489      1.0  0.72147  0.45262  0.38561  1.0000
  H   H2266     1.0  0.54148  0.63211  0.26461  1.0000
  S   S490      1.0  0.71594  0.48084  0.41319  1.0000
  Fe  Fe244     1.0  0.64515  0.37721  0.12248  1.0000
  S   S491      1.0  0.62956  0.38478  0.12211  1.0000
  S   S492      1.0  0.66309  0.38965  0.11608  1.0000
  H   H2267     1.0  0.71394  0.38410  0.20827  1.0000
  H   H2268     1.0  0.72008  0.38488  0.14331  1.0000
  Fe  Fe245     1.0  0.62501  0.37305  0.09301  1.0000
  S   S493      1.0  0.62020  0.38091  0.05202  1.0000
  Fe  Fe246     1.0  0.61981  0.36889  0.15906  1.0000
  S   S494      1.0  0.60716  0.37040  0.19866  1.0000
  S   S495      1.0  0.64145  0.36669  0.09049  1.0000
  S   S496      1.0  0.63575  0.36207  0.16122  1.0000
  Fe  Fe247     1.0  0.70470  0.44322  0.18919  1.0000
  S   S497      1.0  0.70554  0.42471  0.18871  1.0000
  S   S498      1.0  0.71088  0.45778  0.14792  1.0000
  Fe  Fe248     1.0  0.69778  0.43752  0.25528  1.0000
  S   S499      1.0  0.69810  0.41849  0.25999  1.0000
  S   S500      1.0  0.69214  0.44529  0.29290  1.0000
  Fe  Fe249     1.0  0.71464  0.42575  0.22408  1.0000
  S   S501      1.0  0.73087  0.41910  0.22262  1.0000
  Fe  Fe250     1.0  0.68889  0.41912  0.22415  1.0000
  S   S502      1.0  0.67384  0.40337  0.22852  1.0000
  S   S503      1.0  0.71519  0.44481  0.22209  1.0000
  S   S504      1.0  0.68716  0.43765  0.22204  1.0000
  H   H2269     1.0  0.51579  0.64423  0.04623  1.0000
  H   H2270     1.0  0.75374  0.42636  0.17925  1.0000
  H   H2271     1.0  0.51656  0.45070  0.32722  1.0000
  Fe  Fe251     1.0  0.53069  0.60358  0.22750  1.0000
  S   S505      1.0  0.53594  0.62361  0.21314  1.0000
  S   S506      1.0  0.54031  0.59075  0.24752  1.0000
  Fe  Fe252     1.0  0.51874  0.62251  0.24419  1.0000
  S   S507      1.0  0.51734  0.63568  0.27225  1.0000
  Fe  Fe253     1.0  0.52517  0.62152  0.18030  1.0000
  S   S508      1.0  0.52987  0.63199  0.13302  1.0000
  S   S509      1.0  0.51396  0.60273  0.25996  1.0000
  S   S510      1.0  0.52164  0.60166  0.19210  1.0000
  H   H2272     1.0  0.55693  0.42305  0.29374  1.0000
  S   S511      1.0  0.52713  0.47352  0.15760  1.0000
  S   S512      1.0  0.54311  0.50674  0.13410  1.0000
  Fe  Fe254     1.0  0.57360  0.53002  0.23385  1.0000
  S   S513      1.0  0.58919  0.52285  0.23416  1.0000
  S   S514      1.0  0.55560  0.51728  0.24685  1.0000
  Fe  Fe255     1.0  0.58830  0.55526  0.21666  1.0000
  S   S515      1.0  0.60546  0.54972  0.21584  1.0000
  S   S516      1.0  0.58615  0.57392  0.20099  1.0000
  Fe  Fe256     1.0  0.59824  0.53646  0.19226  1.0000
  S   S517      1.0  0.60707  0.52781  0.15889  1.0000
  Fe  Fe257     1.0  0.59503  0.53628  0.25804  1.0000
  S   S518      1.0  0.59872  0.52571  0.29845  1.0000
  S   S519      1.0  0.58206  0.54286  0.19059  1.0000
  S   S520      1.0  0.57855  0.54273  0.25999  1.0000
  C   C1890     1.0  0.73660  0.39334  0.28379  1.0000
  S   S521      1.0  0.50857  0.62208  0.21015  1.0000
  S   S522      1.0  0.71018  0.34253  0.11595  1.0000
  H   H2273     1.0  0.51454  0.65239  0.30606  1.0000
  S   S523      1.0  0.62753  0.53058  0.47670  1.0000
  C   C1891     1.0  0.52538  0.61668  0.04397  1.0000
  H   H2274     1.0  0.72894  0.48639  0.28096  1.0000
  C   C1892     1.0  0.56302  0.40804  0.30781  1.0000
  Fe  Fe258     1.0  0.61840  0.52490  0.44368  1.0000
  S   S524      1.0  0.61978  0.53827  0.40185  1.0000
  H   H2275     1.0  0.63628  0.49500  0.07958  1.0000
  S   S525      1.0  0.62475  0.50839  0.44535  1.0000
  Fe  Fe259     1.0  0.56447  0.45927  0.38705  1.0000
  H   H2276     1.0  0.54712  0.39168  0.44447  1.0000
  S   S526      1.0  0.58320  0.47067  0.37449  1.0000
  C   C1893     1.0  0.56816  0.55875  0.15026  1.0000
  S   S527      1.0  0.55055  0.46856  0.37980  1.0000
  C   C1894     1.0  0.66032  0.34195  0.07817  1.0000
  Fe  Fe260     1.0  0.54355  0.45409  0.35979  1.0000
  C   C1895     1.0  0.69732  0.39091  0.18664  1.0000
  H   H2277     1.0  0.51422  0.52016  0.21378  1.0000
  H   H2278     1.0  0.72500  0.34240  0.24094  1.0000
  S   S528      1.0  0.55846  0.44562  0.36408  1.0000
  C   C1896     1.0  0.75138  0.43714  0.27779  1.0000
  H   H2279     1.0  0.57152  0.47986  0.05967  1.0000
  Fe  Fe261     1.0  0.58583  0.37049  0.38904  1.0000
  H   H2280     1.0  0.74347  0.35384  0.26581  1.0000
  C   C1897     1.0  0.55058  0.39299  0.34978  1.0000
  H   H2281     1.0  0.55965  0.63633  0.23316  1.0000
  H   H2282     1.0  0.63395  0.52142  0.03012  1.0000
  H   H2283     1.0  0.58284  0.47597  0.30101  1.0000
  H   H2284     1.0  0.53970  0.42804  0.29064  1.0000
  C   C1898     1.0  0.59332  0.47887  0.45479  1.0000
  C   C1899     1.0  0.58562  0.46800  0.45669  1.0000
  C   C1900     1.0  0.58298  0.46524  0.43182  1.0000
  C   C1901     1.0  0.58794  0.47336  0.40490  1.0000
  C   C1902     1.0  0.59596  0.48412  0.40277  1.0000
  C   C1903     1.0  0.59862  0.48691  0.42775  1.0000
  H   H2285     1.0  0.50696  0.60018  0.99308  1.0000
  H   H2286     1.0  0.69098  0.38961  0.17309  1.0000
  H   H2287     1.0  0.59983  0.49044  0.38198  1.0000
  H   H2288     1.0  0.60461  0.49531  0.42612  1.0000
  C   C1904     1.0  0.60855  0.53046  0.12099  1.0000
  C   C1905     1.0  0.60879  0.54148  0.10390  1.0000
  C   C1906     1.0  0.55470  0.41470  0.30976  1.0000
  C   C1907     1.0  0.57651  0.61795  0.21763  1.0000
  C   C1908     1.0  0.61241  0.52334  0.07714  1.0000
  C   C1909     1.0  0.61031  0.52140  0.10740  1.0000
  H   H2289     1.0  0.60754  0.54857  0.11397  1.0000
  H   H2290     1.0  0.53222  0.44466  0.05889  1.0000
  C   C1910     1.0  0.54866  0.50165  0.36079  1.0000
  H   H2291     1.0  0.61009  0.51282  0.12040  1.0000
  C   C1911     1.0  0.60408  0.52960  0.32751  1.0000
  C   C1912     1.0  0.60338  0.52047  0.35158  1.0000
  C   C1913     1.0  0.60785  0.52301  0.37485  1.0000
  C   C1914     1.0  0.61330  0.53471  0.37401  1.0000
  C   C1915     1.0  0.61394  0.54384  0.35002  1.0000
  C   C1916     1.0  0.60928  0.54132  0.32696  1.0000
  H   H2292     1.0  0.59951  0.51136  0.35202  1.0000
  H   H2293     1.0  0.60743  0.51589  0.39298  1.0000
  H   H2294     1.0  0.61812  0.55292  0.34918  1.0000
  H   H2295     1.0  0.60993  0.54842  0.30855  1.0000
  H   H2296     1.0  0.65229  0.40719  0.08586  1.0000
  C   C1917     1.0  0.66554  0.42002  0.29300  1.0000
  C   C1918     1.0  0.73956  0.43713  0.28002  1.0000
  H   H2297     1.0  0.71259  0.46581  0.04474  1.0000
  H   H2298     1.0  0.61785  0.35570  0.05766  1.0000
  C   C1919     1.0  0.71339  0.40472  0.14808  1.0000
  Fe  Fe262     1.0  0.52650  0.49233  0.14319  1.0000
  C   C1920     1.0  0.56738  0.51639  0.34332  1.0000
  C   C1921     1.0  0.74027  0.45257  0.14900  1.0000
  H   H2299     1.0  0.68327  0.42165  0.04668  1.0000
  C   C1922     1.0  0.54682  0.50829  0.16624  1.0000
  C   C1923     1.0  0.55829  0.51435  0.16516  1.0000
  C   C1924     1.0  0.56111  0.51662  0.19026  1.0000
  C   C1925     1.0  0.55243  0.51306  0.21639  1.0000
  C   C1926     1.0  0.54110  0.50650  0.21781  1.0000
  C   C1927     1.0  0.53833  0.50400  0.19278  1.0000
  H   H2300     1.0  0.56499  0.51741  0.14489  1.0000
  H   H2301     1.0  0.57004  0.52104  0.18932  1.0000
  H   H2302     1.0  0.53442  0.50346  0.23817  1.0000
  H   H2303     1.0  0.52956  0.49897  0.19406  1.0000
  C   C1928     1.0  0.51413  0.63396  0.31030  1.0000
  C   C1929     1.0  0.51350  0.63849  0.06778  1.0000
  C   C1930     1.0  0.66724  0.51896  0.02975  1.0000
  H   H2304     1.0  0.54033  0.48247  0.07629  1.0000
  C   C1931     1.0  0.51661  0.61128  0.03153  1.0000
  H   H2305     1.0  0.58429  0.50309  0.40268  1.0000
  H   H2306     1.0  0.60119  0.40035  0.39969  1.0000
  H   H2307     1.0  0.53437  0.39594  0.36970  1.0000
  H   H2308     1.0  0.57454  0.63437  0.19411  1.0000
  C   C1932     1.0  0.60556  0.36767  0.28349  1.0000
  C   C1933     1.0  0.51900  0.63163  0.11289  1.0000
  H   H2309     1.0  0.66055  0.42802  0.07420  1.0000
  C   C1934     1.0  0.55528  0.40792  0.41113  1.0000
  H   H2310     1.0  0.54504  0.49038  0.40306  1.0000
  H   H2311     1.0  0.57854  0.54852  0.09265  1.0000
  H   H2312     1.0  0.71771  0.46510  0.29003  1.0000
  C   C1935     1.0  0.73403  0.35180  0.27781  1.0000
  H   H2313     1.0  0.66258  0.34671  0.05493  1.0000
  S   S529      1.0  0.61377  0.50507  0.01242  1.0000
  C   C1936     1.0  0.73077  0.40095  0.29525  1.0000
  C   C1937     1.0  0.55285  0.58604  0.23314  1.0000
  C   C1938     1.0  0.55531  0.57635  0.25027  1.0000
  C   C1939     1.0  0.56539  0.57250  0.24059  1.0000
  C   C1940     1.0  0.57325  0.57841  0.21373  1.0000
  C   C1941     1.0  0.57083  0.58814  0.19657  1.0000
  C   C1942     1.0  0.56059  0.59185  0.20603  1.0000
  H   H2314     1.0  0.54943  0.57184  0.27134  1.0000
  H   H2315     1.0  0.56720  0.56510  0.25416  1.0000
  H   H2316     1.0  0.57689  0.59281  0.17581  1.0000
  H   H2317     1.0  0.55886  0.59939  0.19273  1.0000
  H   H2318     1.0  0.64892  0.43828  0.27234  1.0000
  H   H2319     1.0  0.59605  0.41761  0.40550  1.0000
  C   C1943     1.0  0.64536  0.38710  0.28680  1.0000
  C   C1944     1.0  0.73867  0.42566  0.24449  1.0000
  C   C1945     1.0  0.51324  0.64392  0.32104  1.0000
  C   C1946     1.0  0.73325  0.43151  0.26320  1.0000
  C   C1947     1.0  0.70957  0.41791  0.10741  1.0000
  H   H2320     1.0  0.72414  0.43158  0.26501  1.0000
  C   C1948     1.0  0.66583  0.39374  0.14727  1.0000
  C   C1949     1.0  0.67504  0.40368  0.14467  1.0000
  C   C1950     1.0  0.67744  0.40691  0.16943  1.0000
  C   C1951     1.0  0.67079  0.40004  0.19689  1.0000
  C   C1952     1.0  0.66164  0.39008  0.19944  1.0000
  C   C1953     1.0  0.65908  0.38703  0.17473  1.0000
  H   H2321     1.0  0.68031  0.40894  0.12354  1.0000
  H   H2322     1.0  0.68448  0.41465  0.16723  1.0000
  H   H2323     1.0  0.65653  0.38465  0.22057  1.0000
  H   H2324     1.0  0.65200  0.37935  0.17702  1.0000
  C   C1954     1.0  0.70013  0.44916  0.06818  1.0000
  C   C1955     1.0  0.69507  0.44115  0.09544  1.0000
  C   C1956     1.0  0.69842  0.44363  0.12001  1.0000
  C   C1957     1.0  0.70675  0.45420  0.11747  1.0000
  C   C1958     1.0  0.71185  0.46216  0.09021  1.0000
  C   C1959     1.0  0.70860  0.45962  0.06562  1.0000
  H   H2325     1.0  0.68849  0.43305  0.09763  1.0000
  H   H2326     1.0  0.69441  0.43746  0.14096  1.0000
  H   H2327     1.0  0.71830  0.47035  0.08810  1.0000
  C   C1960     1.0  0.59119  0.49318  0.24897  1.0000
  C   C1961     1.0  0.71258  0.44976  0.36169  1.0000
  C   C1962     1.0  0.70309  0.45476  0.36028  1.0000
  C   C1963     1.0  0.69665  0.45295  0.33974  1.0000
  C   C1964     1.0  0.69960  0.44610  0.32051  1.0000
  C   C1965     1.0  0.70886  0.44077  0.32252  1.0000
  C   C1966     1.0  0.71539  0.44270  0.34287  1.0000
  H   H2328     1.0  0.70083  0.46020  0.37471  1.0000
  H   H2329     1.0  0.68948  0.45708  0.33840  1.0000
  H   H2330     1.0  0.71113  0.43540  0.30800  1.0000
  H   H2331     1.0  0.72268  0.43874  0.34402  1.0000
  C   C1967     1.0  0.67331  0.48840  0.45407  1.0000
  C   C1968     1.0  0.67794  0.49708  0.46715  1.0000
  C   C1969     1.0  0.74277  0.45939  0.12075  1.0000
  C   C1970     1.0  0.65960  0.50345  0.47270  1.0000
  C   C1971     1.0  0.65490  0.49461  0.46013  1.0000
  C   C1972     1.0  0.66177  0.48722  0.45064  1.0000
  H   H2332     1.0  0.68682  0.49813  0.46980  1.0000
  S   S530      1.0  0.50529  0.46135  0.23560  1.0000
  C   C1973     1.0  0.56138  0.54116  0.12245  1.0000
  H   H2333     1.0  0.63644  0.51989  0.08085  1.0000
  H   H2334     1.0  0.54090  0.42415  0.36813  1.0000
  C   C1974     1.0  0.62337  0.36262  0.26291  1.0000
  C   C1975     1.0  0.62107  0.36494  0.23557  1.0000
  C   C1976     1.0  0.61088  0.36842  0.23213  1.0000
  C   C1977     1.0  0.60319  0.36986  0.25616  1.0000
  C   C1978     1.0  0.53188  0.46010  0.29234  1.0000
  H   H2335     1.0  0.62708  0.36383  0.21734  1.0000
  H   H2336     1.0  0.55534  0.47997  0.42797  1.0000
  H   H2337     1.0  0.73916  0.36976  0.14507  1.0000
  Fe  Fe263     1.0  0.60154  0.36045  0.42440  1.0000
  C   C1979     1.0  0.55903  0.61986  0.26403  1.0000
  C   C1980     1.0  0.74195  0.34689  0.03236  1.0000
  C   C1981     1.0  0.61639  0.37147  0.02978  1.0000
  C   C1982     1.0  0.71705  0.39272  0.19152  1.0000
  H   H2338     1.0  0.73528  0.44153  0.29457  1.0000
  H   H2339     1.0  0.53142  0.43393  0.31602  1.0000
  H   H2340     1.0  0.52636  0.42537  0.36606  1.0000
  H   H2341     1.0  0.64312  0.51533  0.00627  1.0000
  H   H2342     1.0  0.55885  0.53417  0.11192  1.0000
  H   H2343     1.0  0.55685  0.50939  0.44090  1.0000
  H   H2344     1.0  0.53203  0.61042  0.31228  1.0000
  H   H2345     1.0  0.54440  0.49679  0.08363  1.0000
  H   H2346     1.0  0.61109  0.39442  0.41756  1.0000
  C   C1983     1.0  0.61557  0.36385  0.28698  1.0000
  C   C1984     1.0  0.61267  0.35205  0.01981  1.0000
  H   H2347     1.0  0.66992  0.48704  0.03131  1.0000
  H   H2348     1.0  0.56545  0.42259  0.37522  1.0000
  H   H2349     1.0  0.57884  0.51707  0.37086  1.0000
  S   S531      1.0  0.51805  0.48927  0.10765  1.0000
  H   H2350     1.0  0.59533  0.37262  0.25362  1.0000
  C   C1985     1.0  0.56311  0.62867  0.23728  1.0000
  H   H2351     1.0  0.54959  0.54950  0.23404  1.0000
  H   H2352     1.0  0.60864  0.39146  0.46834  1.0000
  Fe  Fe264     1.0  0.63042  0.35224  0.12942  1.0000
  H   H2353     1.0  0.63960  0.37890  0.28448  1.0000
  H   H2354     1.0  0.71121  0.34320  0.28701  1.0000
  C   C1986     1.0  0.73488  0.48518  0.26168  1.0000
  H   H2355     1.0  0.54026  0.49744  0.35745  1.0000
  H   H2356     1.0  0.58851  0.49683  0.30329  1.0000
  H   H2357     1.0  0.59618  0.34418  0.24712  1.0000
  N   N131      1.0  0.54914  0.55121  0.18941  1.0000
  C   C1987     1.0  0.63943  0.39892  0.24939  1.0000
  C   C1988     1.0  0.55686  0.55057  0.16226  1.0000
  H   H2358     1.0  0.53251  0.54357  0.18144  1.0000
  H   H2359     1.0  0.73393  0.38976  0.26671  1.0000
  C   C1989     1.0  0.55367  0.54173  0.14747  1.0000
  C   C1990     1.0  0.58925  0.41507  0.42548  1.0000
  C   C1991     1.0  0.74596  0.39051  0.29400  1.0000
  C   C1992     1.0  0.61584  0.35939  0.03772  1.0000
  C   C1993     1.0  0.72638  0.35771  0.13232  1.0000
  H   H2360     1.0  0.67375  0.42036  0.29937  1.0000
  C   C1994     1.0  0.71321  0.35190  0.18976  1.0000
  H   H2361     1.0  0.57364  0.49889  0.19147  1.0000
  H   H2362     1.0  0.53045  0.64519  0.07592  1.0000
  H   H2363     1.0  0.61230  0.34272  0.02607  1.0000
  H   H2364     1.0  0.57946  0.50648  0.29437  1.0000
  H   H2365     1.0  0.50498  0.45258  0.48214  1.0000
  S   S532      1.0  0.55414  0.44819  0.43133  1.0000
  H   H2366     1.0  0.54915  0.47292  0.11187  1.0000
  H   H2367     1.0  0.66222  0.40168  0.29551  1.0000
  H   H2368     1.0  0.56249  0.62711  0.31054  1.0000
  H   H2369     1.0  0.59065  0.34578  0.29338  1.0000
  H   H2370     1.0  0.73289  0.47006  0.31244  1.0000
  H   H2371     1.0  0.55632  0.61132  0.32228  1.0000
  H   H2372     1.0  0.56128  0.38077  0.42569  1.0000
  S   S533      1.0  0.60270  0.34613  0.40113  1.0000
  C   C1995     1.0  0.52501  0.61251  0.07309  1.0000
  S   S534      1.0  0.53143  0.44272  0.40250  1.0000
  H   H2373     1.0  0.51323  0.61536  0.32207  1.0000
  N   N132      1.0  0.64515  0.51199  0.04948  1.0000
  H   H2374     1.0  0.59503  0.37871  0.44658  1.0000
  N   N133      1.0  0.51710  0.61599  0.00071  1.0000
  H   H2375     1.0  0.55640  0.47157  0.06555  1.0000
  H   H2376     1.0  0.53878  0.63166  0.30189  1.0000
  H   H2377     1.0  0.53183  0.54323  0.21858  1.0000
  H   H2378     1.0  0.65592  0.43095  0.04117  1.0000
  H   H2379     1.0  0.54307  0.56543  0.16772  1.0000
  H   H2380     1.0  0.70801  0.34977  0.21186  1.0000
  C   C1996     1.0  0.59695  0.49652  0.21955  1.0000
  H   H2381     1.0  0.59649  0.49171  0.26413  1.0000
  H   H2382     1.0  0.60642  0.49782  0.21265  1.0000
  H   H2383     1.0  0.59517  0.50151  0.17616  1.0000
  N   N134      1.0  0.65420  0.52655  0.38204  1.0000
  C   C1997     1.0  0.64935  0.53544  0.39439  1.0000
  C   C1998     1.0  0.65820  0.51939  0.40487  1.0000
  C   C1999     1.0  0.66475  0.53285  0.35782  1.0000
  C   C2000     1.0  0.64519  0.51938  0.37124  1.0000
  C   C2001     1.0  0.64037  0.52498  0.34965  1.0000
  C   C2002     1.0  0.64098  0.50681  0.38143  1.0000
  C   C2003     1.0  0.63189  0.51845  0.33899  1.0000
  C   C2004     1.0  0.63230  0.50039  0.37104  1.0000
  C   C2005     1.0  0.62778  0.50620  0.34987  1.0000
  H   H2384     1.0  0.64118  0.53107  0.41201  1.0000
  H   H2385     1.0  0.65571  0.54072  0.40373  1.0000
  H   H2386     1.0  0.64695  0.54187  0.37822  1.0000
  H   H2387     1.0  0.66477  0.52498  0.41312  1.0000
  H   H2388     1.0  0.66245  0.51279  0.39699  1.0000
  H   H2389     1.0  0.65071  0.51463  0.42400  1.0000
  H   H2390     1.0  0.67191  0.53797  0.36534  1.0000
  H   H2391     1.0  0.66836  0.52645  0.34731  1.0000
  H   H2392     1.0  0.66272  0.53929  0.34092  1.0000
  H   H2393     1.0  0.64297  0.53450  0.34112  1.0000
  H   H2394     1.0  0.64406  0.50172  0.39786  1.0000
  H   H2395     1.0  0.62823  0.52297  0.32278  1.0000
  H   H2396     1.0  0.62898  0.49086  0.37967  1.0000
  H   H2397     1.0  0.62097  0.50122  0.34206  1.0000
  C   C2006     1.0  0.70670  0.40695  0.12764  1.0000
  H   H2398     1.0  0.69596  0.39839  0.19622  1.0000
  H   H2399     1.0  0.69906  0.40029  0.12742  1.0000
  Fe  Fe265     1.0  0.61737  0.52458  0.99338  1.0000
  Fe  Fe266     1.0  0.60475  0.35991  0.36052  1.0000
  S   S535      1.0  0.61339  0.36287  0.45486  1.0000
  S   S536      1.0  0.58539  0.35662  0.36342  1.0000
  C   C2007     1.0  0.61318  0.53451  0.05994  1.0000
  C   C2008     1.0  0.67827  0.51691  0.02018  1.0000
  C   C2009     1.0  0.57274  0.60919  0.24355  1.0000
  H   H2400     1.0  0.64931  0.52845  0.01639  1.0000
  H   H2401     1.0  0.52528  0.40811  0.30973  1.0000
  C   C2010     1.0  0.74843  0.44684  0.15811  1.0000
  S   S537      1.0  0.58129  0.38800  0.37393  1.0000
  H   H2402     1.0  0.68613  0.52426  0.01169  1.0000
  S   S538      1.0  0.61867  0.36066  0.32100  1.0000
  C   C2011     1.0  0.53256  0.41965  0.36380  1.0000
  H   H2403     1.0  0.63117  0.35974  0.26540  1.0000
  C   C2012     1.0  0.58142  0.42223  0.42798  1.0000
  C   C2013     1.0  0.53935  0.61022  0.29447  1.0000
  C   C2014     1.0  0.51715  0.52150  0.16832  1.0000
  H   H2404     1.0  0.58301  0.61707  0.19979  1.0000
  Fe  Fe267     1.0  0.51718  0.47016  0.12426  1.0000
  C   C2015     1.0  0.52781  0.46639  0.24513  1.0000
  C   C2016     1.0  0.74150  0.47384  0.21289  1.0000
  H   H2405     1.0  0.67350  0.45675  0.48625  1.0000
  C   C2017     1.0  0.51175  0.45558  0.28684  1.0000
  C   C2018     1.0  0.50778  0.62373  0.12400  1.0000
  C   C2019     1.0  0.54703  0.56318  0.18615  1.0000
  H   H2406     1.0  0.53247  0.62433  0.03148  1.0000
  H   H2407     1.0  0.74369  0.49150  0.25762  1.0000
  H   H2408     1.0  0.56968  0.50360  0.02336  1.0000
  C   C2020     1.0  0.56763  0.49985  0.06998  1.0000
  Fe  Fe268     1.0  0.74909  0.37275  0.19363  1.0000
  H   H2409     1.0  0.58455  0.56414  0.11727  1.0000
  S   S539      1.0  0.50664  0.63076  0.40859  1.0000
  H   H2410     1.0  0.64602  0.49352  0.45750  1.0000
  H   H2411     1.0  0.72987  0.35750  0.26428  1.0000
  H   H2412     1.0  0.58161  0.46171  0.47751  1.0000
  C   C2021     1.0  0.66085  0.41025  0.00139  1.0000
  C   C2022     1.0  0.65805  0.49789  0.04080  1.0000
  H   H2413     1.0  0.57358  0.52365  0.32634  1.0000
  C   C2023     1.0  0.72415  0.36037  0.18083  1.0000
  C   C2024     1.0  0.57247  0.54921  0.11158  1.0000
  C   C2025     1.0  0.50730  0.59725  0.07908  1.0000
  C   C2026     1.0  0.57745  0.50420  0.42033  1.0000
  N   N135      1.0  0.59607  0.39701  0.44611  1.0000
  S   S540      1.0  0.52317  0.45851  0.09531  1.0000
  S   S541      1.0  0.65162  0.51357  0.48304  1.0000
  H   H2414     1.0  0.57121  0.41136  0.29097  1.0000
  C   C2027     1.0  0.74415  0.40352  0.32688  1.0000
  C   C2028     1.0  0.57033  0.51245  0.36922  1.0000
  H   H2415     1.0  0.50948  0.61396  0.37485  1.0000
  H   H2416     1.0  0.73337  0.47598  0.21043  1.0000
  H   H2417     1.0  0.55529  0.57024  0.18228  1.0000
  H   H2418     1.0  0.66562  0.34779  0.08864  1.0000
  H   H2419     1.0  0.73146  0.36005  0.11004  1.0000
  C   C2029     1.0  0.71547  0.34922  0.14121  1.0000
  H   H2420     1.0  0.75042  0.34477  0.15088  1.0000
  C   C2030     1.0  0.55681  0.49988  0.44372  1.0000
  H   H2421     1.0  0.53102  0.47079  0.22235  1.0000
  C   C2031     1.0  0.65874  0.40930  0.29084  1.0000
  H   H2422     1.0  0.73188  0.45166  0.16384  1.0000
  H   H2423     1.0  0.57481  0.49512  0.32781  1.0000
  C   C2032     1.0  0.51068  0.64306  0.35101  1.0000
  S   S542      1.0  0.61363  0.35780  0.13003  1.0000
  H   H2424     1.0  0.72911  0.41313  0.16063  1.0000
  C   C2033     1.0  0.50763  0.60129  0.04994  1.0000
  C   C2034     1.0  0.56230  0.38991  0.41484  1.0000
  H   H2425     1.0  0.63467  0.39043  0.24592  1.0000
  H   H2426     1.0  0.52007  0.40180  0.34804  1.0000
  C   C2035     1.0  0.52028  0.46761  0.04057  1.0000
  H   H2427     1.0  0.54517  0.46967  0.25293  1.0000
  H   H2428     1.0  0.56369  0.55546  0.20872  1.0000
  C   C2036     1.0  0.52056  0.46730  0.01168  1.0000
  C   C2037     1.0  0.57237  0.50668  0.04094  1.0000
  Fe  Fe269     1.0  0.60829  0.49990  0.48105  1.0000
  C   C2038     1.0  0.64469  0.41947  0.27555  1.0000
  H   H2429     1.0  0.54542  0.53494  0.15510  1.0000
  C   C2039     1.0  0.57891  0.49208  0.25865  1.0000
  H   H2430     1.0  0.73822  0.39421  0.38399  1.0000
  N   N136      1.0  0.66490  0.41711  0.04547  1.0000
  C   C2040     1.0  0.66302  0.42849  0.05069  1.0000
  C   C2041     1.0  0.65413  0.40758  0.06236  1.0000
  C   C2042     1.0  0.67490  0.41464  0.05709  1.0000
  H   H2431     1.0  0.61450  0.38553  0.99708  1.0000
  S   S543      1.0  0.70762  0.47654  0.48392  1.0000
  H   H2432     1.0  0.66695  0.52805  0.02835  1.0000
  H   H2433     1.0  0.55167  0.48644  0.12245  1.0000
  H   H2434     1.0  0.65088  0.34124  0.08791  1.0000
  H   H2435     1.0  0.57950  0.50036  0.44092  1.0000
  C   C2043     1.0  0.62864  0.39480  0.29925  1.0000
  H   H2436     1.0  0.63675  0.41973  0.26845  1.0000
  C   C2044     1.0  0.57256  0.40735  0.37593  1.0000
  N   N137      1.0  0.70979  0.39323  0.17019  1.0000
  H   H2437     1.0  0.57717  0.45676  0.43351  1.0000
  C   C2045     1.0  0.65676  0.50951  0.04033  1.0000
  C   C2046     1.0  0.50703  0.60964  0.99143  1.0000
  C   C2047     1.0  0.53835  0.42901  0.31314  1.0000
  H   H2438     1.0  0.58284  0.38080  0.47083  1.0000
  C   C2048     1.0  0.59063  0.49858  0.19893  1.0000
  H   H2439     1.0  0.55515  0.48270  0.28730  1.0000
  H   H2440     1.0  0.56913  0.47014  0.29272  1.0000
  H   H2441     1.0  0.72645  0.39351  0.18116  1.0000
  H   H2442     1.0  0.70817  0.37475  0.17174  1.0000
  C   C2049     1.0  0.57210  0.41942  0.45252  1.0000
  H   H2443     1.0  0.66739  0.43869  0.28785  1.0000
  N   N138      1.0  0.73587  0.47280  0.26601  1.0000
  C   C2050     1.0  0.56453  0.41353  0.38642  1.0000
  H   H2444     1.0  0.56274  0.48402  0.03569  1.0000
  H   H2445     1.0  0.55303  0.63953  0.27865  1.0000
  C   C2051     1.0  0.54567  0.63143  0.28304  1.0000
  C   C2052     1.0  0.72348  0.41395  0.14606  1.0000
  H   H2446     1.0  0.64601  0.38521  0.30957  1.0000
  C   C2053     1.0  0.73955  0.46970  0.29328  1.0000
  H   H2447     1.0  0.56825  0.50052  0.11435  1.0000
  C   C2054     1.0  0.56051  0.48910  0.29635  1.0000
  H   H2448     1.0  0.55634  0.48658  0.31997  1.0000
  H   H2449     1.0  0.55957  0.49810  0.28740  1.0000
  C   C2055     1.0  0.72627  0.42487  0.12565  1.0000
  Fe  Fe270     1.0  0.58333  0.34361  0.40569  1.0000
  C   C2056     1.0  0.56250  0.48066  0.05876  1.0000
  C   C2057     1.0  0.63513  0.50114  0.06055  1.0000
  Fe  Fe271     1.0  0.63274  0.51327  0.48059  1.0000
  H   H2450     1.0  0.72358  0.40325  0.28694  1.0000
  H   H2451     1.0  0.62656  0.50326  0.06757  1.0000
  C   C2058     1.0  0.57362  0.47667  0.30303  1.0000
  N   N139      1.0  0.57310  0.48883  0.28997  1.0000
  H   H2452     1.0  0.56923  0.47379  0.32653  1.0000
  H   H2453     1.0  0.65318  0.40319  0.01403  1.0000
  C   C2059     1.0  0.55660  0.51098  0.33905  1.0000
  S   S544      1.0  0.54259  0.45916  0.31273  1.0000
  H   H2454     1.0  0.74529  0.48854  0.98820  1.0000
  N   N140      1.0  0.55855  0.48842  0.07687  1.0000
  H   H2455     1.0  0.58398  0.38448  0.43279  1.0000
  C   C2060     1.0  0.54753  0.49080  0.07084  1.0000
  C   C2061     1.0  0.57268  0.49404  0.23697  1.0000
  C   C2062     1.0  0.57851  0.49720  0.20761  1.0000
  S   S545      1.0  0.72930  0.36771  0.20528  1.0000
  H   H2456     1.0  0.62914  0.39381  0.32208  1.0000
  C   C2063     1.0  0.57158  0.50484  0.09160  1.0000
  H   H2457     1.0  0.68773  0.50384  0.01285  1.0000
  C   C2064     1.0  0.51264  0.62312  0.32993  1.0000
  H   H2458     1.0  0.56376  0.47981  0.11357  1.0000
  H   H2459     1.0  0.58292  0.51944  0.10101  1.0000
  H   H2460     1.0  0.65164  0.52716  0.06542  1.0000
  H   H2461     1.0  0.65419  0.38836  0.27218  1.0000
  C   C2065     1.0  0.57923  0.49715  0.30439  1.0000
  H   H2462     1.0  0.65062  0.49015  0.04752  1.0000
  C   C2066     1.0  0.58802  0.40488  0.44796  1.0000
  S   S546      1.0  0.53135  0.46694  0.45285  1.0000
  C   C2067     1.0  0.55499  0.54898  0.21317  1.0000
  C   C2068     1.0  0.57993  0.51583  0.08429  1.0000
  H   H2463     1.0  0.55662  0.54004  0.21644  1.0000
  C   C2069     1.0  0.65157  0.43014  0.27771  1.0000
  C   C2070     1.0  0.51593  0.60289  0.09067  1.0000
  C   C2071     1.0  0.55573  0.48163  0.10754  1.0000
  S   S547      1.0  0.74030  0.49592  0.44839  1.0000
  C   C2072     1.0  0.52429  0.45932  0.05798  1.0000
  C   C2073     1.0  0.64805  0.40870  0.28205  1.0000
  N   N141      1.0  0.64058  0.39754  0.27948  1.0000
  H   H2464     1.0  0.64829  0.40196  0.23374  1.0000
  H   H2465     1.0  0.56334  0.49348  0.24201  1.0000
  C   C2074     1.0  0.66197  0.43040  0.28645  1.0000
  Fe  Fe272     1.0  0.53972  0.45669  0.42308  1.0000
  H   H2466     1.0  0.51550  0.59996  0.11344  1.0000
  H   H2467     1.0  0.63445  0.40549  0.24332  1.0000
  S   S548      1.0  0.60552  0.37448  0.38308  1.0000
  H   H2468     1.0  0.61356  0.51625  0.06709  1.0000
  C   C2075     1.0  0.51320  0.52465  0.14371  1.0000
  C   C2076     1.0  0.73079  0.36315  0.15221  1.0000
  H   H2469     1.0  0.57861  0.51385  0.41866  1.0000
  Fe  Fe273     1.0  0.54694  0.43511  0.40766  1.0000
  C   C2077     1.0  0.58068  0.51766  0.03391  1.0000
  C   C2078     1.0  0.73448  0.40606  0.31635  1.0000
  C   C2079     1.0  0.51571  0.46122  0.25707  1.0000
  H   H2470     1.0  0.56584  0.42479  0.45388  1.0000
  C   C2080     1.0  0.74962  0.39542  0.31540  1.0000
  H   H2471     1.0  0.59082  0.53077  0.04991  1.0000
  C   C2081     1.0  0.72400  0.46485  0.27016  1.0000
  H   H2472     1.0  0.74058  0.47266  0.38146  1.0000
  S   S549      1.0  0.61672  0.53770  0.02150  1.0000
  H   H2473     1.0  0.53840  0.53313  0.20302  1.0000
  C   C2082     1.0  0.53745  0.54239  0.19834  1.0000
  C   C2083     1.0  0.57171  0.62766  0.21450  1.0000
  H   H2474     1.0  0.57122  0.42962  0.99473  1.0000
  C   C2084     1.0  0.51700  0.62866  0.99521  1.0000
  C   C2085     1.0  0.58442  0.52223  0.05553  1.0000
  H   H2475     1.0  0.65811  0.48049  0.44066  1.0000
  S   S550      1.0  0.69561  0.44586  0.03785  1.0000
  C   C2086     1.0  0.51976  0.45507  0.30443  1.0000
  H   H2476     1.0  0.51687  0.47416  0.04945  1.0000
  H   H2477     1.0  0.54142  0.60154  0.30062  1.0000
  H   H2478     1.0  0.71983  0.46730  0.25228  1.0000
  C   C2087     1.0  0.55149  0.49766  0.38683  1.0000
  C   C2088     1.0  0.51043  0.62234  0.35986  1.0000
  H   H2479     1.0  0.54761  0.49476  0.44591  1.0000
  H   H2480     1.0  0.72444  0.45551  0.27194  1.0000
  H   H2481     1.0  0.56757  0.39222  0.32664  1.0000
  H   H2482     1.0  0.67484  0.51143  0.48591  1.0000
  C   C2089     1.0  0.53583  0.46575  0.26261  1.0000
  H   H2483     1.0  0.56117  0.60280  0.28559  1.0000
  H   H2484     1.0  0.54878  0.49517  0.04769  1.0000
  C   C2090     1.0  0.71926  0.42689  0.10661  1.0000
  H   H2485     1.0  0.73117  0.48787  0.24304  1.0000
  Fe  Fe274     1.0  0.50968  0.47137  0.18799  1.0000
  H   H2486     1.0  0.64747  0.51305  0.09148  1.0000
  H   H2487     1.0  0.74715  0.34476  0.30863  1.0000
  H   H2488     1.0  0.73269  0.41315  0.36832  1.0000
  H   H2489     1.0  0.57626  0.60147  0.24561  1.0000
  S   S551      1.0  0.50957  0.49062  0.17519  1.0000
  H   H2490     1.0  0.61176  0.55219  0.06049  1.0000
  C   C2091     1.0  0.61124  0.54352  0.07354  1.0000
  H   H2491     1.0  0.74057  0.46051  0.29787  1.0000
  H   H2492     1.0  0.65513  0.39864  0.06070  1.0000
  H   H2493     1.0  0.67649  0.40605  0.05410  1.0000
  C   C2092     1.0  0.66915  0.49594  0.03142  1.0000
  C   C2093     1.0  0.74988  0.47613  0.37984  1.0000
  S   S552      1.0  0.54477  0.41530  0.42454  1.0000
  H   H2494     1.0  0.54920  0.38472  0.36575  1.0000
  H   H2495     1.0  0.61112  0.40958  0.41481  1.0000
  C   C2094     1.0  0.52180  0.63903  0.08471  1.0000
  H   H2496     1.0  0.64613  0.40895  0.05533  1.0000
  H   H2497     1.0  0.55442  0.51404  0.31880  1.0000
  C   C2095     1.0  0.57144  0.39550  0.38987  1.0000
  C   C2096     1.0  0.59664  0.40052  0.00917  1.0000
  H   H2498     1.0  0.58426  0.52267  0.01155  1.0000
  C   C2097     1.0  0.52961  0.45098  0.01664  1.0000
  H   H2499     1.0  0.72125  0.43548  0.09135  1.0000
  H   H2500     1.0  0.74782  0.35560  0.02899  1.0000
  H   H2501     1.0  0.74715  0.47504  0.16739  1.0000
  C   C2098     1.0  0.56410  0.61006  0.26637  1.0000
  H   H2502     1.0  0.57136  0.56553  0.16064  1.0000
  C   C2099     1.0  0.61383  0.37616  0.00369  1.0000
  H   H2503     1.0  0.53316  0.44449  0.00774  1.0000
  N   N142      1.0  0.54976  0.62045  0.28848  1.0000
  S   S553      1.0  0.59578  0.48228  0.48671  1.0000
  C   C2100     1.0  0.56248  0.50286  0.39176  1.0000
  H   H2504     1.0  0.57956  0.41175  0.35654  1.0000
  C   C2101     1.0  0.55428  0.61990  0.31471  1.0000
  H   H2505     1.0  0.59960  0.36885  0.30182  1.0000
  C   C2102     1.0  0.56096  0.39721  0.32774  1.0000
  C   C2103     1.0  0.52905  0.45110  0.04572  1.0000
  H   H2506     1.0  0.72979  0.41218  0.32351  1.0000
  C   C2104     1.0  0.66771  0.41800  0.01405  1.0000
  H   H2507     1.0  0.73633  0.46371  0.11380  1.0000
  C   C2105     1.0  0.54399  0.41062  0.33201  1.0000
  C   C2106     1.0  0.75354  0.46067  0.10154  1.0000
  S   S554      1.0  0.58185  0.35713  0.43214  1.0000
  H   H2508     1.0  0.52860  0.41142  0.38154  1.0000
  H   H2509     1.0  0.73375  0.43194  0.12503  1.0000
  H   H2510     1.0  0.60712  0.40613  0.46877  1.0000
  H   H2511     1.0  0.63411  0.49630  0.04356  1.0000
  H   H2512     1.0  0.73357  0.35473  0.29813  1.0000
  C   C2107     1.0  0.55424  0.39610  0.42533  1.0000
  C   C2108     1.0  0.54220  0.39955  0.35194  1.0000
  C   C2109     1.0  0.50930  0.63226  0.37066  1.0000
  H   H2513     1.0  0.54653  0.43492  0.31518  1.0000
  N   N143      1.0  0.74863  0.40898  0.34857  1.0000
  H   H2514     1.0  0.58238  0.42986  0.41043  1.0000
  H   H2515     1.0  0.67315  0.41409  0.08062  1.0000
  H   H2516     1.0  0.74606  0.44174  0.18038  1.0000
  C   C2110     1.0  0.56455  0.48542  0.42357  1.0000
  C   C2111     1.0  0.52379  0.41030  0.33105  1.0000
  Fe  Fe275     1.0  0.70808  0.45760  0.48687  1.0000
  H   H2517     1.0  0.60114  0.39514  0.02139  1.0000
  S   S555      1.0  0.60133  0.51597  0.47697  1.0000
  H   H2518     1.0  0.70415  0.41953  0.09250  1.0000
  H   H2519     1.0  0.53595  0.61019  0.27495  1.0000
  H   H2520     1.0  0.72755  0.35060  0.06002  1.0000
  N   N144      1.0  0.53491  0.41735  0.33474  1.0000
  H   H2521     1.0  0.56789  0.48182  0.44227  1.0000
  C   C2112     1.0  0.58917  0.38473  0.44927  1.0000
  C   C2113     1.0  0.64279  0.51963  0.02452  1.0000
  H   H2522     1.0  0.54768  0.62087  0.33316  1.0000
  H   H2523     1.0  0.51683  0.41522  0.33220  1.0000
  C   C2114     1.0  0.60526  0.40057  0.41827  1.0000
  N   N145      1.0  0.56537  0.49827  0.41927  1.0000
  C   C2115     1.0  0.57068  0.40954  0.47496  1.0000
  H   H2524     1.0  0.74747  0.49189  0.39222  1.0000
  C   C2116     1.0  0.64521  0.51828  0.07277  1.0000
  H   H2525     1.0  0.53160  0.61700  0.08239  1.0000
  H   H2526     1.0  0.55887  0.49670  0.46470  1.0000
  S   S556      1.0  0.50566  0.65329  0.46325  1.0000
  C   C2117     1.0  0.74413  0.47173  0.24026  1.0000
  H   H2527     1.0  0.68329  0.43303  0.00301  1.0000
  H   H2528     1.0  0.74804  0.47586  0.29263  1.0000
  H   H2529     1.0  0.56974  0.48370  0.40406  1.0000
  C   C2118     1.0  0.59471  0.41079  0.01644  1.0000
  H   H2530     1.0  0.51004  0.65082  0.35888  1.0000
  H   H2531     1.0  0.58760  0.42552  0.00797  1.0000
  C   C2119     1.0  0.74935  0.47334  0.18804  1.0000
  C   C2120     1.0  0.73051  0.34411  0.04977  1.0000
  H   H2532     1.0  0.74588  0.42163  0.37372  1.0000
  H   H2533     1.0  0.67112  0.43596  0.04128  1.0000
  C   C2121     1.0  0.52519  0.45897  0.99952  1.0000
  H   H2534     1.0  0.52460  0.51763  0.16714  1.0000
  C   C2122     1.0  0.58879  0.41771  0.00109  1.0000
  C   C2123     1.0  0.75025  0.42499  0.24359  1.0000
  C   C2124     1.0  0.51131  0.52298  0.19449  1.0000
  C   C2125     1.0  0.57855  0.40241  0.47290  1.0000
  C   C2126     1.0  0.67113  0.50461  0.47624  1.0000
  H   H2535     1.0  0.74289  0.42500  0.33924  1.0000
  H   H2536     1.0  0.51719  0.47359  0.99862  1.0000
  H   H2537     1.0  0.50550  0.61793  0.14552  1.0000
  Fe  Fe276     1.0  0.50539  0.60235  0.22330  1.0000
  C   C2127     1.0  0.60219  0.39698  0.46965  1.0000
  H   H2538     1.0  0.62754  0.34527  0.46294  1.0000
  C   C2128     1.0  0.60993  0.35669  0.99395  1.0000
  C   C2129     1.0  0.67922  0.50541  0.02098  1.0000
  H   H2539     1.0  0.75053  0.38460  0.28507  1.0000
  Fe  Fe277     1.0  0.70372  0.45909  0.99426  1.0000
  H   H2540     1.0  0.75300  0.39337  0.37018  1.0000
  C   C2130     1.0  0.74220  0.41752  0.35781  1.0000
  S   S557      1.0  0.58472  0.49041  0.99342  1.0000
  H   H2541     1.0  0.51760  0.52315  0.12360  1.0000
  H   H2542     1.0  0.59781  0.41335  0.03422  1.0000
  H   H2543     1.0  0.56096  0.41028  0.98826  1.0000
  C   C2131     1.0  0.67761  0.42686  0.99502  1.0000
  H   H2544     1.0  0.75057  0.40338  0.39183  1.0000
  H   H2545     1.0  0.60998  0.34531  0.20266  1.0000
  H   H2546     1.0  0.52487  0.63439  0.99885  1.0000
  C   C2132     1.0  0.75379  0.48698  0.38587  1.0000
  C   C2133     1.0  0.74754  0.39958  0.37473  1.0000
  H   H2547     1.0  0.50911  0.62978  0.00973  1.0000
  C   C2134     1.0  0.53356  0.62333  0.78945  1.0000
  C   C2135     1.0  0.72634  0.48304  0.55213  1.0000
  H   H2548     1.0  0.56349  0.38019  0.85621  1.0000
  C   C2136     1.0  0.73899  0.45197  0.77010  1.0000
  H   H2549     1.0  0.58815  0.49345  0.57428  1.0000
  C   C2137     1.0  0.73107  0.43633  0.89500  1.0000
  Fe  Fe278     1.0  0.72652  0.47466  0.95088  1.0000
  S   S558      1.0  0.71751  0.45527  0.96181  1.0000
  C   C2138     1.0  0.50750  0.62287  0.83944  1.0000
  Fe  Fe279     1.0  0.70285  0.48110  0.95265  1.0000
  S   S559      1.0  0.69238  0.46204  0.96324  1.0000
  S   S560      1.0  0.69519  0.49710  0.94584  1.0000
  H   H2550     1.0  0.52335  0.58183  0.73601  1.0000
  C   C2139     1.0  0.56344  0.41025  0.89461  1.0000
  Fe  Fe280     1.0  0.70718  0.45997  0.92965  1.0000
  S   S561      1.0  0.70711  0.44798  0.89885  1.0000
  H   H2551     1.0  0.73418  0.34072  0.55932  1.0000
  S   S562      1.0  0.71692  0.47921  0.91670  1.0000
  Fe  Fe281     1.0  0.63825  0.37812  0.63198  1.0000
  S   S563      1.0  0.61924  0.37867  0.64484  1.0000
  S   S564      1.0  0.65403  0.39341  0.62702  1.0000
  H   H2552     1.0  0.67126  0.41405  0.58155  1.0000
  S   S565      1.0  0.59944  0.52508  0.54760  1.0000
  Fe  Fe282     1.0  0.61696  0.37039  0.60789  1.0000
  S   S566      1.0  0.60482  0.37380  0.57862  1.0000
  Fe  Fe283     1.0  0.61641  0.36009  0.67154  1.0000
  S   S567      1.0  0.60367  0.35108  0.71522  1.0000
  S   S568      1.0  0.63622  0.37151  0.59268  1.0000
  S   S569      1.0  0.63552  0.36002  0.66094  1.0000
  Fe  Fe284     1.0  0.69706  0.44397  0.68925  1.0000
  S   S570      1.0  0.70209  0.42678  0.69158  1.0000
  S   S571      1.0  0.69710  0.45682  0.64815  1.0000
  Fe  Fe285     1.0  0.69148  0.44056  0.75495  1.0000
  S   S572      1.0  0.69559  0.42284  0.76259  1.0000
  S   S573      1.0  0.68526  0.44941  0.79016  1.0000
  Fe  Fe286     1.0  0.71122  0.43181  0.72487  1.0000
  S   S574      1.0  0.72872  0.42800  0.72601  1.0000
  Fe  Fe287     1.0  0.68603  0.41927  0.72880  1.0000
  S   S575      1.0  0.67372  0.40120  0.73499  1.0000
  S   S576      1.0  0.70783  0.44982  0.71908  1.0000
  S   S577      1.0  0.68028  0.43614  0.72463  1.0000
  S   S578      1.0  0.51968  0.48877  0.60865  1.0000
  C   C2140     1.0  0.74198  0.34370  0.78484  1.0000
  C   C2141     1.0  0.51168  0.64152  0.56741  1.0000
  Fe  Fe288     1.0  0.52692  0.60844  0.73242  1.0000
  S   S579      1.0  0.52744  0.62789  0.72100  1.0000
  S   S580      1.0  0.54120  0.60106  0.74834  1.0000
  Fe  Fe289     1.0  0.50985  0.62269  0.75409  1.0000
  H   H2553     1.0  0.59318  0.43105  0.92718  1.0000
  Fe  Fe290     1.0  0.51720  0.62339  0.68866  1.0000
  C   C2142     1.0  0.73710  0.40291  0.71879  1.0000
  S   S581      1.0  0.50996  0.60366  0.76728  1.0000
  S   S582      1.0  0.51803  0.60430  0.69793  1.0000
  Fe  Fe291     1.0  0.53081  0.49144  0.63970  1.0000
  S   S583      1.0  0.53301  0.47300  0.64899  1.0000
  S   S584      1.0  0.54659  0.50690  0.62803  1.0000
  Fe  Fe292     1.0  0.57210  0.53346  0.73275  1.0000
  S   S585      1.0  0.58904  0.52989  0.74004  1.0000
  S   S586      1.0  0.55546  0.51886  0.74282  1.0000
  Fe  Fe293     1.0  0.58236  0.56012  0.71024  1.0000
  S   S587      1.0  0.60047  0.55891  0.71513  1.0000
  S   S588      1.0  0.57652  0.57532  0.68610  1.0000
  Fe  Fe294     1.0  0.59740  0.54292  0.69650  1.0000
  S   S589      1.0  0.61043  0.53878  0.66126  1.0000
  Fe  Fe295     1.0  0.59076  0.54585  0.75837  1.0000
  S   S590      1.0  0.59260  0.54567  0.80414  1.0000
  S   S591      1.0  0.58033  0.54527  0.68844  1.0000
  S   S592      1.0  0.57291  0.54832  0.75416  1.0000
  H   H2554     1.0  0.52874  0.60568  0.98643  1.0000
  S   S593      1.0  0.60517  0.52266  0.96381  1.0000
  C   C2143     1.0  0.73528  0.34748  0.76630  1.0000
  C   C2144     1.0  0.58410  0.42536  0.93061  1.0000
  S   S594      1.0  0.63359  0.52562  0.95868  1.0000
  C   C2145     1.0  0.52858  0.49199  0.79345  1.0000
  C   C2146     1.0  0.74133  0.48841  0.84149  1.0000
  C   C2147     1.0  0.56648  0.50390  0.80695  1.0000
  Fe  Fe296     1.0  0.62094  0.52202  0.93076  1.0000
  S   S595      1.0  0.62580  0.52786  0.88137  1.0000
  C   C2148     1.0  0.55749  0.35819  0.90366  1.0000
  S   S596      1.0  0.61770  0.50233  0.94600  1.0000
  H   H2555     1.0  0.55148  0.61924  0.81003  1.0000
  C   C2149     1.0  0.73116  0.47069  0.51982  1.0000
  S   S597      1.0  0.58020  0.45721  0.90929  1.0000
  H   H2556     1.0  0.53615  0.62046  0.98610  1.0000
  C   C2150     1.0  0.71405  0.34950  0.68273  1.0000
  S   S598      1.0  0.70470  0.44329  0.52812  1.0000
  Fe  Fe297     1.0  0.54411  0.45194  0.86902  1.0000
  C   C2151     1.0  0.50646  0.55642  0.72891  1.0000
  H   H2557     1.0  0.59297  0.50766  0.64271  1.0000
  H   H2558     1.0  0.73552  0.45846  0.77920  1.0000
  S   S599      1.0  0.55720  0.44118  0.87507  1.0000
  C   C2152     1.0  0.56594  0.41361  0.96513  1.0000
  H   H2559     1.0  0.62516  0.36989  0.54147  1.0000
  H   H2560     1.0  0.53210  0.65292  0.87457  1.0000
  C   C2153     1.0  0.57265  0.51365  0.81430  1.0000
  H   H2561     1.0  0.71943  0.40443  0.76428  1.0000
  S   S600      1.0  0.72944  0.36470  0.70158  1.0000
  H   H2562     1.0  0.60327  0.56007  0.51921  1.0000
  H   H2563     1.0  0.72341  0.39064  0.77467  1.0000
  C   C2154     1.0  0.57830  0.50046  0.85159  1.0000
  H   H2564     1.0  0.75295  0.47803  0.52638  1.0000
  C   C2155     1.0  0.59330  0.47712  0.95863  1.0000
  C   C2156     1.0  0.59225  0.46983  0.93965  1.0000
  C   C2157     1.0  0.58116  0.46492  0.93598  1.0000
  C   C2158     1.0  0.57103  0.46671  0.95261  1.0000
  H   H2565     1.0  0.73467  0.43548  0.83975  1.0000
  H   H2566     1.0  0.60185  0.48075  0.96164  1.0000
  C   C2159     1.0  0.50439  0.63123  0.88151  1.0000
  C   C2160     1.0  0.60056  0.58380  0.59512  1.0000
  H   H2567     1.0  0.65941  0.41969  0.62089  1.0000
  C   C2161     1.0  0.60717  0.53473  0.63002  1.0000
  C   C2162     1.0  0.59620  0.53440  0.62397  1.0000
  Fe  Fe298     1.0  0.52058  0.46988  0.62073  1.0000
  C   C2163     1.0  0.72625  0.39652  0.71530  1.0000
  C   C2164     1.0  0.61355  0.52848  0.58583  1.0000
  C   C2165     1.0  0.61578  0.53163  0.61095  1.0000
  H   H2568     1.0  0.58940  0.53652  0.63858  1.0000
  C   C2166     1.0  0.66955  0.44390  0.52723  1.0000
  C   C2167     1.0  0.73329  0.35891  0.64969  1.0000
  H   H2569     1.0  0.62429  0.53177  0.61545  1.0000
  C   C2168     1.0  0.60220  0.54091  0.82472  1.0000
  C   C2169     1.0  0.59980  0.54085  0.85417  1.0000
  C   C2170     1.0  0.60693  0.53691  0.87174  1.0000
  C   C2171     1.0  0.61667  0.53310  0.85998  1.0000
  C   C2172     1.0  0.61916  0.53327  0.83045  1.0000
  C   C2173     1.0  0.61191  0.53703  0.81296  1.0000
  H   H2570     1.0  0.59235  0.54387  0.86348  1.0000
  H   H2571     1.0  0.60494  0.53692  0.89433  1.0000
  H   H2572     1.0  0.62670  0.53040  0.82106  1.0000
  H   H2573     1.0  0.61390  0.53707  0.79036  1.0000
  S   S601      1.0  0.71338  0.47830  0.98578  1.0000
  H   H2574     1.0  0.55334  0.63270  0.83692  1.0000
  C   C2174     1.0  0.52689  0.45111  0.80334  1.0000
  S   S602      1.0  0.58491  0.38818  0.88970  1.0000
  C   C2175     1.0  0.67256  0.45539  0.50932  1.0000
  H   H2575     1.0  0.75339  0.35179  0.52529  1.0000
  H   H2576     1.0  0.57561  0.48858  0.60514  1.0000
  H   H2577     1.0  0.54203  0.55429  0.67925  1.0000
  H   H2578     1.0  0.54948  0.46612  0.69220  1.0000
  H   H2579     1.0  0.52747  0.64659  0.58187  1.0000
  C   C2176     1.0  0.54880  0.51015  0.66008  1.0000
  C   C2177     1.0  0.54486  0.50131  0.68610  1.0000
  C   C2178     1.0  0.54686  0.50399  0.71163  1.0000
  C   C2179     1.0  0.55249  0.51557  0.71121  1.0000
  C   C2180     1.0  0.55597  0.52444  0.68536  1.0000
  C   C2181     1.0  0.55438  0.52171  0.65971  1.0000
  H   H2580     1.0  0.54054  0.49234  0.68644  1.0000
  H   H2581     1.0  0.54424  0.49705  0.73146  1.0000
  H   H2582     1.0  0.55957  0.53348  0.68513  1.0000
  H   H2583     1.0  0.55720  0.52859  0.63969  1.0000
  C   C2182     1.0  0.71673  0.39468  0.76665  1.0000
  H   H2584     1.0  0.56557  0.36332  0.84647  1.0000
  H   H2585     1.0  0.58176  0.56721  0.63473  1.0000
  H   H2586     1.0  0.69496  0.34904  0.62699  1.0000
  H   H2587     1.0  0.57294  0.52257  0.80297  1.0000
  H   H2588     1.0  0.56967  0.48406  0.90373  1.0000
  C   C2183     1.0  0.53060  0.46497  0.49036  1.0000
  H   H2589     1.0  0.73622  0.35422  0.60903  1.0000
  H   H2590     1.0  0.50598  0.47160  0.58344  1.0000
  H   H2591     1.0  0.74198  0.36488  0.64449  1.0000
  H   H2592     1.0  0.74936  0.48705  0.55065  1.0000
  H   H2593     1.0  0.56872  0.49863  0.90658  1.0000
  H   H2594     1.0  0.73327  0.42832  0.90627  1.0000
  C   C2184     1.0  0.72530  0.35731  0.67618  1.0000
  H   H2595     1.0  0.58095  0.41085  0.87123  1.0000
  N   N146      1.0  0.58413  0.49840  0.87547  1.0000
  H   H2596     1.0  0.53828  0.53076  0.72379  1.0000
  C   C2185     1.0  0.52602  0.47202  0.53415  1.0000
  H   H2597     1.0  0.51679  0.63235  0.97251  1.0000
  H   H2598     1.0  0.53436  0.34513  0.88094  1.0000
  C   C2186     1.0  0.55067  0.59372  0.73056  1.0000
  C   C2187     1.0  0.55278  0.59473  0.70085  1.0000
  C   C2188     1.0  0.56077  0.58910  0.68750  1.0000
  C   C2189     1.0  0.56651  0.58221  0.70379  1.0000
  C   C2190     1.0  0.56414  0.58092  0.73361  1.0000
  C   C2191     1.0  0.55638  0.58678  0.74684  1.0000
  H   H2599     1.0  0.54848  0.60009  0.68806  1.0000
  H   H2600     1.0  0.56255  0.59016  0.66441  1.0000
  H   H2601     1.0  0.56853  0.57568  0.74639  1.0000
  H   H2602     1.0  0.55482  0.58595  0.76983  1.0000
  C   C2192     1.0  0.51326  0.45771  0.87329  1.0000
  H   H2603     1.0  0.64626  0.42768  0.57632  1.0000
  Fe  Fe299     1.0  0.58144  0.34313  0.90247  1.0000
  C   C2193     1.0  0.73656  0.43626  0.74527  1.0000
  Fe  Fe300     1.0  0.63169  0.35354  0.62300  1.0000
  C   C2194     1.0  0.73194  0.44433  0.75816  1.0000
  H   H2604     1.0  0.55267  0.54957  0.69706  1.0000
  H   H2605     1.0  0.72306  0.44494  0.75823  1.0000
  C   C2195     1.0  0.65943  0.39520  0.65738  1.0000
  C   C2196     1.0  0.65390  0.38771  0.68496  1.0000
  C   C2197     1.0  0.65842  0.38949  0.70865  1.0000
  C   C2198     1.0  0.66832  0.39892  0.70497  1.0000
  C   C2199     1.0  0.67384  0.40637  0.67741  1.0000
  C   C2200     1.0  0.66953  0.40438  0.65367  1.0000
  H   H2606     1.0  0.64614  0.38056  0.68806  1.0000
  H   H2607     1.0  0.65415  0.38363  0.72990  1.0000
  H   H2608     1.0  0.68151  0.41360  0.67426  1.0000
  H   H2609     1.0  0.67410  0.41001  0.63237  1.0000
  Fe  Fe301     1.0  0.60554  0.35802  0.86656  1.0000
  C   C2201     1.0  0.70303  0.43908  0.58613  1.0000
  C   C2202     1.0  0.70124  0.44187  0.61301  1.0000
  C   C2203     1.0  0.69845  0.45248  0.61552  1.0000
  C   C2204     1.0  0.69716  0.46011  0.59116  1.0000
  C   C2205     1.0  0.69915  0.45744  0.56421  1.0000
  H   H2610     1.0  0.70525  0.43088  0.58427  1.0000
  H   H2611     1.0  0.70218  0.43587  0.63163  1.0000
  H   H2612     1.0  0.69473  0.46821  0.59306  1.0000
  C   C2206     1.0  0.57496  0.49303  0.90304  1.0000
  C   C2207     1.0  0.70135  0.44906  0.86807  1.0000
  C   C2208     1.0  0.69374  0.45621  0.86285  1.0000
  C   C2209     1.0  0.68893  0.45631  0.83877  1.0000
  C   C2210     1.0  0.69182  0.44942  0.81954  1.0000
  C   C2211     1.0  0.69960  0.44245  0.82452  1.0000
  C   C2212     1.0  0.70425  0.44220  0.84881  1.0000
  H   H2613     1.0  0.69141  0.46150  0.87757  1.0000
  H   H2614     1.0  0.68292  0.46172  0.83503  1.0000
  H   H2615     1.0  0.70190  0.43711  0.80989  1.0000
  H   H2616     1.0  0.71007  0.43659  0.85271  1.0000
  C   C2213     1.0  0.67986  0.49586  0.95703  1.0000
  C   C2214     1.0  0.67580  0.50617  0.95306  1.0000
  C   C2215     1.0  0.66365  0.50548  0.96154  1.0000
  C   C2216     1.0  0.61053  0.36879  0.98591  1.0000
  S   S603      1.0  0.59959  0.34113  0.90180  1.0000
  H   H2617     1.0  0.67688  0.47404  0.50679  1.0000
  H   H2618     1.0  0.68210  0.51473  0.94361  1.0000
  H   H2619     1.0  0.66069  0.51349  0.95905  1.0000
  H   H2620     1.0  0.60857  0.37248  0.96588  1.0000
  H   H2621     1.0  0.73030  0.45298  0.84930  1.0000
  C   C2217     1.0  0.61521  0.35814  0.79525  1.0000
  H   H2622     1.0  0.67110  0.43290  0.61261  1.0000
  C   C2218     1.0  0.51729  0.47656  0.83764  1.0000
  C   C2219     1.0  0.60819  0.35425  0.74555  1.0000
  C   C2220     1.0  0.59997  0.35055  0.77259  1.0000
  C   C2221     1.0  0.60346  0.35253  0.79736  1.0000
  H   H2623     1.0  0.62930  0.55498  0.56548  1.0000
  H   H2624     1.0  0.50541  0.43886  0.52681  1.0000
  H   H2625     1.0  0.59707  0.34961  0.81809  1.0000
  H   H2626     1.0  0.50740  0.61366  0.96847  1.0000
  H   H2627     1.0  0.50585  0.56366  0.66585  1.0000
  C   C2222     1.0  0.59777  0.36882  0.53111  1.0000
  C   C2223     1.0  0.60703  0.37012  0.54491  1.0000
  C   C2224     1.0  0.57304  0.40542  0.88734  1.0000
  H   H2628     1.0  0.70313  0.37509  0.76292  1.0000
  H   H2629     1.0  0.72167  0.46585  0.52567  1.0000
  H   H2630     1.0  0.58926  0.36966  0.54177  1.0000
  H   H2631     1.0  0.54955  0.56338  0.69845  1.0000
  C   C2225     1.0  0.54787  0.64115  0.75918  1.0000
  H   H2632     1.0  0.52615  0.62720  0.78587  1.0000
  C   C2226     1.0  0.52707  0.48647  0.82254  1.0000
  H   H2633     1.0  0.65000  0.41387  0.58685  1.0000
  C   C2227     1.0  0.55391  0.62650  0.78987  1.0000
  C   C2228     1.0  0.53392  0.36823  0.88726  1.0000
  H   H2634     1.0  0.58523  0.55492  0.62201  1.0000
  C   C2229     1.0  0.57641  0.46182  0.55594  1.0000
  H   H2635     1.0  0.60007  0.46822  0.92734  1.0000
  H   H2636     1.0  0.53821  0.57071  0.73168  1.0000
  C   C2230     1.0  0.68975  0.35513  0.63154  1.0000
  C   C2231     1.0  0.67353  0.42027  0.95353  1.0000
  C   C2232     1.0  0.68940  0.37348  0.64541  1.0000
  H   H2637     1.0  0.51191  0.54104  0.72389  1.0000
  H   H2638     1.0  0.57457  0.51162  0.70859  1.0000
  C   C2233     1.0  0.53872  0.38960  0.86927  1.0000
  C   C2234     1.0  0.65547  0.49443  0.97382  1.0000
  H   H2639     1.0  0.56405  0.41930  0.88409  1.0000
  C   C2235     1.0  0.71279  0.48873  0.58852  1.0000
  S   S604      1.0  0.54449  0.46321  0.82465  1.0000
  H   H2640     1.0  0.52707  0.36024  0.89864  1.0000
  H   H2641     1.0  0.53522  0.34598  0.91715  1.0000
  H   H2642     1.0  0.66216  0.35297  0.59604  1.0000
  H   H2643     1.0  0.68232  0.42796  0.57121  1.0000
  H   H2644     1.0  0.59869  0.57273  0.65015  1.0000
  H   H2645     1.0  0.61004  0.58885  0.58781  1.0000
  C   C2236     1.0  0.72019  0.48157  0.58128  1.0000
  N   N147      1.0  0.59929  0.57099  0.60665  1.0000
  H   H2646     1.0  0.53432  0.44790  0.49701  1.0000
  S   S605      1.0  0.52372  0.45822  0.58956  1.0000
  C   C2237     1.0  0.67446  0.46516  0.52087  1.0000
  H   H2647     1.0  0.65434  0.34188  0.64730  1.0000
  C   C2238     1.0  0.55304  0.40329  0.91480  1.0000
  C   C2239     1.0  0.67787  0.35338  0.62935  1.0000
  S   S606      1.0  0.61237  0.35196  0.63611  1.0000
  C   C2240     1.0  0.52702  0.46149  0.55110  1.0000
  H   H2648     1.0  0.58882  0.52076  0.68737  1.0000
  N   N148      1.0  0.67162  0.34306  0.62080  1.0000
  Fe  Fe302     1.0  0.60282  0.50313  0.98071  1.0000
  S   S607      1.0  0.50668  0.63175  0.91626  1.0000
  N   N149      1.0  0.71527  0.39198  0.73899  1.0000
  C   C2241     1.0  0.61994  0.35983  0.74341  1.0000
  Fe  Fe303     1.0  0.53592  0.44981  0.93479  1.0000
  H   H2649     1.0  0.56351  0.44519  0.56392  1.0000
  H   H2650     1.0  0.58304  0.51999  0.84077  1.0000
  N   N150      1.0  0.54430  0.63250  0.78790  1.0000
  C   C2242     1.0  0.66271  0.42900  0.60743  1.0000
  N   N151      1.0  0.51518  0.47073  0.86872  1.0000
  C   C2243     1.0  0.56226  0.47256  0.71444  1.0000
  Fe  Fe304     1.0  0.61085  0.52009  0.51065  1.0000
  S   S608      1.0  0.61984  0.36073  0.82597  1.0000
  H   H2651     1.0  0.59664  0.48899  0.88788  1.0000
  H   H2652     1.0  0.53048  0.61673  0.81084  1.0000
  S   S609      1.0  0.51468  0.45738  0.73098  1.0000
  H   H2653     1.0  0.58736  0.47913  0.54927  1.0000
  H   H2654     1.0  0.56631  0.40575  0.95644  1.0000
  H   H2655     1.0  0.53621  0.49937  0.78222  1.0000
  H   H2656     1.0  0.70905  0.40724  0.72534  1.0000
  H   H2657     1.0  0.74373  0.48558  0.79886  1.0000
  C   C2244     1.0  0.52986  0.65045  0.83351  1.0000
  C   C2245     1.0  0.71134  0.49759  0.56717  1.0000
  H   H2658     1.0  0.53606  0.39782  0.86705  1.0000
  H   H2659     1.0  0.59669  0.58550  0.57632  1.0000
  S   S610      1.0  0.54809  0.43862  0.94588  1.0000
  H   H2660     1.0  0.60335  0.56016  0.64232  1.0000
  C   C2246     1.0  0.59125  0.50028  0.71439  1.0000
  H   H2661     1.0  0.54057  0.64495  0.75418  1.0000
  C   C2247     1.0  0.52513  0.47496  0.88118  1.0000
  H   H2662     1.0  0.71891  0.34354  0.75412  1.0000
  N   N152      1.0  0.65155  0.50702  0.88364  1.0000
  C   C2248     1.0  0.65069  0.51437  0.90465  1.0000
  C   C2249     1.0  0.65491  0.51493  0.85400  1.0000
  C   C2250     1.0  0.63957  0.49917  0.88807  1.0000
  C   C2251     1.0  0.66058  0.50045  0.88753  1.0000
  C   C2252     1.0  0.65776  0.48788  0.89761  1.0000
  C   C2253     1.0  0.67263  0.50670  0.88190  1.0000
  C   C2254     1.0  0.66652  0.48201  0.90126  1.0000
  C   C2255     1.0  0.68131  0.50073  0.88565  1.0000
  C   C2256     1.0  0.67826  0.48842  0.89524  1.0000
  H   H2663     1.0  0.64428  0.51977  0.90175  1.0000
  H   H2664     1.0  0.64765  0.50870  0.92716  1.0000
  H   H2665     1.0  0.65927  0.52067  0.90262  1.0000
  H   H2666     1.0  0.66307  0.52213  0.84996  1.0000
  H   H2667     1.0  0.64793  0.51950  0.85004  1.0000
  H   H2668     1.0  0.65637  0.50983  0.83746  1.0000
  H   H2669     1.0  0.63609  0.49352  0.91065  1.0000
  H   H2670     1.0  0.63306  0.50440  0.88446  1.0000
  H   H2671     1.0  0.63957  0.49336  0.87288  1.0000
  H   H2672     1.0  0.64883  0.48235  0.90330  1.0000
  H   H2673     1.0  0.67543  0.51627  0.87524  1.0000
  H   H2674     1.0  0.66419  0.47245  0.90943  1.0000
  H   H2675     1.0  0.69041  0.50567  0.88218  1.0000
  H   H2676     1.0  0.68499  0.48388  0.89896  1.0000
  H   H2677     1.0  0.54649  0.47769  0.76853  1.0000
  N   N153      1.0  0.63912  0.39695  0.79390  1.0000
  C   C2257     1.0  0.64087  0.40172  0.76239  1.0000
  C   C2258     1.0  0.64493  0.38715  0.79844  1.0000
  C   C2259     1.0  0.62622  0.39183  0.80672  1.0000
  C   C2260     1.0  0.64444  0.40640  0.80652  1.0000
  C   C2261     1.0  0.63796  0.40969  0.83004  1.0000
  C   C2262     1.0  0.65658  0.41253  0.79555  1.0000
  C   C2263     1.0  0.64334  0.41873  0.84120  1.0000
  C   C2264     1.0  0.66185  0.42149  0.80692  1.0000
  C   C2265     1.0  0.65525  0.42466  0.82955  1.0000
  H   H2678     1.0  0.65035  0.40472  0.75046  1.0000
  H   H2679     1.0  0.63670  0.39489  0.75237  1.0000
  H   H2680     1.0  0.63707  0.40944  0.75800  1.0000
  H   H2681     1.0  0.65453  0.39005  0.78752  1.0000
  H   H2682     1.0  0.64104  0.37975  0.78976  1.0000
  H   H2683     1.0  0.64393  0.38340  0.82185  1.0000
  H   H2684     1.0  0.62127  0.39873  0.80426  1.0000
  H   H2685     1.0  0.62245  0.38502  0.79610  1.0000
  H   H2686     1.0  0.62424  0.38718  0.83002  1.0000
  H   H2687     1.0  0.62874  0.40540  0.84025  1.0000
  H   H2688     1.0  0.66214  0.41042  0.77807  1.0000
  H   H2689     1.0  0.63826  0.42115  0.85903  1.0000
  H   H2690     1.0  0.67113  0.42606  0.79804  1.0000
  H   H2691     1.0  0.65945  0.43172  0.83800  1.0000
  H   H2692     1.0  0.58045  0.50380  0.58412  1.0000
  C   C2266     1.0  0.70214  0.44693  0.56159  1.0000
  H   H2693     1.0  0.59827  0.49361  0.84955  1.0000
  H   H2694     1.0  0.70444  0.36619  0.64101  1.0000
  H   H2695     1.0  0.73939  0.45981  0.56023  1.0000
  H   H2696     1.0  0.58658  0.51563  0.88458  1.0000
  H   H2697     1.0  0.73798  0.40496  0.73889  1.0000
  H   H2698     1.0  0.58467  0.49920  0.73505  1.0000
  H   H2699     1.0  0.59843  0.49616  0.66112  1.0000
  C   C2267     1.0  0.54346  0.64283  0.85735  1.0000
  H   H2700     1.0  0.56232  0.63290  0.78876  1.0000
  H   H2701     1.0  0.73217  0.48855  0.84375  1.0000
  C   C2268     1.0  0.74792  0.43526  0.74621  1.0000
  H   H2702     1.0  0.53103  0.44475  0.55012  1.0000
  C   C2269     1.0  0.54041  0.34623  0.89530  1.0000
  Fe  Fe305     1.0  0.58846  0.36989  0.89817  1.0000
  H   H2703     1.0  0.56430  0.47580  0.98356  1.0000
  C   C2270     1.0  0.57617  0.49206  0.69039  1.0000
  H   H2704     1.0  0.62101  0.55321  0.52373  1.0000
  C   C2271     1.0  0.59170  0.49020  0.87094  1.0000
  H   H2705     1.0  0.61316  0.57492  0.62833  1.0000
  H   H2706     1.0  0.62636  0.36262  0.72269  1.0000
  C   C2272     1.0  0.71114  0.37890  0.74453  1.0000
  C   C2273     1.0  0.70599  0.39739  0.73058  1.0000
  C   C2274     1.0  0.59398  0.53132  0.59885  1.0000
  H   H2707     1.0  0.72308  0.43331  0.88735  1.0000
  C   C2275     1.0  0.74268  0.43730  0.84815  1.0000
  S   S611      1.0  0.52465  0.45842  0.96356  1.0000
  H   H2708     1.0  0.55544  0.64865  0.75786  1.0000
  H   H2709     1.0  0.53520  0.47572  0.73153  1.0000
  C   C2276     1.0  0.61795  0.36887  0.53116  1.0000
  H   H2710     1.0  0.67628  0.35249  0.57596  1.0000
  H   H2711     1.0  0.52457  0.44417  0.82310  1.0000
  C   C2277     1.0  0.53306  0.64520  0.81107  1.0000
  C   C2278     1.0  0.57848  0.51202  0.83626  1.0000
  N   N154      1.0  0.74116  0.44387  0.87085  1.0000
  H   H2712     1.0  0.59653  0.50759  0.89552  1.0000
  H   H2713     1.0  0.63262  0.34198  0.50630  1.0000
  H   H2714     1.0  0.58188  0.56672  0.59871  1.0000
  H   H2715     1.0  0.61925  0.34503  0.58556  1.0000
  H   H2716     1.0  0.52131  0.37872  0.89158  1.0000
  C   C2279     1.0  0.67167  0.48485  0.96949  1.0000
  H   H2717     1.0  0.75160  0.44714  0.64129  1.0000
  C   C2280     1.0  0.71896  0.34469  0.63655  1.0000
  H   H2718     1.0  0.55402  0.49372  0.56060  1.0000
  H   H2719     1.0  0.71843  0.38961  0.68340  1.0000
  S   S612      1.0  0.58086  0.35377  0.93583  1.0000
  H   H2720     1.0  0.71816  0.37461  0.74952  1.0000
  H   H2721     1.0  0.69826  0.46346  0.54555  1.0000
  N   N155      1.0  0.53581  0.54804  0.72555  1.0000
  C   C2281     1.0  0.54095  0.54771  0.75086  1.0000
  C   C2282     1.0  0.53127  0.53557  0.72456  1.0000
  C   C2283     1.0  0.54539  0.55406  0.69892  1.0000
  C   C2284     1.0  0.52665  0.55468  0.72767  1.0000
  C   C2285     1.0  0.51488  0.54987  0.72646  1.0000
  C   C2286     1.0  0.52943  0.56643  0.73086  1.0000
  H   H2722     1.0  0.70833  0.39119  0.78397  1.0000
  C   C2287     1.0  0.75158  0.45305  0.90394  1.0000
  H   H2723     1.0  0.57708  0.39487  0.49091  1.0000
  H   H2724     1.0  0.53393  0.54429  0.77149  1.0000
  H   H2725     1.0  0.54711  0.54188  0.75127  1.0000
  H   H2726     1.0  0.54624  0.55659  0.75082  1.0000
  H   H2727     1.0  0.52804  0.53506  0.70491  1.0000
  H   H2728     1.0  0.52408  0.53049  0.74415  1.0000
  C   C2288     1.0  0.53495  0.64917  0.85675  1.0000
  H   H2729     1.0  0.52646  0.48448  0.88115  1.0000
  C   C2289     1.0  0.50772  0.59461  0.61407  1.0000
  Fe  Fe306     1.0  0.51711  0.46942  0.68612  1.0000
  S   S613      1.0  0.54990  0.46312  0.89825  1.0000
  H   H2730     1.0  0.54941  0.47365  0.58129  1.0000
  H   H2731     1.0  0.57895  0.49202  0.92176  1.0000
  H   H2732     1.0  0.56240  0.46280  0.95018  1.0000
  C   C2290     1.0  0.50835  0.62295  0.86783  1.0000
  H   H2733     1.0  0.74159  0.49122  0.88347  1.0000
  C   C2291     1.0  0.54681  0.63759  0.83490  1.0000
  H   H2734     1.0  0.69379  0.38118  0.65144  1.0000
  H   H2735     1.0  0.67580  0.42118  0.93042  1.0000
  H   H2736     1.0  0.70794  0.48718  0.61084  1.0000
  C   C2292     1.0  0.51091  0.47813  0.79257  1.0000
  H   H2737     1.0  0.65328  0.47557  0.98751  1.0000
  C   C2293     1.0  0.72413  0.34047  0.76835  1.0000
  C   C2294     1.0  0.55051  0.38986  0.85898  1.0000
  Fe  Fe307     1.0  0.56147  0.45117  0.90732  1.0000
  C   C2295     1.0  0.57916  0.49440  0.58284  1.0000
  C   C2296     1.0  0.60687  0.56095  0.53756  1.0000
  C   C2297     1.0  0.52767  0.47367  0.50403  1.0000
  C   C2298     1.0  0.66816  0.44185  0.55752  1.0000
  C   C2299     1.0  0.73002  0.35283  0.62964  1.0000
  C   C2300     1.0  0.57169  0.48182  0.71412  1.0000
  H   H2738     1.0  0.65418  0.42174  0.54988  1.0000
  C   C2301     1.0  0.53287  0.46883  0.75138  1.0000
  H   H2739     1.0  0.53518  0.61837  0.77280  1.0000
  H   H2740     1.0  0.57870  0.50827  0.53254  1.0000
  C   C2302     1.0  0.50918  0.47267  0.82178  1.0000
  S   S614      1.0  0.58731  0.35933  0.86506  1.0000
  H   H2741     1.0  0.61985  0.56268  0.60343  1.0000
  N   N156      1.0  0.57113  0.49145  0.56433  1.0000
  C   C2303     1.0  0.55726  0.47082  0.57422  1.0000
  H   H2742     1.0  0.58556  0.49689  0.52583  1.0000
  C   C2304     1.0  0.59275  0.39717  0.98629  1.0000
  C   C2305     1.0  0.67374  0.42338  0.56818  1.0000
  H   H2743     1.0  0.70549  0.50302  0.57286  1.0000
  H   H2744     1.0  0.52359  0.47001  0.90413  1.0000
  C   C2306     1.0  0.54160  0.63855  0.81110  1.0000
  S   S615      1.0  0.52932  0.43910  0.90512  1.0000
  C   C2307     1.0  0.57689  0.49856  0.53424  1.0000
  H   H2745     1.0  0.56231  0.50486  0.57356  1.0000
  H   H2746     1.0  0.70355  0.39501  0.71135  1.0000
  C   C2308     1.0  0.57174  0.49074  0.84388  1.0000
  H   H2747     1.0  0.67320  0.37871  0.64752  1.0000
  H   H2748     1.0  0.51209  0.45320  0.89636  1.0000
  C   C2309     1.0  0.62155  0.55812  0.56355  1.0000
  C   C2310     1.0  0.51834  0.64145  0.58820  1.0000
  C   C2311     1.0  0.65327  0.42297  0.57206  1.0000
  C   C2312     1.0  0.67031  0.45205  0.56858  1.0000
  C   C2313     1.0  0.73373  0.46548  0.56755  1.0000
  C   C2314     1.0  0.55412  0.37937  0.86316  1.0000
  H   H2749     1.0  0.56116  0.48491  0.81605  1.0000
  C   C2315     1.0  0.56028  0.49522  0.57433  1.0000
  C   C2316     1.0  0.56882  0.47866  0.56529  1.0000
  C   C2317     1.0  0.55547  0.45887  0.57392  1.0000
  H   H2750     1.0  0.57326  0.50005  0.64896  1.0000
  C   C2318     1.0  0.58681  0.40401  0.97078  1.0000
  C   C2319     1.0  0.67209  0.36220  0.63534  1.0000
  H   H2751     1.0  0.55242  0.35924  0.92432  1.0000
  H   H2752     1.0  0.58656  0.48113  0.87211  1.0000
  C   C2320     1.0  0.56118  0.48311  0.66792  1.0000
  H   H2753     1.0  0.59088  0.34619  0.77435  1.0000
  S   S616      1.0  0.60738  0.36979  0.89688  1.0000
  C   C2321     1.0  0.66377  0.41143  0.97155  1.0000
  N   N157      1.0  0.55010  0.35732  0.88290  1.0000
  N   N158      1.0  0.58601  0.50215  0.68929  1.0000
  C   C2322     1.0  0.65954  0.48415  0.97783  1.0000
  C   C2323     1.0  0.71741  0.49941  0.53849  1.0000
  H   H2754     1.0  0.55564  0.49043  0.59714  1.0000
  H   H2755     1.0  0.57133  0.49638  0.51938  1.0000
  C   C2324     1.0  0.60385  0.56962  0.63291  1.0000
  H   H2756     1.0  0.55690  0.48377  0.65039  1.0000
  C   C2325     1.0  0.50582  0.66949  0.61527  1.0000
  H   H2757     1.0  0.66840  0.43664  0.51708  1.0000
  H   H2758     1.0  0.57091  0.48168  0.85506  1.0000
  C   C2326     1.0  0.50893  0.60535  0.59434  1.0000
  H   H2759     1.0  0.74387  0.45583  0.91268  1.0000
  H   H2760     1.0  0.51569  0.64664  0.54534  1.0000
  H   H2761     1.0  0.52843  0.64603  0.79422  1.0000
  H   H2762     1.0  0.58384  0.45844  0.54812  1.0000
  C   C2327     1.0  0.55247  0.39149  0.92816  1.0000
  C   C2328     1.0  0.54593  0.36821  0.87734  1.0000
  H   H2763     1.0  0.52307  0.65520  0.83336  1.0000
  C   C2329     1.0  0.72487  0.49234  0.53104  1.0000
  H   H2764     1.0  0.51347  0.59486  0.62844  1.0000
  H   H2765     1.0  0.70879  0.37611  0.72561  1.0000
  C   C2330     1.0  0.74784  0.48676  0.81629  1.0000
  C   C2331     1.0  0.59943  0.36630  0.50382  1.0000
  C   C2332     1.0  0.58164  0.51290  0.68872  1.0000
  C   C2333     1.0  0.75070  0.45162  0.76881  1.0000
  H   H2766     1.0  0.67539  0.42301  0.54522  1.0000
  H   H2767     1.0  0.57791  0.51528  0.66996  1.0000
  C   C2334     1.0  0.73814  0.45490  0.85829  1.0000
  C   C2335     1.0  0.56499  0.45440  0.56461  1.0000
  N   N159      1.0  0.66454  0.42957  0.57614  1.0000
  C   C2336     1.0  0.53927  0.46990  0.77245  1.0000
  S   S617      1.0  0.60595  0.34709  0.97225  1.0000
  H   H2768     1.0  0.54658  0.45306  0.58065  1.0000
  C   C2337     1.0  0.72628  0.39455  0.68758  1.0000
  H   H2769     1.0  0.54449  0.38606  0.94402  1.0000
  C   C2338     1.0  0.57248  0.39363  0.90046  1.0000
  S   S618      1.0  0.74662  0.47884  0.93706  1.0000
  Fe  Fe308     1.0  0.54302  0.42909  0.91309  1.0000
  C   C2339     1.0  0.60267  0.52846  0.57944  1.0000
  H   H2770     1.0  0.51034  0.61628  0.82957  1.0000
  H   H2771     1.0  0.53381  0.49000  0.83249  1.0000
  C   C2340     1.0  0.56602  0.49248  0.82172  1.0000
  N   N160      1.0  0.73429  0.47566  0.54362  1.0000
  C   C2341     1.0  0.57833  0.47373  0.55656  1.0000
  H   H2772     1.0  0.59365  0.56860  0.55584  1.0000
  C   C2342     1.0  0.53045  0.37881  0.88327  1.0000
  H   H2773     1.0  0.55225  0.35601  0.83896  1.0000
  H   H2774     1.0  0.66990  0.45146  0.59110  1.0000
  S   S619      1.0  0.64012  0.49290  0.98572  1.0000
  C   C2343     1.0  0.68044  0.42795  0.96526  1.0000
  H   H2775     1.0  0.65596  0.43362  0.61481  1.0000
  H   H2776     1.0  0.55883  0.46489  0.73292  1.0000
  C   C2344     1.0  0.56221  0.38673  0.92135  1.0000
  H   H2777     1.0  0.67506  0.47117  0.55917  1.0000
  C   C2345     1.0  0.69536  0.36504  0.63954  1.0000
  H   H2778     1.0  0.55698  0.39830  0.84875  1.0000
  H   H2779     1.0  0.56542  0.36589  0.89513  1.0000
  H   H2780     1.0  0.72063  0.47473  0.59896  1.0000
  C   C2346     1.0  0.51334  0.63475  0.61701  1.0000
  S   S620      1.0  0.52216  0.63495  0.64232  1.0000
  H   H2781     1.0  0.56199  0.50520  0.78987  1.0000
  C   C2347     1.0  0.67780  0.37207  0.64325  1.0000
  H   H2782     1.0  0.54736  0.64184  0.87557  1.0000
  H   H2783     1.0  0.62031  0.52626  0.57119  1.0000
  C   C2348     1.0  0.62346  0.36167  0.76824  1.0000
  C   C2349     1.0  0.60555  0.56634  0.58386  1.0000
  C   C2350     1.0  0.55698  0.47321  0.69146  1.0000
  H   H2784     1.0  0.74436  0.42858  0.85649  1.0000
  H   H2785     1.0  0.59490  0.49240  0.71592  1.0000
  H   H2786     1.0  0.73580  0.45990  0.87454  1.0000
  H   H2787     1.0  0.52092  0.45560  0.86031  1.0000
  H   H2788     1.0  0.51214  0.61659  0.87921  1.0000
  H   H2789     1.0  0.57118  0.43685  0.95917  1.0000
  C   C2351     1.0  0.61692  0.55714  0.53995  1.0000
  H   H2790     1.0  0.55053  0.63694  0.74137  1.0000
  C   C2352     1.0  0.73649  0.39875  0.66482  1.0000
  C   C2353     1.0  0.53022  0.45293  0.53731  1.0000
  C   C2354     1.0  0.61970  0.36670  0.50358  1.0000
  H   H2791     1.0  0.50803  0.66727  0.63578  1.0000
  H   H2792     1.0  0.56179  0.37778  0.93233  1.0000
  S   S621      1.0  0.51569  0.48826  0.67849  1.0000
  C   C2355     1.0  0.52335  0.45896  0.75629  1.0000
  C   C2356     1.0  0.58652  0.56469  0.61583  1.0000
  H   H2793     1.0  0.58550  0.53125  0.59424  1.0000
  S   S622      1.0  0.54070  0.40910  0.92384  1.0000
  H   H2794     1.0  0.59867  0.50805  0.71264  1.0000
  C   C2357     1.0  0.61597  0.56258  0.58533  1.0000
  H   H2795     1.0  0.55572  0.62215  0.77182  1.0000
  C   C2358     1.0  0.60134  0.56564  0.55892  1.0000
  H   H2796     1.0  0.56068  0.35012  0.90893  1.0000
  C   C2359     1.0  0.53631  0.46109  0.79859  1.0000
  C   C2360     1.0  0.52043  0.45011  0.78238  1.0000
  H   H2797     1.0  0.59863  0.51403  0.85789  1.0000
  H   H2798     1.0  0.57521  0.48077  0.73286  1.0000
  Fe  Fe309     1.0  0.59968  0.35302  0.93235  1.0000
  C   C2361     1.0  0.57059  0.49242  0.66734  1.0000
  C   C2362     1.0  0.58331  0.47963  0.97374  1.0000
  H   H2799     1.0  0.70783  0.34827  0.70317  1.0000
  H   H2800     1.0  0.63260  0.36583  0.76641  1.0000
  H   H2801     1.0  0.50490  0.47466  0.78053  1.0000
  C   C2363     1.0  0.53211  0.45469  0.50713  1.0000
  H   H2802     1.0  0.57936  0.43068  0.91792  1.0000
  H   H2803     1.0  0.72833  0.44115  0.91139  1.0000
  H   H2804     1.0  0.75045  0.34962  0.78281  1.0000
  C   C2364     1.0  0.74663  0.48315  0.53342  1.0000
  H   H2805     1.0  0.51538  0.61331  0.59405  1.0000
  H   H2806     1.0  0.60356  0.51128  0.66239  1.0000
  C   C2365     1.0  0.59561  0.50437  0.66276  1.0000
  H   H2807     1.0  0.72455  0.45965  0.57634  1.0000
  C   C2366     1.0  0.67337  0.46351  0.55039  1.0000
  C   C2367     1.0  0.52814  0.61504  0.98224  1.0000
  C   C2368     1.0  0.59177  0.50940  0.87839  1.0000
  H   H2808     1.0  0.59603  0.58764  0.61180  1.0000
  H   H2809     1.0  0.52368  0.47876  0.54425  1.0000
  H   H2810     1.0  0.50527  0.45343  0.86730  1.0000
  H   H2811     1.0  0.69766  0.39458  0.74816  1.0000
  C   C2369     1.0  0.75288  0.45876  0.68414  1.0000
  H   H2812     1.0  0.53350  0.47369  0.86906  1.0000
  H   H2813     1.0  0.51311  0.44240  0.78634  1.0000
  C   C2370     1.0  0.50693  0.57260  0.65174  1.0000
  C   C2371     1.0  0.57211  0.47405  0.97158  1.0000
  H   H2814     1.0  0.66312  0.36160  0.63369  1.0000
  H   H2815     1.0  0.73634  0.39696  0.64401  1.0000
  H   H2816     1.0  0.73286  0.47761  0.49949  1.0000
  H   H2817     1.0  0.74778  0.49069  0.51457  1.0000
  C   C2372     1.0  0.66834  0.34726  0.59359  1.0000
  H   H2818     1.0  0.74063  0.46566  0.71033  1.0000
  H   H2819     1.0  0.68806  0.43480  0.95120  1.0000
  H   H2820     1.0  0.50707  0.56647  0.60024  1.0000
  H   H2821     1.0  0.74583  0.45141  0.68407  1.0000
  S   S623      1.0  0.61663  0.50323  0.51684  1.0000
  C   C2373     1.0  0.52098  0.57290  0.73322  1.0000
  C   C2374     1.0  0.58455  0.41445  0.97785  1.0000
  C   C2375     1.0  0.57626  0.43198  0.97170  1.0000
  H   H2822     1.0  0.74562  0.46091  0.84044  1.0000
  H   H2823     1.0  0.58489  0.43846  0.96864  1.0000
  H   H2824     1.0  0.51602  0.57544  0.63724  1.0000
  H   H2825     1.0  0.67467  0.47686  0.97268  1.0000
  C   C2376     1.0  0.55731  0.35607  0.85570  1.0000
  H   H2826     1.0  0.59216  0.36501  0.49382  1.0000
  C   C2377     1.0  0.74662  0.48986  0.86387  1.0000
  H   H2827     1.0  0.73685  0.46848  0.58547  1.0000
  H   H2828     1.0  0.56057  0.41841  0.95338  1.0000
  H   H2829     1.0  0.73872  0.35600  0.75049  1.0000
  C   C2378     1.0  0.71097  0.34303  0.66314  1.0000
  S   S624      1.0  0.50464  0.46454  0.65877  1.0000
  C   C2379     1.0  0.74980  0.46685  0.69942  1.0000
  N   N161      1.0  0.57787  0.42130  0.96176  1.0000
  H   H2830     1.0  0.62829  0.36604  0.49290  1.0000
  H   H2831     1.0  0.73635  0.46438  0.51429  1.0000
  C   C2380     1.0  0.74862  0.34349  0.52248  1.0000
  C   C2381     1.0  0.52055  0.48781  0.77848  1.0000
  H   H2832     1.0  0.50618  0.57863  0.66633  1.0000
  H   H2833     1.0  0.75007  0.44251  0.82915  1.0000
  H   H2834     1.0  0.58392  0.40096  0.95331  1.0000
  H   H2835     1.0  0.61354  0.34181  0.51072  1.0000
  C   C2382     1.0  0.74725  0.40709  0.69585  1.0000
  H   H2836     1.0  0.72949  0.49423  0.50854  1.0000
  C   C2383     1.0  0.74693  0.40507  0.66891  1.0000
  H   H2837     1.0  0.58490  0.41787  0.92073  1.0000
  Fe  Fe310     1.0  0.74924  0.37148  0.69111  1.0000
  H   H2838     1.0  0.65842  0.40544  0.96236  1.0000
  C   C2384     1.0  0.75176  0.44688  0.88192  1.0000
  H   H2839     1.0  0.71633  0.50633  0.52184  1.0000
  Fe  Fe311     1.0  0.62907  0.50582  0.97610  1.0000
  C   C2385     1.0  0.50950  0.56790  0.73233  1.0000
  H   H2840     1.0  0.75135  0.42869  0.73741  1.0000
  H   H2841     1.0  0.52861  0.61818  0.95884  1.0000
  C   C2386     1.0  0.61049  0.36547  0.48970  1.0000
  H   H2842     1.0  0.52196  0.49185  0.75568  1.0000
  H   H2843     1.0  0.59431  0.38918  0.98064  1.0000
  H   H2844     1.0  0.56020  0.34769  0.85921  1.0000
  Fe  Fe312     1.0  0.50451  0.48382  0.64836  1.0000
  H   H2845     1.0  0.75157  0.34644  0.83065  1.0000
  H   H2846     1.0  0.59598  0.39325  0.49146  1.0000
  H   H2847     1.0  0.56333  0.40735  0.49389  1.0000
  H   H2848     1.0  0.50546  0.48278  0.88196  1.0000
  H   H2849     1.0  0.51349  0.67240  0.51310  1.0000
  C   C2387     1.0  0.50448  0.47308  0.88524  1.0000
  H   H2850     1.0  0.52641  0.48163  0.49133  1.0000
  C   C2388     1.0  0.50386  0.67048  0.51456  1.0000
  S   S625      1.0  0.50641  0.91710  0.99375  1.0000
  H   H2851     1.0  0.54327  0.94367  0.14702  1.0000
  H   H2852     1.0  0.54494  0.96155  0.25565  1.0000
  Fe  Fe313     1.0  0.54117  0.00113  0.15684  1.0000
  S   S626      1.0  0.52385  0.95531  0.47142  1.0000
  S   S627      1.0  0.54465  0.99260  0.11848  1.0000
  C   C2389     1.0  0.53615  0.94833  0.15012  1.0000
  C   C2390     1.0  0.52173  0.97496  0.06442  1.0000
  H   H2853     1.0  0.52562  0.99459  0.44666  1.0000
  Fe  Fe314     1.0  0.53995  0.99806  0.22229  1.0000
  S   S628      1.0  0.53886  0.98311  0.26100  1.0000
  C   C2391     1.0  0.53552  0.98268  0.29847  1.0000
  H   H2854     1.0  0.52827  0.96237  0.36414  1.0000
  C   C2392     1.0  0.54332  0.00517  0.02417  1.0000
  Fe  Fe315     1.0  0.51202  0.95939  0.00600  1.0000
  C   C2393     1.0  0.54204  0.96000  0.21429  1.0000
  C   C2394     1.0  0.52352  0.98540  0.10268  1.0000
  C   C2395     1.0  0.53954  0.99956  0.00390  1.0000
  H   H2855     1.0  0.52754  0.94168  0.16112  1.0000
  H   H2856     1.0  0.52070  0.95757  0.18260  1.0000
  S   S629      1.0  0.52965  0.98082  0.39586  1.0000
  H   H2857     1.0  0.55728  0.00232  0.43899  1.0000
  C   C2396     1.0  0.53258  0.97166  0.31888  1.0000
  H   H2858     1.0  0.51948  0.98928  0.11896  1.0000
  H   H2859     1.0  0.54558  0.00116  0.42157  1.0000
  S   S630      1.0  0.52702  0.99179  0.19755  1.0000
  C   C2397     1.0  0.54826  0.00356  0.44069  1.0000
  H   H2860     1.0  0.55203  0.97397  0.15845  1.0000
  H   H2861     1.0  0.51563  0.98634  0.27485  1.0000
  C   C2398     1.0  0.53552  0.98579  0.09825  1.0000
  C   C2399     1.0  0.54052  0.98056  0.07703  1.0000
  C   C2400     1.0  0.53370  0.97517  0.06032  1.0000
  H   H2862     1.0  0.53128  0.97157  0.17610  1.0000
  C   C2401     1.0  0.54307  0.95556  0.24214  1.0000
  H   H2863     1.0  0.54979  0.98080  0.07321  1.0000
  H   H2864     1.0  0.53548  0.95242  0.12806  1.0000
  H   H2865     1.0  0.51766  0.00612  0.06571  1.0000
  C   C2402     1.0  0.53594  0.99295  0.30835  1.0000
  C   C2403     1.0  0.53982  0.98367  0.47096  1.0000
  H   H2866     1.0  0.53465  0.00024  0.34557  1.0000
  H   H2867     1.0  0.53658  0.93364  0.19523  1.0000
  Fe  Fe316     1.0  0.50830  0.94016  0.47302  1.0000
  C   C2404     1.0  0.52917  0.96351  0.16808  1.0000
  C   C2405     1.0  0.51671  0.98008  0.08587  1.0000
  H   H2868     1.0  0.53830  0.00150  0.29296  1.0000
  H   H2869     1.0  0.55764  0.96200  0.14942  1.0000
  C   C2406     1.0  0.50661  0.98590  0.27181  1.0000
  H   H2870     1.0  0.53839  0.92637  0.24370  1.0000
  C   C2407     1.0  0.53025  0.97089  0.34878  1.0000
  H   H2871     1.0  0.53716  0.98046  0.45273  1.0000
  C   C2408     1.0  0.53107  0.98119  0.35865  1.0000
  H   H2872     1.0  0.53776  0.97132  0.04399  1.0000
  H   H2873     1.0  0.53227  0.96365  0.31155  1.0000
  H   H2874     1.0  0.52759  0.96661  0.14650  1.0000
  C   C2409     1.0  0.50674  0.00334  0.28906  1.0000
  Fe  Fe317     1.0  0.51835  0.96550  0.43419  1.0000
  H   H2875     1.0  0.54313  0.96947  0.20723  1.0000
  C   C2410     1.0  0.53387  0.99221  0.33824  1.0000
  C   C2411     1.0  0.55009  0.96607  0.14964  1.0000
  S   S631      1.0  0.51273  0.96891  0.04289  1.0000
  H   H2876     1.0  0.54999  0.96960  0.12681  1.0000
  C   C2412     1.0  0.53968  0.95242  0.19599  1.0000
  C   C2413     1.0  0.53940  0.93578  0.23537  1.0000
  C   C2414     1.0  0.53838  0.94011  0.20741  1.0000
  N   N162      1.0  0.53975  0.99626  0.46820  1.0000
  N   N163      1.0  0.53877  0.95739  0.16646  1.0000
  H   H2877     1.0  0.50792  0.99086  0.24901  1.0000
  H   H2878     1.0  0.53074  0.99364  0.01041  1.0000
  C   C2415     1.0  0.54175  0.94349  0.25267  1.0000
  H   H2879     1.0  0.54257  0.94011  0.27430  1.0000
  C   C2416     1.0  0.52779  0.99727  0.46596  1.0000
  H   H2880     1.0  0.51085  0.99713  0.16383  1.0000
  H   H2881     1.0  0.50746  0.97996  0.08952  1.0000
  H   H2882     1.0  0.53750  0.00353  0.04545  1.0000
  H   H2883     1.0  0.51522  0.00334  0.29520  1.0000
  H   H2884     1.0  0.50854  0.97225  0.31696  1.0000
  S   S632      1.0  0.50613  0.97233  0.46391  1.0000
  S   S633      1.0  0.50770  0.92044  0.48171  1.0000
  H   H2885     1.0  0.56089  0.99743  0.48275  1.0000
  H   H2886     1.0  0.54868  0.98221  0.47087  1.0000
  H   H2887     1.0  0.52081  0.99132  0.48508  1.0000
  S   S634      1.0  0.50410  0.94998  0.43360  1.0000
  H   H2888     1.0  0.52709  0.00654  0.46383  1.0000
  S   S635      1.0  0.55482  0.00628  0.18142  1.0000
  H   H2889     1.0  0.50405  0.96190  0.36746  1.0000
  H   H2890     1.0  0.53323  0.97858  0.98777  1.0000
  N   N164      1.0  0.54297  0.99489  0.95546  1.0000
  C   C2417     1.0  0.54154  0.96732  0.67836  1.0000
  Fe  Fe318     1.0  0.53831  0.99918  0.66054  1.0000
  H   H2891     1.0  0.51239  0.95811  0.61960  1.0000
  C   C2418     1.0  0.51509  0.98209  0.58151  1.0000
  S   S636      1.0  0.54148  0.99029  0.62260  1.0000
  C   C2419     1.0  0.50972  0.68110  0.59805  1.0000
  C   C2420     1.0  0.50783  0.99273  0.78619  1.0000
  C   C2421     1.0  0.51979  0.97602  0.56190  1.0000
  Fe  Fe319     1.0  0.53764  0.99561  0.72635  1.0000
  S   S637      1.0  0.53537  0.97997  0.76488  1.0000
  H   H2892     1.0  0.52614  0.93836  0.70343  1.0000
  H   H2893     1.0  0.54123  0.94465  0.70312  1.0000
  C   C2422     1.0  0.54318  0.00008  0.49304  1.0000
  H   H2894     1.0  0.54938  0.96697  0.68709  1.0000
  H   H2895     1.0  0.54128  0.99791  0.79675  1.0000
  H   H2896     1.0  0.52523  0.96053  0.81554  1.0000
  H   H2897     1.0  0.53704  0.94567  0.66996  1.0000
  H   H2898     1.0  0.53969  0.97602  0.67916  1.0000
  H   H2899     1.0  0.50641  0.98347  0.58220  1.0000
  Fe  Fe320     1.0  0.51867  0.96200  0.93941  1.0000
  H   H2900     1.0  0.50907  0.96074  0.72063  1.0000
  H   H2901     1.0  0.54851  0.97957  0.97321  1.0000
  Fe  Fe321     1.0  0.51076  0.96152  0.50121  1.0000
  H   H2902     1.0  0.53359  0.97789  0.49151  1.0000
  C   C2423     1.0  0.53537  0.00348  0.51394  1.0000
  C   C2424     1.0  0.52150  0.98643  0.60030  1.0000
  C   C2425     1.0  0.53094  0.97733  0.86239  1.0000
  H   H2903     1.0  0.54420  0.96745  0.65513  1.0000
  C   C2426     1.0  0.53275  0.98474  0.59993  1.0000
  C   C2427     1.0  0.53742  0.97863  0.58042  1.0000
  C   C2428     1.0  0.53104  0.97431  0.56157  1.0000
  C   C2429     1.0  0.52816  0.96838  0.82280  1.0000
  H   H2904     1.0  0.51777  0.99114  0.61495  1.0000
  H   H2905     1.0  0.54613  0.97731  0.57967  1.0000
  C   C2430     1.0  0.52089  0.95842  0.68261  1.0000
  H   H2906     1.0  0.51236  0.69328  0.51099  1.0000
  C   C2431     1.0  0.53717  0.98940  0.81217  1.0000
  C   C2432     1.0  0.53607  0.98835  0.84196  1.0000
  H   H2907     1.0  0.51107  0.98741  0.83667  1.0000
  H   H2908     1.0  0.52287  0.95883  0.86801  1.0000
  H   H2909     1.0  0.52891  0.99338  0.93371  1.0000
  H   H2910     1.0  0.53933  0.99611  0.84917  1.0000
  H   H2911     1.0  0.51642  0.99106  0.78852  1.0000
  H   H2912     1.0  0.52926  0.95706  0.63976  1.0000
  H   H2913     1.0  0.53685  0.95701  0.73423  1.0000
  H   H2914     1.0  0.55994  0.99550  0.92875  1.0000
  H   H2915     1.0  0.54819  0.99325  0.91171  1.0000
  H   H2916     1.0  0.52148  0.95017  0.73964  1.0000
  H   H2917     1.0  0.51268  0.71465  0.98126  1.0000
  C   C2433     1.0  0.54058  0.98194  0.96774  1.0000
  C   C2434     1.0  0.51025  0.95997  0.69870  1.0000
  H   H2918     1.0  0.51052  0.69305  0.55888  1.0000
  H   H2919     1.0  0.50614  0.97847  0.88809  1.0000
  C   C2435     1.0  0.53399  0.94603  0.69273  1.0000
  C   C2436     1.0  0.52898  0.95764  0.72569  1.0000
  S   S638      1.0  0.52442  0.95222  0.97687  1.0000
  H   H2920     1.0  0.52720  0.96615  0.72869  1.0000
  S   S639      1.0  0.51122  0.97084  0.53851  1.0000
  S   S640      1.0  0.53038  0.97643  0.89953  1.0000
  S   S641      1.0  0.52437  0.99006  0.70180  1.0000
  C   C2437     1.0  0.52137  0.95783  0.65368  1.0000
  C   C2438     1.0  0.53340  0.97937  0.80235  1.0000
  C   C2439     1.0  0.52681  0.96737  0.85264  1.0000
  H   H2921     1.0  0.53484  0.96969  0.54679  1.0000
  N   N165      1.0  0.53110  0.95738  0.69483  1.0000
  C   C2440     1.0  0.54707  0.00126  0.97613  1.0000
  C   C2441     1.0  0.55458  0.00017  0.49732  1.0000
  H   H2922     1.0  0.53803  0.97686  0.95218  1.0000
  Fe  Fe322     1.0  0.50845  0.93713  0.98066  1.0000
  C   C2442     1.0  0.50712  0.68392  0.57123  1.0000
  C   C2443     1.0  0.53189  0.99757  0.95033  1.0000
  H   H2923     1.0  0.50918  0.99785  0.66575  1.0000
  S   S642      1.0  0.55225  0.00356  0.68492  1.0000
  H   H2924     1.0  0.52637  0.00327  0.51328  1.0000
  C   C2444     1.0  0.55165  0.99804  0.92689  1.0000
  H   H2925     1.0  0.50708  0.73318  0.97201  1.0000
  H   H2926     1.0  0.50931  0.97041  0.78735  1.0000
  H   H2927     1.0  0.52440  0.99411  0.97001  1.0000
  H   H2928     1.0  0.50922  0.99667  0.76270  1.0000
  H   H2929     1.0  0.51491  0.68793  0.60542  1.0000
  H   H2930     1.0  0.56663  0.00333  0.52405  1.0000
  S   S643      1.0  0.50719  0.96979  0.96847  1.0000
  C   C2445     1.0  0.51176  0.95847  0.64184  1.0000
  H   H2931     1.0  0.50601  0.99961  0.79750  1.0000
  C   C2446     1.0  0.55796  0.00352  0.52088  1.0000
  S   S644      1.0  0.50388  0.94649  0.94127  1.0000
  C   C2447     1.0  0.76555  0.31294  0.42161  1.0000
  C   C2448     1.0  0.76398  0.32438  0.41887  1.0000
  H   H2932     1.0  0.80055  0.32762  0.33400  1.0000
  H   H2933     1.0  0.76843  0.33303  0.22234  1.0000
  C   C2449     1.0  0.75709  0.30375  0.41761  1.0000
  H   H2934     1.0  0.75820  0.33519  0.13517  1.0000
  C   C2450     1.0  0.80441  0.33735  0.32479  1.0000
  H   H2935     1.0  0.77344  0.31112  0.42695  1.0000
  C   C2451     1.0  0.78714  0.33807  0.30759  1.0000
  H   H2936     1.0  0.76288  0.33680  0.17707  1.0000
  S   S645      1.0  0.77552  0.33527  0.42436  1.0000
  H   H2937     1.0  0.78297  0.32851  0.31846  1.0000
  H   H2938     1.0  0.78312  0.33262  0.36371  1.0000
  C   C2452     1.0  0.76003  0.32790  0.22095  1.0000
  H   H2939     1.0  0.76068  0.32387  0.00639  1.0000
  C   C2453     1.0  0.75460  0.32186  0.99253  1.0000
  H   H2940     1.0  0.79200  0.33856  0.28525  1.0000
  H   H2941     1.0  0.75862  0.29502  0.41985  1.0000
  C   C2454     1.0  0.75665  0.33007  0.19498  1.0000
  H   H2942     1.0  0.75504  0.33109  0.33806  1.0000
  H   H2943     1.0  0.75527  0.31760  0.26513  1.0000
  H   H2944     1.0  0.81025  0.33877  0.30288  1.0000
  C   C2455     1.0  0.76570  0.32258  0.92144  1.0000
  C   C2456     1.0  0.76680  0.31121  0.92038  1.0000
  H   H2945     1.0  0.76247  0.32572  0.82145  1.0000
  H   H2946     1.0  0.77490  0.30890  0.92266  1.0000
  S   S646      1.0  0.77780  0.33234  0.92843  1.0000
  C   C2457     1.0  0.75763  0.30272  0.91635  1.0000
  H   H2947     1.0  0.75887  0.29406  0.91535  1.0000
  C   C2458     1.0  0.75635  0.33774  0.61747  1.0000
  H   H2948     1.0  0.75865  0.33229  0.68619  1.0000
  C   C2459     1.0  0.75502  0.32530  0.91854  1.0000
  H   H2949     1.0  0.75722  0.31487  0.98258  1.0000
  C   C2460     1.0  0.75688  0.32897  0.80760  1.0000
  H   H2950     1.0  0.75636  0.32985  0.97434  1.0000
  H   H2951     1.0  0.75595  0.32329  0.79231  1.0000
  C   C2461     1.0  0.76122  0.33759  0.64105  1.0000
  H   H2952     1.0  0.76209  0.33802  0.79477  1.0000
  C   C2462     1.0  0.75425  0.33194  0.66906  1.0000
  H   H2953     1.0  0.75396  0.33402  0.91942  1.0000
  S   S647      1.0  0.81738  0.49404  0.01146  1.0000
  H   H2954     1.0  0.96721  0.59451  0.47530  1.0000
  S   S648      1.0  0.94444  0.53804  0.45751  1.0000
  H   H2955     1.0  0.81607  0.39794  0.34772  1.0000
  S   S649      1.0  0.92676  0.55523  0.46441  1.0000
  H   H2956     1.0  0.80226  0.43747  0.07843  1.0000
  Fe  Fe323     1.0  0.93708  0.54963  0.42758  1.0000
  S   S650      1.0  0.95213  0.56132  0.38904  1.0000
  H   H2957     1.0  0.79532  0.41380  0.00806  1.0000
  H   H2958     1.0  0.93432  0.49330  0.21979  1.0000
  S   S651      1.0  0.92193  0.53466  0.42851  1.0000
  Fe  Fe324     1.0  0.77320  0.39015  0.17537  1.0000
  Fe  Fe325     1.0  0.89119  0.45598  0.42829  1.0000
  H   H2959     1.0  0.88768  0.51001  0.02556  1.0000
  H   H2960     1.0  0.92566  0.56733  0.06899  1.0000
  Fe  Fe326     1.0  0.90284  0.43937  0.40119  1.0000
  S   S652      1.0  0.89397  0.42409  0.44101  1.0000
  S   S653      1.0  0.91847  0.44115  0.36347  1.0000
  Fe  Fe327     1.0  0.87737  0.43034  0.43969  1.0000
  S   S654      1.0  0.85753  0.42063  0.45096  1.0000
  H   H2961     1.0  0.86380  0.52640  0.01378  1.0000
  H   H2962     1.0  0.84060  0.44025  0.44935  1.0000
  S   S655      1.0  0.88616  0.44485  0.39866  1.0000
  S   S656      1.0  0.90852  0.45181  0.42771  1.0000
  Fe  Fe328     1.0  0.97117  0.57073  0.21632  1.0000
  S   S657      1.0  0.97982  0.58492  0.17415  1.0000
  S   S658      1.0  0.95578  0.57022  0.25333  1.0000
  Fe  Fe329     1.0  0.98265  0.55309  0.19417  1.0000
  S   S659      1.0  0.99207  0.56561  0.15136  1.0000
  S   S660      1.0  0.98364  0.53430  0.20587  1.0000
  Fe  Fe330     1.0  0.99649  0.57897  0.17697  1.0000
  H   H2963     1.0  0.80678  0.40044  0.09039  1.0000
  Fe  Fe331     1.0  0.97498  0.57042  0.15149  1.0000
  S   S661      1.0  0.96959  0.57328  0.10826  1.0000
  S   S662      1.0  0.98801  0.56575  0.22021  1.0000
  S   S663      1.0  0.96526  0.55695  0.19326  1.0000
  Fe  Fe332     1.0  0.93716  0.46039  0.19059  1.0000
  S   S664      1.0  0.92199  0.44835  0.22832  1.0000
  Fe  Fe333     1.0  0.94619  0.48649  0.15866  1.0000
  S   S665      1.0  0.95727  0.48322  0.11990  1.0000
  S   S666      1.0  0.94487  0.50495  0.15890  1.0000
  Fe  Fe334     1.0  0.94179  0.46783  0.12343  1.0000
  S   S667      1.0  0.93244  0.46640  0.08628  1.0000
  S   S668      1.0  0.93043  0.47240  0.15998  1.0000
  S   S669      1.0  0.95209  0.47502  0.19205  1.0000
  H   H2964     1.0  0.91784  0.49889  0.34216  1.0000
  H   H2965     1.0  0.89874  0.49991  0.41177  1.0000
  S   S670      1.0  0.78353  0.40916  0.15674  1.0000
  Fe  Fe335     1.0  0.83250  0.49274  0.46281  1.0000
  H   H2966     1.0  0.94714  0.51271  0.00705  1.0000
  S   S671      1.0  0.85270  0.49952  0.44739  1.0000
  C   C2463     1.0  0.80084  0.43764  0.03526  1.0000
  H   H2967     1.0  0.78552  0.50122  0.40271  1.0000
  H   H2968     1.0  0.76096  0.49597  0.01178  1.0000
  C   C2464     1.0  0.86800  0.47132  0.04136  1.0000
  C   C2465     1.0  0.83159  0.39529  0.41711  1.0000
  Fe  Fe336     1.0  0.81470  0.47200  0.45346  1.0000
  S   S672      1.0  0.81188  0.45810  0.42865  1.0000
  H   H2969     1.0  0.92033  0.43269  0.45411  1.0000
  S   S673      1.0  0.82034  0.49150  0.43298  1.0000
  Fe  Fe337     1.0  0.77872  0.45137  0.27405  1.0000
  S   S674      1.0  0.78768  0.47079  0.25841  1.0000
  C   C2466     1.0  0.76129  0.41546  0.33639  1.0000
  Fe  Fe338     1.0  0.80081  0.44440  0.25071  1.0000
  S   S675      1.0  0.81179  0.46322  0.23229  1.0000
  S   S676      1.0  0.80669  0.42781  0.24936  1.0000
  Fe  Fe339     1.0  0.80270  0.46591  0.27466  1.0000
  S   S677      1.0  0.81288  0.47749  0.29755  1.0000
  Fe  Fe340     1.0  0.79583  0.46644  0.21761  1.0000
  S   S678      1.0  0.79459  0.47736  0.17540  1.0000
  S   S679      1.0  0.79293  0.44679  0.29411  1.0000
  S   S680      1.0  0.78573  0.44738  0.23215  1.0000
  C   C2467     1.0  0.81188  0.46366  0.39255  1.0000
  C   C2468     1.0  0.80420  0.45708  0.37993  1.0000
  C   C2469     1.0  0.80437  0.46125  0.35079  1.0000
  C   C2470     1.0  0.81236  0.47192  0.33408  1.0000
  C   C2471     1.0  0.81995  0.47854  0.34684  1.0000
  C   C2472     1.0  0.81970  0.47445  0.37601  1.0000
  H   H2970     1.0  0.79813  0.44871  0.39267  1.0000
  H   H2971     1.0  0.79835  0.45617  0.34131  1.0000
  H   H2972     1.0  0.82609  0.48686  0.33406  1.0000
  H   H2973     1.0  0.82572  0.47954  0.38551  1.0000
  C   C2473     1.0  0.81978  0.41646  0.30263  1.0000
  S   S681      1.0  0.89016  0.47480  0.42042  1.0000
  C   C2474     1.0  0.79894  0.47903  0.11744  1.0000
  C   C2475     1.0  0.79991  0.47293  0.14419  1.0000
  C   C2476     1.0  0.80504  0.46341  0.14567  1.0000
  C   C2477     1.0  0.80943  0.46016  0.12036  1.0000
  C   C2478     1.0  0.78064  0.35794  0.06959  1.0000
  H   H2974     1.0  0.79487  0.48633  0.11629  1.0000
  H   H2975     1.0  0.80581  0.45869  0.16625  1.0000
  H   H2976     1.0  0.81354  0.45287  0.12158  1.0000
  C   C2479     1.0  0.79086  0.41408  0.18149  1.0000
  C   C2480     1.0  0.79663  0.42609  0.17615  1.0000
  C   C2481     1.0  0.80165  0.43024  0.19691  1.0000
  C   C2482     1.0  0.80128  0.42234  0.22261  1.0000
  C   C2483     1.0  0.79607  0.41022  0.22739  1.0000
  C   C2484     1.0  0.79071  0.40611  0.20697  1.0000
  H   H2977     1.0  0.79719  0.43225  0.15616  1.0000
  H   H2978     1.0  0.80588  0.43957  0.19300  1.0000
  H   H2979     1.0  0.79582  0.40409  0.24722  1.0000
  H   H2980     1.0  0.78640  0.39681  0.21101  1.0000
  H   H2981     1.0  0.92896  0.47265  0.24912  1.0000
  H   H2982     1.0  0.89446  0.42397  0.06647  1.0000
  S   S682      1.0  0.94811  0.45511  0.15415  1.0000
  C   C2485     1.0  0.93199  0.58478  0.17493  1.0000
  C   C2486     1.0  0.75659  0.43073  0.26026  1.0000
  H   H2983     1.0  0.77920  0.39608  0.29262  1.0000
  C   C2487     1.0  0.76180  0.50791  0.45088  1.0000
  C   C2488     1.0  0.77330  0.50945  0.45429  1.0000
  C   C2489     1.0  0.77811  0.49978  0.46004  1.0000
  C   C2490     1.0  0.77111  0.48835  0.46248  1.0000
  S   S683      1.0  0.75667  0.35722  0.20133  1.0000
  H   H2984     1.0  0.89817  0.49666  0.01267  1.0000
  H   H2985     1.0  0.77856  0.51829  0.45228  1.0000
  H   H2986     1.0  0.96683  0.42626  0.47262  1.0000
  H   H2987     1.0  0.79742  0.51104  0.07090  1.0000
  C   C2491     1.0  0.97384  0.52604  0.19055  1.0000
  C   C2492     1.0  0.96874  0.53182  0.17049  1.0000
  C   C2493     1.0  0.95978  0.52530  0.16106  1.0000
  C   C2494     1.0  0.95624  0.51293  0.17066  1.0000
  C   C2495     1.0  0.96170  0.50712  0.18982  1.0000
  C   C2496     1.0  0.97046  0.51366  0.19984  1.0000
  H   H2988     1.0  0.97173  0.54132  0.16201  1.0000
  H   H2989     1.0  0.95569  0.52985  0.14601  1.0000
  H   H2990     1.0  0.95899  0.49762  0.19759  1.0000
  H   H2991     1.0  0.97446  0.50913  0.21512  1.0000
  C   C2497     1.0  0.76004  0.47075  0.18965  1.0000
  S   S684      1.0  0.88140  0.44225  0.46916  1.0000
  C   C2498     1.0  0.95572  0.52902  0.03624  1.0000
  C   C2499     1.0  0.77401  0.36078  0.09312  1.0000
  C   C2500     1.0  0.79396  0.49066  0.34475  1.0000
  Fe  Fe341     1.0  0.92857  0.52363  0.46123  1.0000
  N   N166      1.0  0.93790  0.43594  0.42668  1.0000
  H   H2992     1.0  0.87599  0.46839  0.03970  1.0000
  C   C2501     1.0  0.77506  0.38111  0.32947  1.0000
  C   C2502     1.0  0.90060  0.48314  0.43402  1.0000
  C   C2503     1.0  0.84781  0.41097  0.43699  1.0000
  C   C2504     1.0  0.83569  0.40696  0.45139  1.0000
  C   C2505     1.0  0.91851  0.49671  0.45215  1.0000
  N   N167      1.0  0.94146  0.50873  0.05370  1.0000
  H   H2993     1.0  0.76260  0.42198  0.31548  1.0000
  H   H2994     1.0  0.90472  0.48960  0.36760  1.0000
  C   C2506     1.0  0.91770  0.44499  0.02501  1.0000
  C   C2507     1.0  0.92391  0.44020  0.04411  1.0000
  C   C2508     1.0  0.92850  0.44656  0.06278  1.0000
  C   C2509     1.0  0.92703  0.45793  0.06271  1.0000
  C   C2510     1.0  0.92086  0.46274  0.04352  1.0000
  C   C2511     1.0  0.91622  0.45634  0.02497  1.0000
  H   H2995     1.0  0.92511  0.43143  0.04463  1.0000
  H   H2996     1.0  0.93320  0.44264  0.07717  1.0000
  H   H2997     1.0  0.91961  0.47149  0.04302  1.0000
  H   H2998     1.0  0.81031  0.35917  0.34270  1.0000
  C   C2512     1.0  0.91912  0.44368  0.32595  1.0000
  C   C2513     1.0  0.90898  0.44150  0.31572  1.0000
  C   C2514     1.0  0.91000  0.44306  0.28581  1.0000
  C   C2515     1.0  0.92113  0.44708  0.26570  1.0000
  C   C2516     1.0  0.93125  0.44961  0.27591  1.0000
  C   C2517     1.0  0.93024  0.44780  0.30584  1.0000
  H   H2999     1.0  0.90037  0.43825  0.33088  1.0000
  H   H3000     1.0  0.90212  0.44102  0.27821  1.0000
  H   H3001     1.0  0.93987  0.45264  0.26079  1.0000
  H   H3002     1.0  0.93816  0.44950  0.31342  1.0000
  C   C2518     1.0  0.77797  0.44178  0.12505  1.0000
  C   C2519     1.0  0.96432  0.53812  0.03989  1.0000
  C   C2520     1.0  0.97059  0.57700  0.48403  1.0000
  C   C2521     1.0  0.86345  0.51003  0.45649  1.0000
  C   C2522     1.0  0.87551  0.51078  0.44609  1.0000
  C   C2523     1.0  0.88438  0.51908  0.45216  1.0000
  H   H3003     1.0  0.76993  0.45634  0.09431  1.0000
  C   C2524     1.0  0.95929  0.42997  0.47307  1.0000
  H   H3004     1.0  0.77116  0.46646  0.21732  1.0000
  H   H3005     1.0  0.89358  0.51949  0.44401  1.0000
  C   C2525     1.0  0.95289  0.56302  0.35154  1.0000
  C   C2526     1.0  0.96403  0.56635  0.33160  1.0000
  C   C2527     1.0  0.96508  0.56836  0.30158  1.0000
  C   C2528     1.0  0.95499  0.56737  0.29103  1.0000
  C   C2529     1.0  0.94384  0.56403  0.31097  1.0000
  C   C2530     1.0  0.94278  0.56172  0.34103  1.0000
  H   H3006     1.0  0.97193  0.56748  0.33940  1.0000
  H   H3007     1.0  0.97372  0.57100  0.28660  1.0000
  H   H3008     1.0  0.93596  0.56329  0.30315  1.0000
  H   H3009     1.0  0.93415  0.55930  0.35599  1.0000
  C   C2531     1.0  0.94473  0.55250  0.06292  1.0000
  C   C2532     1.0  0.94405  0.54807  0.09242  1.0000
  C   C2533     1.0  0.95177  0.55403  0.10646  1.0000
  C   C2534     1.0  0.96028  0.56464  0.09126  1.0000
  C   C2535     1.0  0.96112  0.56894  0.06163  1.0000
  C   C2536     1.0  0.95346  0.56292  0.04754  1.0000
  H   H3010     1.0  0.93742  0.53998  0.10461  1.0000
  H   H3011     1.0  0.95096  0.55053  0.12916  1.0000
  H   H3012     1.0  0.96763  0.57712  0.04953  1.0000
  C   C2537     1.0  0.94528  0.50526  0.02653  1.0000
  C   C2538     1.0  0.79051  0.48118  0.39538  1.0000
  C   C2539     1.0  0.89650  0.43770  0.08901  1.0000
  H   H3013     1.0  0.91872  0.46733  0.34643  1.0000
  H   H3014     1.0  0.92831  0.51686  0.07181  1.0000
  C   C2540     1.0  0.90651  0.47755  0.45230  1.0000
  H   H3015     1.0  0.99223  0.52565  0.14008  1.0000
  C   C2541     1.0  0.80375  0.37492  0.27266  1.0000
  C   C2542     1.0  0.88130  0.52679  0.46875  1.0000
  C   C2543     1.0  0.77659  0.38651  0.30023  1.0000
  H   H3016     1.0  0.96721  0.54670  0.02432  1.0000
  N   N168      1.0  0.95385  0.53046  0.28178  1.0000
  C   C2544     1.0  0.95502  0.52146  0.26508  1.0000
  C   C2545     1.0  0.94541  0.53678  0.27175  1.0000
  C   C2546     1.0  0.96561  0.53904  0.27448  1.0000
  C   C2547     1.0  0.94968  0.52538  0.31346  1.0000
  C   C2548     1.0  0.94660  0.51298  0.32664  1.0000
  C   C2549     1.0  0.94841  0.53296  0.33219  1.0000
  C   C2550     1.0  0.94244  0.50858  0.35670  1.0000
  C   C2551     1.0  0.94426  0.52848  0.36212  1.0000
  C   C2552     1.0  0.94125  0.51631  0.37437  1.0000
  H   H3017     1.0  0.94648  0.51483  0.26871  1.0000
  H   H3018     1.0  0.95801  0.52562  0.24138  1.0000
  H   H3019     1.0  0.96177  0.51680  0.27029  1.0000
  H   H3020     1.0  0.93638  0.53074  0.27739  1.0000
  H   H3021     1.0  0.94816  0.54062  0.24793  1.0000
  H   H3022     1.0  0.94478  0.54437  0.28141  1.0000
  H   H3023     1.0  0.97210  0.53483  0.28297  1.0000
  H   H3024     1.0  0.96927  0.54254  0.25070  1.0000
  H   H3025     1.0  0.96533  0.54694  0.28311  1.0000
  H   H3026     1.0  0.94744  0.50653  0.31425  1.0000
  H   H3027     1.0  0.95063  0.54246  0.32380  1.0000
  H   H3028     1.0  0.94022  0.49914  0.36654  1.0000
  H   H3029     1.0  0.94341  0.53453  0.37589  1.0000
  H   H3030     1.0  0.93807  0.51289  0.39766  1.0000
  H   H3031     1.0  0.95259  0.43635  0.39227  1.0000
  Fe  Fe342     1.0  0.78073  0.35492  0.42429  1.0000
  H   H3032     1.0  0.94842  0.57375  0.19065  1.0000
  C   C2553     1.0  0.81452  0.42079  0.34920  1.0000
  H   H3033     1.0  0.81518  0.39063  0.27676  1.0000
  C   C2554     1.0  0.81721  0.43335  0.33989  1.0000
  H   H3034     1.0  0.80070  0.39639  0.02045  1.0000
  C   C2555     1.0  0.82066  0.44051  0.35765  1.0000
  C   C2556     1.0  0.82135  0.43544  0.38530  1.0000
  H   H3035     1.0  0.77604  0.38376  0.25819  1.0000
  H   H3036     1.0  0.78441  0.35965  0.02352  1.0000
  C   C2557     1.0  0.76988  0.47410  0.37031  1.0000
  C   C2558     1.0  0.85172  0.40724  0.41220  1.0000
  C   C2559     1.0  0.80062  0.35656  0.31011  1.0000
  H   H3037     1.0  0.81653  0.43774  0.31888  1.0000
  H   H3038     1.0  0.96828  0.52411  0.10343  1.0000
  H   H3039     1.0  0.80180  0.37950  0.25335  1.0000
  H   H3040     1.0  0.77574  0.46874  0.36435  1.0000
  C   C2560     1.0  0.78800  0.34207  0.35334  1.0000
  C   C2561     1.0  0.90341  0.49552  0.42553  1.0000
  H   H3041     1.0  0.81843  0.39608  0.45326  1.0000
  H   H3042     1.0  0.91452  0.51177  0.42752  1.0000
  S   S685      1.0  0.78269  0.37591  0.18220  1.0000
  H   H3043     1.0  0.80258  0.48055  0.07158  1.0000
  N   N169      1.0  0.85018  0.45797  0.42367  1.0000
  C   C2562     1.0  0.86139  0.45659  0.43066  1.0000
  C   C2563     1.0  0.84953  0.47027  0.42396  1.0000
  C   C2564     1.0  0.84017  0.44963  0.44674  1.0000
  C   C2565     1.0  0.84975  0.45520  0.39564  1.0000
  C   C2566     1.0  0.84765  0.46311  0.37241  1.0000
  C   C2567     1.0  0.85139  0.44422  0.39100  1.0000
  C   C2568     1.0  0.84769  0.46032  0.34594  1.0000
  C   C2569     1.0  0.85139  0.44150  0.36451  1.0000
  C   C2570     1.0  0.84965  0.44958  0.34192  1.0000
  Fe  Fe343     1.0  0.89860  0.43729  0.46736  1.0000
  H   H3044     1.0  0.75746  0.37545  0.05787  1.0000
  H   H3045     1.0  0.78622  0.52425  0.05164  1.0000
  H   H3046     1.0  0.84090  0.47172  0.42117  1.0000
  H   H3047     1.0  0.85681  0.47699  0.40691  1.0000
  H   H3048     1.0  0.84796  0.51389  0.99866  1.0000
  H   H3049     1.0  0.80458  0.38735  0.07773  1.0000
  H   H3050     1.0  0.77533  0.43871  0.10668  1.0000
  H   H3051     1.0  0.83157  0.45015  0.44192  1.0000
  H   H3052     1.0  0.84589  0.47149  0.37416  1.0000
  H   H3053     1.0  0.85264  0.43760  0.40794  1.0000
  H   H3054     1.0  0.84601  0.46646  0.32858  1.0000
  Fe  Fe344     1.0  0.81447  0.47431  0.02006  1.0000
  C   C2571     1.0  0.84659  0.46541  0.05489  1.0000
  H   H3055     1.0  0.80094  0.39756  0.36326  1.0000
  N   N170      1.0  0.94137  0.58139  0.15605  1.0000
  C   C2572     1.0  0.80276  0.51209  0.04864  1.0000
  S   S686      1.0  0.75958  0.38291  0.21804  1.0000
  H   H3056     1.0  0.76624  0.47061  0.17030  1.0000
  H   H3057     1.0  0.97761  0.56161  0.45289  1.0000
  H   H3058     1.0  0.78490  0.39436  0.03267  1.0000
  C   C2573     1.0  0.93109  0.51357  0.05240  1.0000
  H   H3059     1.0  0.85261  0.43299  0.36172  1.0000
  H   H3060     1.0  0.97198  0.59145  0.43085  1.0000
  H   H3061     1.0  0.93503  0.58771  0.19308  1.0000
  C   C2574     1.0  0.80835  0.36325  0.32299  1.0000
  C   C2575     1.0  0.94438  0.57125  0.17336  1.0000
  H   H3062     1.0  0.79606  0.41013  0.31028  1.0000
  C   C2576     1.0  0.84367  0.39946  0.40241  1.0000
  N   N171      1.0  0.79492  0.39961  0.06236  1.0000
  C   C2577     1.0  0.79864  0.41983  0.07206  1.0000
  H   H3063     1.0  0.92343  0.50684  0.05073  1.0000
  H   H3064     1.0  0.76479  0.42044  0.35113  1.0000
  C   C2578     1.0  0.86814  0.48348  0.03240  1.0000
  Fe  Fe345     1.0  0.77740  0.37309  0.45839  1.0000
  Fe  Fe346     1.0  0.92992  0.54400  0.00302  1.0000
  H   H3065     1.0  0.95229  0.53092  0.01752  1.0000
  H   H3066     1.0  0.81360  0.40122  0.05350  1.0000
  H   H3067     1.0  0.82377  0.44106  0.39919  1.0000
  C   C2579     1.0  0.81564  0.41590  0.37727  1.0000
  H   H3068     1.0  0.79174  0.38358  0.04769  1.0000
  S   S687      1.0  0.98242  0.47218  0.14859  1.0000
  C   C2580     1.0  0.76545  0.36684  0.08889  1.0000
  C   C2581     1.0  0.80543  0.39707  0.07136  1.0000
  C   C2582     1.0  0.85701  0.48611  0.03468  1.0000
  S   S688      1.0  0.76175  0.38157  0.15029  1.0000
  C   C2583     1.0  0.81359  0.37537  0.31101  1.0000
  C   C2584     1.0  0.76124  0.42807  0.16013  1.0000
  C   C2585     1.0  0.86036  0.51768  0.47322  1.0000
  H   H3069     1.0  0.80088  0.42506  0.31172  1.0000
  Fe  Fe347     1.0  0.76813  0.36788  0.22290  1.0000
  H   H3070     1.0  0.98119  0.49418  0.16649  1.0000
  H   H3071     1.0  0.79971  0.50450  0.37872  1.0000
  H   H3072     1.0  0.86097  0.41019  0.40080  1.0000
  Fe  Fe348     1.0  0.80250  0.49094  0.98943  1.0000
  Fe  Fe349     1.0  0.91204  0.53900  0.46760  1.0000
  H   H3073     1.0  0.76702  0.40945  0.33229  1.0000
  C   C2586     1.0  0.80872  0.46644  0.09352  1.0000
  C   C2587     1.0  0.80334  0.47580  0.09213  1.0000
  C   C2588     1.0  0.91234  0.50228  0.43459  1.0000
  H   H3074     1.0  0.99589  0.50421  0.09557  1.0000
  C   C2589     1.0  0.89007  0.48911  0.02135  1.0000
  H   H3075     1.0  0.79998  0.48436  0.39511  1.0000
  C   C2590     1.0  0.90938  0.49236  0.34422  1.0000
  H   H3076     1.0  0.90365  0.49689  0.33322  1.0000
  C   C2591     1.0  0.95626  0.51631  0.08101  1.0000
  H   H3077     1.0  0.91369  0.47393  0.37443  1.0000
  N   N172      1.0  0.78693  0.48961  0.37430  1.0000
  C   C2592     1.0  0.79008  0.50144  0.38036  1.0000
  H   H3078     1.0  0.78938  0.47230  0.39093  1.0000
  C   C2593     1.0  0.77128  0.36717  0.29046  1.0000
  C   C2594     1.0  0.91807  0.47599  0.35090  1.0000
  H   H3079     1.0  0.89432  0.47148  0.35995  1.0000
  H   H3080     1.0  0.83251  0.40975  0.47056  1.0000
  H   H3081     1.0  0.78376  0.45101  0.11693  1.0000
  H   H3082     1.0  0.78521  0.47995  0.41777  1.0000
  H   H3083     1.0  0.89731  0.44952  0.16242  1.0000
  N   N173      1.0  0.91138  0.48207  0.33298  1.0000
  H   H3084     1.0  0.91893  0.50452  0.29257  1.0000
  H   H3085     1.0  0.90950  0.45136  0.17853  1.0000
  H   H3086     1.0  0.85636  0.49507  0.02733  1.0000
  C   C2595     1.0  0.77419  0.48516  0.37632  1.0000
  C   C2596     1.0  0.81124  0.38121  0.28594  1.0000
  C   C2597     1.0  0.90665  0.44909  0.15951  1.0000
  H   H3087     1.0  0.91228  0.45621  0.14022  1.0000
  H   H3088     1.0  0.92720  0.48156  0.34713  1.0000
  H   H3089     1.0  0.75772  0.42436  0.14352  1.0000
  Fe  Fe350     1.0  0.80176  0.37692  0.41872  1.0000
  N   N174      1.0  0.76750  0.44085  0.14853  1.0000
  S   S689      1.0  0.82190  0.38525  0.40393  1.0000
  C   C2598     1.0  0.89967  0.47381  0.33713  1.0000
  H   H3090     1.0  0.89451  0.47779  0.32314  1.0000
  N   N175      1.0  0.96676  0.57368  0.45910  1.0000
  C   C2599     1.0  0.76394  0.37055  0.06108  1.0000
  H   H3091     1.0  0.89142  0.42763  0.18757  1.0000
  H   H3092     1.0  0.90361  0.43130  0.20344  1.0000
  C   C2600     1.0  0.91785  0.48543  0.30204  1.0000
  C   C2601     1.0  0.92103  0.49726  0.28440  1.0000
  H   H3093     1.0  0.90043  0.46528  0.33197  1.0000
  H   H3094     1.0  0.90714  0.41610  0.14184  1.0000
  S   S690      1.0  0.76927  0.37388  0.00269  1.0000
  C   C2602     1.0  0.92982  0.49117  0.24255  1.0000
  H   H3095     1.0  0.94467  0.49325  0.07895  1.0000
  H   H3096     1.0  0.84000  0.45162  0.46809  1.0000
  H   H3097     1.0  0.93423  0.44950  0.39587  1.0000
  C   C2603     1.0  0.90106  0.42854  0.18455  1.0000
  H   H3098     1.0  0.92392  0.44020  0.17116  1.0000
  N   N176      1.0  0.90793  0.43720  0.15687  1.0000
  H   H3099     1.0  0.80234  0.44364  0.48587  1.0000
  H   H3100     1.0  0.93435  0.49969  0.09896  1.0000
  H   H3101     1.0  0.80487  0.39520  0.32845  1.0000
  H   H3102     1.0  0.86268  0.45979  0.44999  1.0000
  C   C2604     1.0  0.90406  0.42229  0.12779  1.0000
  C   C2605     1.0  0.96824  0.56192  0.45580  1.0000
  H   H3103     1.0  0.82827  0.41500  0.30648  1.0000
  C   C2606     1.0  0.92059  0.43751  0.15312  1.0000
  H   H3104     1.0  0.90101  0.41022  0.10095  1.0000
  H   H3105     1.0  0.92607  0.44392  0.13249  1.0000
  C   C2607     1.0  0.92089  0.47665  0.28842  1.0000
  H   H3106     1.0  0.91859  0.46745  0.30020  1.0000
  C   C2608     1.0  0.90390  0.43365  0.13239  1.0000
  H   H3107     1.0  0.95085  0.57062  0.44444  1.0000
  C   C2609     1.0  0.90055  0.41881  0.10449  1.0000
  H   H3108     1.0  0.90256  0.41959  0.18590  1.0000
  C   C2610     1.0  0.92690  0.50001  0.25507  1.0000
  H   H3109     1.0  0.92069  0.42887  0.42062  1.0000
  C   C2611     1.0  0.78446  0.39449  0.08740  1.0000
  C   C2612     1.0  0.97364  0.58258  0.43179  1.0000
  H   H3110     1.0  0.92912  0.50901  0.24169  1.0000
  Fe  Fe351     1.0  0.78080  0.37968  0.39356  1.0000
  C   C2613     1.0  0.82765  0.39918  0.44161  1.0000
  H   H3111     1.0  0.89397  0.44379  0.07322  1.0000
  C   C2614     1.0  0.92681  0.47952  0.25916  1.0000
  C   C2615     1.0  0.89677  0.42650  0.08514  1.0000
  C   C2616     1.0  0.90006  0.44131  0.11210  1.0000
  H   H3112     1.0  0.92229  0.42874  0.15266  1.0000
  H   H3113     1.0  0.90007  0.45028  0.11300  1.0000
  S   S691      1.0  0.81461  0.46244  0.06207  1.0000
  Fe  Fe352     1.0  0.96271  0.47108  0.15333  1.0000
  C   C2617     1.0  0.76176  0.45492  0.11033  1.0000
  H   H3114     1.0  0.77470  0.48079  0.46694  1.0000
  S   S692      1.0  0.91148  0.43614  0.00307  1.0000
  H   H3115     1.0  0.95355  0.50815  0.09779  1.0000
  C   C2618     1.0  0.76283  0.46847  0.21617  1.0000
  H   H3116     1.0  0.76668  0.35227  0.32760  1.0000
  H   H3117     1.0  0.93004  0.49115  0.07483  1.0000
  C   C2619     1.0  0.87928  0.50282  0.03431  1.0000
  C   C2620     1.0  0.93749  0.49778  0.07775  1.0000
  H   H3118     1.0  0.92249  0.56303  0.15925  1.0000
  H   H3119     1.0  0.85116  0.51737  0.48105  1.0000
  H   H3120     1.0  0.83833  0.45854  0.06345  1.0000
  C   C2621     1.0  0.79887  0.43085  0.01578  1.0000
  H   H3121     1.0  0.79251  0.41396  0.34416  1.0000
  C   C2622     1.0  0.80067  0.43214  0.06336  1.0000
  C   C2623     1.0  0.95120  0.51791  0.05706  1.0000
  H   H3122     1.0  0.92927  0.59217  0.16247  1.0000
  C   C2624     1.0  0.77085  0.36811  0.03735  1.0000
  H   H3123     1.0  0.89134  0.48263  0.00824  1.0000
  H   H3124     1.0  0.77025  0.36452  0.36180  1.0000
  H   H3125     1.0  0.78301  0.38475  0.09548  1.0000
  H   H3126     1.0  0.88991  0.48508  0.04407  1.0000
  H   H3127     1.0  0.76004  0.36876  0.10694  1.0000
  H   H3128     1.0  0.78721  0.35316  0.07276  1.0000
  C   C2625     1.0  0.80809  0.40048  0.34298  1.0000
  Fe  Fe353     1.0  0.80601  0.49206  0.47015  1.0000
  H   H3129     1.0  0.95076  0.56793  0.15928  1.0000
  H   H3130     1.0  0.81773  0.53251  0.04463  1.0000
  H   H3131     1.0  0.81392  0.40647  0.38623  1.0000
  H   H3132     1.0  0.94285  0.58462  0.05774  1.0000
  C   C2626     1.0  0.79300  0.39330  0.03970  1.0000
  C   C2627     1.0  0.94258  0.58385  0.10235  1.0000
  H   H3133     1.0  0.95514  0.59393  0.16524  1.0000
  C   C2628     1.0  0.92709  0.56807  0.13745  1.0000
  H   H3134     1.0  0.77630  0.39606  0.08157  1.0000
  H   H3135     1.0  0.82152  0.42584  0.29038  1.0000
  C   C2629     1.0  0.81897  0.42317  0.39497  1.0000
  H   H3136     1.0  0.95037  0.59968  0.13416  1.0000
  C   C2630     1.0  0.95207  0.59158  0.14657  1.0000
  S   S693      1.0  0.79307  0.50304  0.46208  1.0000
  H   H3137     1.0  0.95962  0.58951  0.13296  1.0000
  H   H3138     1.0  0.81703  0.41108  0.28780  1.0000
  S   S694      1.0  0.93418  0.54490  0.04692  1.0000
  S   S695      1.0  0.77705  0.38987  0.35391  1.0000
  C   C2631     1.0  0.96874  0.53643  0.06420  1.0000
  H   H3139     1.0  0.79291  0.35849  0.27275  1.0000
  H   H3140     1.0  0.93655  0.56365  0.18435  1.0000
  H   H3141     1.0  0.92396  0.57729  0.18494  1.0000
  C   C2632     1.0  0.93831  0.58018  0.08010  1.0000
  C   C2633     1.0  0.93707  0.57787  0.13183  1.0000
  H   H3142     1.0  0.91136  0.46013  0.01085  1.0000
  C   C2634     1.0  0.92300  0.56440  0.11500  1.0000
  H   H3143     1.0  0.95043  0.59115  0.09575  1.0000
  H   H3144     1.0  0.76456  0.44421  0.19098  1.0000
  C   C2635     1.0  0.75790  0.46970  0.37203  1.0000
  H   H3145     1.0  0.95416  0.56651  0.02491  1.0000
  C   C2636     1.0  0.92861  0.57043  0.08639  1.0000
  S   S696      1.0  0.82761  0.47295  0.48054  1.0000
  S   S697      1.0  0.79013  0.36167  0.45603  1.0000
  H   H3146     1.0  0.81967  0.41924  0.41638  1.0000
  N   N177      1.0  0.81057  0.41342  0.33019  1.0000
  H   H3147     1.0  0.80360  0.49416  0.34219  1.0000
  H   H3148     1.0  0.87224  0.50733  0.03129  1.0000
  C   C2637     1.0  0.77472  0.37955  0.28074  1.0000
  S   S698      1.0  0.75945  0.44515  0.29709  1.0000
  S   S699      1.0  0.78940  0.38859  0.42313  1.0000
  C   C2638     1.0  0.79955  0.41576  0.32388  1.0000
  H   H3149     1.0  0.99657  0.50993  0.17430  1.0000
  H   H3150     1.0  0.98970  0.53760  0.09535  1.0000
  C   C2639     1.0  0.85735  0.46247  0.05252  1.0000
  H   H3151     1.0  0.91560  0.55668  0.11967  1.0000
  C   C2640     1.0  0.77184  0.44530  0.17170  1.0000
  H   H3152     1.0  0.75835  0.51559  0.44645  1.0000
  C   C2641     1.0  0.79671  0.41261  0.05274  1.0000
  H   H3153     1.0  0.76539  0.42990  0.26006  1.0000
  Fe  Fe354     1.0  0.77027  0.36673  0.15992  1.0000
  H   H3154     1.0  0.93299  0.52118  0.03332  1.0000
  C   C2642     1.0  0.95408  0.57323  0.46269  1.0000
  H   H3155     1.0  0.86909  0.46174  0.41233  1.0000
  H   H3156     1.0  0.94763  0.45410  0.40658  1.0000
  H   H3157     1.0  0.79867  0.41602  0.09409  1.0000
  H   H3158     1.0  0.78537  0.39824  0.10612  1.0000
  H   H3159     1.0  0.84688  0.39653  0.38349  1.0000
  H   H3160     1.0  0.77809  0.44045  0.17938  1.0000
  H   H3161     1.0  0.93847  0.43208  0.38514  1.0000
  H   H3162     1.0  0.75411  0.47805  0.46037  1.0000
  S   S700      1.0  0.91410  0.52871  0.00941  1.0000
  H   H3163     1.0  0.79131  0.49668  0.32818  1.0000
  C   C2643     1.0  0.77162  0.36874  0.33917  1.0000
  H   H3164     1.0  0.85046  0.47233  0.44476  1.0000
  H   H3165     1.0  0.75688  0.39297  0.32274  1.0000
  H   H3166     1.0  0.93352  0.45238  0.43040  1.0000
  C   C2644     1.0  0.96486  0.52547  0.08447  1.0000
  H   H3167     1.0  0.94274  0.42171  0.41002  1.0000
  C   C2645     1.0  0.77907  0.36161  0.04170  1.0000
  C   C2646     1.0  0.92538  0.42900  0.43810  1.0000
  H   H3168     1.0  0.97126  0.57997  0.41259  1.0000
  C   C2647     1.0  0.99896  0.50240  0.16794  1.0000
  H   H3169     1.0  0.95340  0.50208  0.02610  1.0000
  S   S701      1.0  0.76939  0.35821  0.26634  1.0000
  C   C2648     1.0  0.75477  0.49666  0.45301  1.0000
  H   H3170     1.0  0.83802  0.47940  0.04749  1.0000
  S   S702      1.0  0.76739  0.36545  0.42910  1.0000
  C   C2649     1.0  0.95382  0.43040  0.45027  1.0000
  S   S703      1.0  0.79372  0.36884  0.38677  1.0000
  H   H3171     1.0  0.78358  0.43611  0.13257  1.0000
  C   C2650     1.0  0.76963  0.36180  0.31976  1.0000
  C   C2651     1.0  0.99304  0.48354  0.15565  1.0000
  C   C2652     1.0  0.75932  0.44758  0.13884  1.0000
  H   H3172     1.0  0.82271  0.45007  0.34998  1.0000
  H   H3173     1.0  0.94860  0.56671  0.48316  1.0000
  H   H3174     1.0  0.87811  0.49948  0.05793  1.0000
  C   C2653     1.0  0.79123  0.52443  0.02968  1.0000
  H   H3175     1.0  0.79291  0.48200  0.33911  1.0000
  H   H3176     1.0  0.78138  0.34736  0.35380  1.0000
  H   H3177     1.0  0.95751  0.42689  0.43286  1.0000
  S   S704      1.0  0.77687  0.35709  0.12734  1.0000
  S   S705      1.0  0.89215  0.53742  0.47717  1.0000
  H   H3178     1.0  0.86179  0.44719  0.43559  1.0000
  H   H3179     1.0  0.87804  0.50490  0.43324  1.0000
  C   C2654     1.0  0.94323  0.43131  0.40258  1.0000
  H   H3180     1.0  0.76718  0.42275  0.16749  1.0000
  H   H3181     1.0  0.79450  0.42385  0.47872  1.0000
  H   H3182     1.0  0.81940  0.38025  0.32146  1.0000
  C   C2655     1.0  0.79680  0.41850  0.02426  1.0000
  H   H3183     1.0  0.93834  0.49798  0.02396  1.0000
  H   H3184     1.0  0.00073  0.48690  0.08071  1.0000
  C   C2656     1.0  0.79860  0.36276  0.28427  1.0000
  C   C2657     1.0  0.99017  0.49342  0.16367  1.0000
  H   H3185     1.0  0.96548  0.55979  0.43656  1.0000
  H   H3186     1.0  0.90404  0.46801  0.46004  1.0000
  H   H3187     1.0  0.76805  0.49983  0.38986  1.0000
  H   H3188     1.0  0.96266  0.55465  0.47478  1.0000
  C   C2658     1.0  0.75943  0.48680  0.45885  1.0000
  C   C2659     1.0  0.84643  0.47720  0.04592  1.0000
  H   H3189     1.0  0.80257  0.44721  0.02854  1.0000
  C   C2660     1.0  0.91556  0.48433  0.46103  1.0000
  H   H3190     1.0  0.85740  0.45324  0.05916  1.0000
  H   H3191     1.0  0.84954  0.44740  0.32148  1.0000
  N   N178      1.0  0.87921  0.49307  0.01957  1.0000
  H   H3192     1.0  0.97502  0.54369  0.06753  1.0000
  S   S706      1.0  0.79897  0.47120  0.00110  1.0000
  C   C2661     1.0  0.94390  0.43520  0.45043  1.0000
  H   H3193     1.0  0.95225  0.58193  0.46341  1.0000
  H   H3194     1.0  0.77665  0.45488  0.16396  1.0000
  H   H3195     1.0  0.98330  0.58363  0.42895  1.0000
  S   S707      1.0  0.93000  0.50506  0.46289  1.0000
  H   H3196     1.0  0.78786  0.50833  0.36493  1.0000
  C   C2662     1.0  0.87997  0.49784  0.98869  1.0000
  C   C2663     1.0  0.93835  0.44852  0.41440  1.0000
  C   C2664     1.0  0.76574  0.49147  0.38429  1.0000
  H   H3197     1.0  0.81161  0.51101  0.05041  1.0000
  H   H3198     1.0  0.92464  0.41964  0.44907  1.0000
  H   H3199     1.0  0.80356  0.53353  0.06146  1.0000
  C   C2665     1.0  0.80914  0.53337  0.04043  1.0000
  H   H3200     1.0  0.79853  0.50454  0.04076  1.0000
  H   H3201     1.0  0.81073  0.54215  0.02498  1.0000
  H   H3202     1.0  0.00253  0.55795  0.07313  1.0000
  H   H3203     1.0  0.92019  0.48000  0.47495  1.0000
  C   C2666     1.0  0.86923  0.52601  0.47923  1.0000
  N   N179      1.0  0.80350  0.52361  0.02899  1.0000
  H   H3204     1.0  0.79350  0.34476  0.36791  1.0000
  C   C2667     1.0  0.99801  0.53449  0.13012  1.0000
  C   C2668     1.0  0.99656  0.54122  0.10496  1.0000
  C   C2669     1.0  0.76316  0.49237  0.99339  1.0000
  C   C2670     1.0  0.81062  0.52440  0.99974  1.0000
  H   H3205     1.0  0.78604  0.51676  0.02386  1.0000
  C   C2671     1.0  0.93984  0.43943  0.47473  1.0000
  C   C2672     1.0  0.86584  0.52416  0.99330  1.0000
  H   H3206     1.0  0.82726  0.52498  0.01209  1.0000
  H   H3207     1.0  0.75483  0.34144  0.00574  1.0000
  H   H3208     1.0  0.75786  0.46719  0.26089  1.0000
  H   H3209     1.0  0.75550  0.46609  0.07959  1.0000
  N   N180      1.0  0.79509  0.34375  0.32350  1.0000
  H   H3210     1.0  0.77977  0.34232  0.30623  1.0000
  C   C2673     1.0  0.75506  0.46898  0.24117  1.0000
  H   H3211     1.0  0.79115  0.53276  0.01465  1.0000
  H   H3212     1.0  0.79900  0.43523  0.99391  1.0000
  H   H3213     1.0  0.93227  0.44308  0.47654  1.0000
  S   S708      1.0  0.78602  0.49741  0.99938  1.0000
  H   H3214     1.0  0.75431  0.42000  0.23019  1.0000
  H   H3215     1.0  0.76176  0.34398  0.48486  1.0000
  C   C2674     1.0  0.82289  0.52510  0.99481  1.0000
  H   H3216     1.0  0.81010  0.34029  0.33874  1.0000
  H   H3217     1.0  0.75475  0.46122  0.36748  1.0000
  S   S709      1.0  0.88443  0.44208  0.96972  1.0000
  C   C2675     1.0  0.97821  0.50853  0.56222  1.0000
  C   C2676     1.0  0.90119  0.45156  0.66755  1.0000
  S   S710      1.0  0.89033  0.47460  0.92359  1.0000
  S   S711      1.0  0.92368  0.55592  0.97027  1.0000
  H   H3218     1.0  0.89632  0.49933  0.92149  1.0000
  Fe  Fe355     1.0  0.93397  0.54879  0.93606  1.0000
  S   S712      1.0  0.94857  0.55795  0.89417  1.0000
  S   S713      1.0  0.77383  0.38422  0.86184  1.0000
  S   S714      1.0  0.94373  0.54468  0.52982  1.0000
  S   S715      1.0  0.91841  0.53397  0.93858  1.0000
  H   H3219     1.0  0.84447  0.40499  0.87550  1.0000
  Fe  Fe356     1.0  0.89276  0.45624  0.92845  1.0000
  H   H3220     1.0  0.87790  0.47707  0.49331  1.0000
  H   H3221     1.0  0.96902  0.46913  0.72523  1.0000
  Fe  Fe357     1.0  0.90541  0.44099  0.89847  1.0000
  S   S716      1.0  0.89853  0.42572  0.93871  1.0000
  S   S717      1.0  0.91901  0.44089  0.85800  1.0000
  Fe  Fe358     1.0  0.88082  0.42989  0.94053  1.0000
  S   S718      1.0  0.82281  0.38673  0.90320  1.0000
  C   C2677     1.0  0.79487  0.41439  0.52097  1.0000
  H   H3222     1.0  0.85785  0.43906  0.94465  1.0000
  S   S719      1.0  0.88765  0.44467  0.89957  1.0000
  S   S720      1.0  0.91102  0.45385  0.92417  1.0000
  Fe  Fe359     1.0  0.96852  0.56765  0.71871  1.0000
  S   S721      1.0  0.97600  0.58353  0.67955  1.0000
  S   S722      1.0  0.95316  0.56523  0.75816  1.0000
  Fe  Fe360     1.0  0.98041  0.55225  0.68644  1.0000
  S   S723      1.0  0.98866  0.56676  0.64606  1.0000
  S   S724      1.0  0.98303  0.53408  0.68789  1.0000
  Fe  Fe361     1.0  0.99328  0.57816  0.67613  1.0000
  Fe  Fe362     1.0  0.90267  0.43917  0.96478  1.0000
  Fe  Fe363     1.0  0.97100  0.57077  0.65244  1.0000
  S   S725      1.0  0.96160  0.57474  0.61592  1.0000
  S   S726      1.0  0.98595  0.56299  0.71645  1.0000
  S   S727      1.0  0.96255  0.55558  0.69161  1.0000
  Fe  Fe364     1.0  0.93639  0.46083  0.68394  1.0000
  S   S728      1.0  0.92128  0.44974  0.72313  1.0000
  Fe  Fe365     1.0  0.94565  0.48627  0.64732  1.0000
  S   S729      1.0  0.95762  0.48182  0.61212  1.0000
  S   S730      1.0  0.94408  0.50489  0.64252  1.0000
  Fe  Fe366     1.0  0.94233  0.46614  0.61664  1.0000
  S   S731      1.0  0.93590  0.46440  0.57544  1.0000
  S   S732      1.0  0.93015  0.47168  0.64967  1.0000
  S   S733      1.0  0.95096  0.47606  0.68414  1.0000
  H   H3223     1.0  0.90067  0.42245  0.68052  1.0000
  C   C2678     1.0  0.89998  0.48286  0.93923  1.0000
  S   S734      1.0  0.77815  0.41223  0.66057  1.0000
  Fe  Fe367     1.0  0.82942  0.49476  0.96890  1.0000
  H   H3224     1.0  0.93495  0.50819  0.59274  1.0000
  S   S735      1.0  0.84814  0.50615  0.94513  1.0000
  C   C2679     1.0  0.82456  0.52517  0.94461  1.0000
  Fe  Fe368     1.0  0.90853  0.53991  0.97479  1.0000
  H   H3225     1.0  0.77048  0.34196  0.63758  1.0000
  H   H3226     1.0  0.77115  0.47999  0.92696  1.0000
  C   C2680     1.0  0.75502  0.44299  0.75774  1.0000
  Fe  Fe369     1.0  0.81211  0.47396  0.95902  1.0000
  S   S736      1.0  0.80800  0.46128  0.93148  1.0000
  H   H3227     1.0  0.82487  0.44401  0.93017  1.0000
  S   S737      1.0  0.81476  0.49366  0.94583  1.0000
  Fe  Fe370     1.0  0.77911  0.46336  0.76251  1.0000
  S   S738      1.0  0.79222  0.48114  0.74750  1.0000
  C   C2681     1.0  0.84147  0.39983  0.95756  1.0000
  Fe  Fe371     1.0  0.79799  0.45066  0.75007  1.0000
  S   S739      1.0  0.81285  0.46731  0.73415  1.0000
  S   S740      1.0  0.80010  0.43227  0.75345  1.0000
  Fe  Fe372     1.0  0.80332  0.47248  0.77234  1.0000
  S   S741      1.0  0.81237  0.48308  0.79896  1.0000
  Fe  Fe373     1.0  0.80049  0.47448  0.71077  1.0000
  S   S742      1.0  0.80554  0.48683  0.66611  1.0000
  S   S743      1.0  0.78950  0.45516  0.79029  1.0000
  S   S744      1.0  0.78636  0.45738  0.72364  1.0000
  C   C2682     1.0  0.80923  0.46739  0.89467  1.0000
  C   C2683     1.0  0.80490  0.46003  0.87801  1.0000
  C   C2684     1.0  0.80580  0.46471  0.84859  1.0000
  C   C2685     1.0  0.81117  0.47675  0.83563  1.0000
  C   C2686     1.0  0.81560  0.48406  0.85225  1.0000
  C   C2687     1.0  0.81461  0.47941  0.88168  1.0000
  H   H3228     1.0  0.80086  0.45069  0.88788  1.0000
  H   H3229     1.0  0.80248  0.45897  0.83590  1.0000
  H   H3230     1.0  0.81980  0.49338  0.84232  1.0000
  H   H3231     1.0  0.81811  0.48513  0.89416  1.0000
  S   S745      1.0  0.94799  0.45440  0.65104  1.0000
  C   C2688     1.0  0.97781  0.47675  0.76588  1.0000
  C   C2689     1.0  0.80810  0.48738  0.60898  1.0000
  C   C2690     1.0  0.80775  0.48064  0.63635  1.0000
  C   C2691     1.0  0.80892  0.46907  0.63961  1.0000
  C   C2692     1.0  0.81029  0.46421  0.61561  1.0000
  C   C2693     1.0  0.92935  0.48992  0.87409  1.0000
  H   H3232     1.0  0.80716  0.49634  0.60641  1.0000
  H   H3233     1.0  0.80873  0.46386  0.66064  1.0000
  H   H3234     1.0  0.81113  0.45522  0.61829  1.0000
  C   C2694     1.0  0.78460  0.41759  0.68614  1.0000
  C   C2695     1.0  0.79100  0.42946  0.67942  1.0000
  C   C2696     1.0  0.79577  0.43399  0.70010  1.0000
  C   C2697     1.0  0.79429  0.42659  0.72742  1.0000
  C   C2698     1.0  0.78809  0.41464  0.73395  1.0000
  C   C2699     1.0  0.78324  0.41014  0.71331  1.0000
  H   H3235     1.0  0.79239  0.43513  0.65814  1.0000
  H   H3236     1.0  0.80079  0.44315  0.69478  1.0000
  H   H3237     1.0  0.78682  0.40891  0.75517  1.0000
  H   H3238     1.0  0.77838  0.40093  0.71858  1.0000
  C   C2700     1.0  0.79757  0.41509  0.54769  1.0000
  C   C2701     1.0  0.97723  0.58367  0.53228  1.0000
  H   H3239     1.0  0.80427  0.42814  0.57055  1.0000
  C   C2702     1.0  0.89860  0.43070  0.68483  1.0000
  H   H3240     1.0  0.79348  0.36535  0.55813  1.0000
  C   C2703     1.0  0.76128  0.45562  0.91555  1.0000
  C   C2704     1.0  0.76881  0.48332  0.94562  1.0000
  C   C2705     1.0  0.77760  0.48723  0.95926  1.0000
  H   H3241     1.0  0.82986  0.52521  0.92377  1.0000
  C   C2706     1.0  0.76518  0.48760  0.83626  1.0000
  S   S746      1.0  0.78964  0.38566  0.92518  1.0000
  Fe  Fe374     1.0  0.77919  0.37014  0.96240  1.0000
  H   H3242     1.0  0.78655  0.48682  0.95106  1.0000
  H   H3243     1.0  0.98458  0.47423  0.71065  1.0000
  H   H3244     1.0  0.88405  0.42292  0.85718  1.0000
  C   C2707     1.0  0.97373  0.52671  0.66996  1.0000
  C   C2708     1.0  0.96622  0.53226  0.65708  1.0000
  C   C2709     1.0  0.95743  0.52566  0.64727  1.0000
  C   C2710     1.0  0.95623  0.51354  0.65016  1.0000
  C   C2711     1.0  0.96457  0.50834  0.66005  1.0000
  C   C2712     1.0  0.97333  0.51494  0.66989  1.0000
  H   H3245     1.0  0.96701  0.54156  0.65507  1.0000
  H   H3246     1.0  0.95141  0.52987  0.63809  1.0000
  H   H3247     1.0  0.96412  0.49918  0.66080  1.0000
  H   H3248     1.0  0.90952  0.51103  0.94409  1.0000
  C   C2713     1.0  0.88494  0.49359  0.50240  1.0000
  C   C2714     1.0  0.90128  0.49506  0.93459  1.0000
  H   H3249     1.0  0.80939  0.48768  0.56415  1.0000
  H   H3250     1.0  0.93833  0.51326  0.92058  1.0000
  H   H3251     1.0  0.80049  0.38773  0.57761  1.0000
  H   H3252     1.0  0.79637  0.52320  0.97738  1.0000
  C   C2715     1.0  0.90886  0.50175  0.94721  1.0000
  H   H3253     1.0  0.95398  0.47213  0.75688  1.0000
  H   H3254     1.0  0.98927  0.49968  0.70603  1.0000
  H   H3255     1.0  0.83708  0.43065  0.94538  1.0000
  C   C2716     1.0  0.85159  0.40815  0.93838  1.0000
  C   C2717     1.0  0.85244  0.41007  0.90868  1.0000
  S   S747      1.0  0.94089  0.53784  0.96889  1.0000
  H   H3256     1.0  0.97431  0.51920  0.59163  1.0000
  H   H3257     1.0  0.85993  0.41658  0.89346  1.0000
  C   C2718     1.0  0.77099  0.37237  0.53141  1.0000
  C   C2719     1.0  0.91441  0.44211  0.52594  1.0000
  C   C2720     1.0  0.91714  0.43648  0.55109  1.0000
  C   C2721     1.0  0.92368  0.44307  0.56645  1.0000
  C   C2722     1.0  0.92771  0.45547  0.55680  1.0000
  C   C2723     1.0  0.92513  0.46107  0.53138  1.0000
  C   C2724     1.0  0.91851  0.45448  0.51617  1.0000
  H   H3258     1.0  0.91410  0.42693  0.55891  1.0000
  H   H3259     1.0  0.92561  0.43854  0.58570  1.0000
  H   H3260     1.0  0.92817  0.47062  0.52346  1.0000
  S   S748      1.0  0.81873  0.49535  0.49822  1.0000
  C   C2725     1.0  0.91946  0.44478  0.82048  1.0000
  C   C2726     1.0  0.90920  0.44396  0.81060  1.0000
  C   C2727     1.0  0.90993  0.44575  0.78074  1.0000
  C   C2728     1.0  0.92091  0.44875  0.76026  1.0000
  C   C2729     1.0  0.93119  0.45001  0.77008  1.0000
  C   C2730     1.0  0.93044  0.44787  0.79999  1.0000
  H   H3261     1.0  0.90069  0.44163  0.82596  1.0000
  H   H3262     1.0  0.90191  0.44474  0.77346  1.0000
  H   H3263     1.0  0.93968  0.45212  0.75472  1.0000
  H   H3264     1.0  0.93843  0.44841  0.80735  1.0000
  H   H3265     1.0  0.79742  0.39787  0.61380  1.0000
  H   H3266     1.0  0.75611  0.48217  0.71436  1.0000
  C   C2731     1.0  0.95542  0.48165  0.75253  1.0000
  C   C2732     1.0  0.85925  0.51449  0.95782  1.0000
  C   C2733     1.0  0.87087  0.51875  0.94007  1.0000
  C   C2734     1.0  0.87997  0.52546  0.94910  1.0000
  H   H3267     1.0  0.76096  0.37039  0.60315  1.0000
  H   H3268     1.0  0.99055  0.49915  0.74246  1.0000
  H   H3269     1.0  0.87285  0.51686  0.91916  1.0000
  H   H3270     1.0  0.88884  0.52870  0.93516  1.0000
  C   C2735     1.0  0.94956  0.55974  0.85648  1.0000
  C   C2736     1.0  0.96081  0.56339  0.83689  1.0000
  C   C2737     1.0  0.96211  0.56481  0.80690  1.0000
  C   C2738     1.0  0.95214  0.56283  0.79596  1.0000
  C   C2739     1.0  0.94089  0.55914  0.81555  1.0000
  C   C2740     1.0  0.93959  0.55754  0.84559  1.0000
  H   H3271     1.0  0.96860  0.56519  0.84496  1.0000
  H   H3272     1.0  0.97083  0.56774  0.79220  1.0000
  H   H3273     1.0  0.93310  0.55766  0.80740  1.0000
  H   H3274     1.0  0.93087  0.55485  0.86022  1.0000
  C   C2741     1.0  0.94810  0.55300  0.55448  1.0000
  C   C2742     1.0  0.95457  0.54859  0.57334  1.0000
  C   C2743     1.0  0.95856  0.55495  0.59258  1.0000
  C   C2744     1.0  0.95623  0.56593  0.59320  1.0000
  C   C2745     1.0  0.94966  0.57030  0.57456  1.0000
  C   C2746     1.0  0.94562  0.56391  0.55540  1.0000
  H   H3275     1.0  0.95662  0.54022  0.57292  1.0000
  H   H3276     1.0  0.96361  0.55144  0.60660  1.0000
  H   H3277     1.0  0.94782  0.57879  0.57463  1.0000
  H   H3278     1.0  0.94070  0.56750  0.54115  1.0000
  H   H3279     1.0  0.94040  0.48951  0.54128  1.0000
  C   C2747     1.0  0.76235  0.44365  0.87191  1.0000
  H   H3280     1.0  0.94827  0.50845  0.50441  1.0000
  H   H3281     1.0  0.98681  0.50851  0.56604  1.0000
  C   C2748     1.0  0.90631  0.47739  0.95646  1.0000
  C   C2749     1.0  0.77343  0.46970  0.67222  1.0000
  H   H3282     1.0  0.78380  0.46261  0.62420  1.0000
  H   H3283     1.0  0.90266  0.43247  0.70271  1.0000
  Fe  Fe375     1.0  0.81341  0.47548  0.51430  1.0000
  H   H3284     1.0  0.87765  0.40250  0.84935  1.0000
  C   C2750     1.0  0.80566  0.52409  0.97572  1.0000
  H   H3285     1.0  0.86384  0.47704  0.86635  1.0000
  C   C2751     1.0  0.84086  0.44017  0.93828  1.0000
  C   C2752     1.0  0.80210  0.42664  0.55095  1.0000
  H   H3286     1.0  0.76385  0.44230  0.75790  1.0000
  H   H3287     1.0  0.77183  0.46771  0.84421  1.0000
  H   H3288     1.0  0.78274  0.47135  0.66247  1.0000
  H   H3289     1.0  0.85265  0.49481  0.89330  1.0000
  C   C2753     1.0  0.99878  0.54741  0.59049  1.0000
  H   H3290     1.0  0.84560  0.47140  0.56840  1.0000
  C   C2754     1.0  0.95792  0.50605  0.74123  1.0000
  H   H3291     1.0  0.94871  0.52223  0.51446  1.0000
  C   C2755     1.0  0.97118  0.51456  0.57659  1.0000
  H   H3292     1.0  0.97821  0.48177  0.78270  1.0000
  H   H3293     1.0  0.75483  0.43594  0.68493  1.0000
  H   H3294     1.0  0.99269  0.54539  0.57742  1.0000
  C   C2756     1.0  0.98889  0.49369  0.72703  1.0000
  S   S749      1.0  0.91817  0.52726  0.50033  1.0000
  H   H3295     1.0  0.92700  0.51158  0.56615  1.0000
  C   C2757     1.0  0.78174  0.36961  0.53185  1.0000
  H   H3296     1.0  0.82485  0.38704  0.96256  1.0000
  H   H3297     1.0  0.97296  0.59999  0.51699  1.0000
  H   H3298     1.0  0.97637  0.50833  0.73174  1.0000
  H   H3299     1.0  0.87965  0.39091  0.97404  1.0000
  N   N181      1.0  0.81192  0.40495  0.82008  1.0000
  C   C2758     1.0  0.81524  0.41797  0.80736  1.0000
  C   C2759     1.0  0.80143  0.40213  0.84473  1.0000
  C   C2760     1.0  0.82186  0.40196  0.83124  1.0000
  C   C2761     1.0  0.80916  0.39789  0.79942  1.0000
  C   C2762     1.0  0.80649  0.38532  0.80787  1.0000
  C   C2763     1.0  0.80874  0.40311  0.77091  1.0000
  C   C2764     1.0  0.80366  0.37844  0.78901  1.0000
  C   C2765     1.0  0.80578  0.39612  0.75230  1.0000
  C   C2766     1.0  0.80320  0.38382  0.76136  1.0000
  H   H3300     1.0  0.81754  0.42301  0.82318  1.0000
  H   H3301     1.0  0.82300  0.42076  0.78830  1.0000
  H   H3302     1.0  0.80777  0.42094  0.80060  1.0000
  H   H3303     1.0  0.79369  0.40409  0.83720  1.0000
  H   H3304     1.0  0.80301  0.40729  0.86082  1.0000
  H   H3305     1.0  0.79877  0.39262  0.85664  1.0000
  H   H3306     1.0  0.82437  0.40736  0.84625  1.0000
  H   H3307     1.0  0.81960  0.39258  0.84408  1.0000
  H   H3308     1.0  0.82978  0.40338  0.81328  1.0000
  H   H3309     1.0  0.80628  0.38068  0.82942  1.0000
  H   H3310     1.0  0.81037  0.41256  0.76260  1.0000
  H   H3311     1.0  0.80140  0.36884  0.79622  1.0000
  H   H3312     1.0  0.80520  0.40028  0.73093  1.0000
  H   H3313     1.0  0.80055  0.37841  0.74722  1.0000
  H   H3314     1.0  0.88888  0.42901  0.69323  1.0000
  Fe  Fe376     1.0  0.78317  0.35200  0.92853  1.0000
  S   S750      1.0  0.75993  0.46216  0.78039  1.0000
  H   H3315     1.0  0.97939  0.58603  0.55126  1.0000
  H   H3316     1.0  0.78349  0.49589  0.78786  1.0000
  C   C2767     1.0  0.97648  0.47727  0.71709  1.0000
  H   H3317     1.0  0.78037  0.39028  0.59817  1.0000
  H   H3318     1.0  0.79427  0.41193  0.60743  1.0000
  Fe  Fe377     1.0  0.76975  0.36964  0.71763  1.0000
  C   C2768     1.0  0.85258  0.44493  0.93781  1.0000
  C   C2769     1.0  0.81255  0.52439  0.94869  1.0000
  C   C2770     1.0  0.80153  0.39579  0.56013  1.0000
  C   C2771     1.0  0.96797  0.50172  0.73861  1.0000
  C   C2772     1.0  0.94544  0.48606  0.75528  1.0000
  C   C2773     1.0  0.78182  0.48743  0.85943  1.0000
  H   H3319     1.0  0.78602  0.45375  0.65637  1.0000
  S   S751      1.0  0.76016  0.35836  0.69353  1.0000
  S   S752      1.0  0.92508  0.50462  0.97956  1.0000
  H   H3320     1.0  0.99377  0.52962  0.61750  1.0000
  C   C2774     1.0  0.87948  0.39939  0.87063  1.0000
  C   C2775     1.0  0.91421  0.48417  0.96826  1.0000
  C   C2776     1.0  0.76681  0.37023  0.58336  1.0000
  S   S753      1.0  0.76884  0.36120  0.93559  1.0000
  N   N182      1.0  0.93210  0.56950  0.68353  1.0000
  C   C2777     1.0  0.93088  0.57662  0.65614  1.0000
  C   C2778     1.0  0.92197  0.56929  0.70702  1.0000
  C   C2779     1.0  0.94316  0.57571  0.68916  1.0000
  C   C2780     1.0  0.93246  0.55720  0.68282  1.0000
  C   C2781     1.0  0.93275  0.54902  0.70803  1.0000
  C   C2782     1.0  0.93273  0.55304  0.65744  1.0000
  C   C2783     1.0  0.93306  0.53736  0.70795  1.0000
  C   C2784     1.0  0.93304  0.54137  0.65763  1.0000
  C   C2785     1.0  0.93316  0.53353  0.68283  1.0000
  H   H3321     1.0  0.92274  0.57239  0.65049  1.0000
  H   H3322     1.0  0.93039  0.58572  0.65753  1.0000
  H   H3323     1.0  0.93866  0.57785  0.63786  1.0000
  H   H3324     1.0  0.91355  0.56393  0.70477  1.0000
  H   H3325     1.0  0.92102  0.57837  0.70705  1.0000
  H   H3326     1.0  0.92300  0.56549  0.72882  1.0000
  H   H3327     1.0  0.95099  0.57590  0.67225  1.0000
  H   H3328     1.0  0.94338  0.58505  0.68957  1.0000
  H   H3329     1.0  0.94439  0.57133  0.71022  1.0000
  H   H3330     1.0  0.93311  0.55167  0.72780  1.0000
  H   H3331     1.0  0.93294  0.55867  0.63696  1.0000
  H   H3332     1.0  0.93351  0.53136  0.72730  1.0000
  H   H3333     1.0  0.93342  0.53845  0.63790  1.0000
  H   H3334     1.0  0.93357  0.52454  0.68269  1.0000
  N   N183      1.0  0.94313  0.50682  0.55042  1.0000
  C   C2786     1.0  0.94540  0.43901  0.49732  1.0000
  C   C2787     1.0  0.94382  0.51269  0.52014  1.0000
  C   C2788     1.0  0.93658  0.49416  0.55687  1.0000
  C   C2789     1.0  0.95523  0.50776  0.55421  1.0000
  C   C2790     1.0  0.95991  0.51430  0.57251  1.0000
  C   C2791     1.0  0.96278  0.50201  0.53926  1.0000
  H   H3335     1.0  0.97448  0.56032  0.50283  1.0000
  H   H3336     1.0  0.83789  0.49959  0.57008  1.0000
  H   H3337     1.0  0.75484  0.40827  0.65125  1.0000
  S   S754      1.0  0.79981  0.47242  0.48903  1.0000
  H   H3338     1.0  0.77635  0.48009  0.87834  1.0000
  S   S755      1.0  0.88847  0.53726  0.98756  1.0000
  H   H3339     1.0  0.85323  0.48059  0.95230  1.0000
  H   H3340     1.0  0.93488  0.51225  0.51645  1.0000
  H   H3341     1.0  0.76176  0.49046  0.87991  1.0000
  C   C2792     1.0  0.80938  0.48250  0.58503  1.0000
  C   C2793     1.0  0.80384  0.43677  0.52872  1.0000
  C   C2794     1.0  0.77208  0.38351  0.80713  1.0000
  C   C2795     1.0  0.81043  0.47088  0.58834  1.0000
  H   H3342     1.0  0.95990  0.49700  0.52469  1.0000
  S   S756      1.0  0.86291  0.41555  0.95283  1.0000
  C   C2796     1.0  0.97769  0.57260  0.52779  1.0000
  N   N184      1.0  0.77749  0.48671  0.83325  1.0000
  C   C2797     1.0  0.83893  0.45996  0.92024  1.0000
  H   H3343     1.0  0.93333  0.48080  0.84118  1.0000
  H   H3344     1.0  0.93896  0.50167  0.75052  1.0000
  C   C2798     1.0  0.88657  0.39390  0.95406  1.0000
  H   H3345     1.0  0.92555  0.52048  0.89161  1.0000
  Fe  Fe378     1.0  0.77059  0.39249  0.67598  1.0000
  H   H3346     1.0  0.76430  0.48519  0.79353  1.0000
  H   H3347     1.0  0.98408  0.49690  0.64325  1.0000
  Fe  Fe379     1.0  0.77250  0.37107  0.65324  1.0000
  H   H3348     1.0  0.78757  0.36942  0.51204  1.0000
  C   C2799     1.0  0.88854  0.43624  0.58665  1.0000
  C   C2800     1.0  0.75710  0.48368  0.95597  1.0000
  H   H3349     1.0  0.95894  0.51557  0.73602  1.0000
  H   H3350     1.0  0.93173  0.52889  0.85470  1.0000
  H   H3351     1.0  0.99652  0.48975  0.72270  1.0000
  C   C2801     1.0  0.94669  0.49825  0.74925  1.0000
  C   C2802     1.0  0.90076  0.44847  0.60901  1.0000
  C   C2803     1.0  0.77384  0.37744  0.83297  1.0000
  C   C2804     1.0  0.86436  0.48261  0.51960  1.0000
  H   H3352     1.0  0.90481  0.45281  0.68636  1.0000
  C   C2805     1.0  0.93553  0.48901  0.84763  1.0000
  C   C2806     1.0  0.93368  0.52664  0.87617  1.0000
  H   H3353     1.0  0.93533  0.53494  0.88356  1.0000
  H   H3354     1.0  0.92704  0.50070  0.90325  1.0000
  H   H3355     1.0  0.79107  0.48662  0.85644  1.0000
  C   C2807     1.0  0.88692  0.41898  0.87635  1.0000
  H   H3356     1.0  0.87119  0.39849  0.88700  1.0000
  H   H3357     1.0  0.92049  0.45019  0.63037  1.0000
  H   H3358     1.0  0.87974  0.41787  0.89587  1.0000
  H   H3359     1.0  0.96248  0.52735  0.85218  1.0000
  H   H3360     1.0  0.95297  0.53410  0.83334  1.0000
  H   H3361     1.0  0.77107  0.38319  0.76374  1.0000
  Fe  Fe380     1.0  0.93365  0.54289  0.49441  1.0000
  H   H3362     1.0  0.84055  0.47943  0.52422  1.0000
  C   C2808     1.0  0.83347  0.39513  0.91769  1.0000
  C   C2809     1.0  0.93215  0.50045  0.88263  1.0000
  N   N185      1.0  0.94396  0.52151  0.87452  1.0000
  C   C2810     1.0  0.95445  0.53072  0.85493  1.0000
  C   C2811     1.0  0.84355  0.40352  0.89850  1.0000
  N   N186      1.0  0.88986  0.40767  0.87453  1.0000
  C   C2812     1.0  0.77153  0.45239  0.90525  1.0000
  H   H3363     1.0  0.76337  0.43898  0.85516  1.0000
  C   C2813     1.0  0.78244  0.39842  0.58034  1.0000
  H   H3364     1.0  0.78728  0.47378  0.82669  1.0000
  C   C2814     1.0  0.94624  0.51895  0.90360  1.0000
  H   H3365     1.0  0.92231  0.48243  0.88815  1.0000
  H   H3366     1.0  0.95344  0.51439  0.90387  1.0000
  C   C2815     1.0  0.89003  0.42829  0.63510  1.0000
  H   H3367     1.0  0.94923  0.49793  0.80888  1.0000
  C   C2816     1.0  0.94129  0.51043  0.86493  1.0000
  H   H3368     1.0  0.95654  0.53864  0.86364  1.0000
  H   H3369     1.0  0.88089  0.39038  0.87213  1.0000
  H   H3370     1.0  0.86673  0.53196  0.49192  1.0000
  C   C2817     1.0  0.94447  0.49867  0.82951  1.0000
  H   H3371     1.0  0.94882  0.52722  0.91079  1.0000
  H   H3372     1.0  0.97952  0.51079  0.67836  1.0000
  H   H3373     1.0  0.88740  0.42065  0.65338  1.0000
  H   H3374     1.0  0.95423  0.51645  0.82261  1.0000
  C   C2818     1.0  0.94731  0.50928  0.83781  1.0000
  H   H3375     1.0  0.83313  0.46520  0.91379  1.0000
  C   C2819     1.0  0.00168  0.50430  0.64707  1.0000
  H   H3376     1.0  0.90705  0.45683  0.60641  1.0000
  C   C2820     1.0  0.88550  0.42691  0.61136  1.0000
  N   N187      1.0  0.85639  0.47807  0.90934  1.0000
  H   H3377     1.0  0.77686  0.36129  0.85530  1.0000
  H   H3378     1.0  0.85144  0.48098  0.58908  1.0000
  C   C2821     1.0  0.90709  0.39805  0.92903  1.0000
  C   C2822     1.0  0.87592  0.48375  0.50425  1.0000
  N   N188      1.0  0.76786  0.45106  0.65461  1.0000
  H   H3379     1.0  0.89473  0.42559  0.87768  1.0000
  C   C2823     1.0  0.75834  0.48943  0.86149  1.0000
  H   H3380     1.0  0.87973  0.41849  0.61190  1.0000
  S   S757      1.0  0.77462  0.36039  0.75682  1.0000
  C   C2824     1.0  0.91617  0.44233  0.64893  1.0000
  S   S758      1.0  0.79494  0.36615  0.88947  1.0000
  H   H3381     1.0  0.85768  0.47479  0.52053  1.0000
  H   H3382     1.0  0.95935  0.43394  0.51414  1.0000
  C   C2825     1.0  0.89785  0.43916  0.63458  1.0000
  H   H3383     1.0  0.97951  0.49760  0.53241  1.0000
  N   N189      1.0  0.79529  0.40417  0.57095  1.0000
  H   H3384     1.0  0.91199  0.40601  0.88415  1.0000
  S   S759      1.0  0.78320  0.38112  0.67752  1.0000
  C   C2826     1.0  0.97437  0.56922  0.50420  1.0000
  H   H3385     1.0  0.89864  0.45418  0.56605  1.0000
  C   C2827     1.0  0.84548  0.47987  0.57450  1.0000
  H   H3386     1.0  0.77739  0.40447  0.58831  1.0000
  H   H3387     1.0  0.78487  0.50525  0.81217  1.0000
  C   C2828     1.0  0.88245  0.50234  0.51583  1.0000
  H   H3388     1.0  0.89158  0.45099  0.67373  1.0000
  H   H3389     1.0  0.89706  0.41361  0.82816  1.0000
  H   H3390     1.0  0.91811  0.43450  0.64179  1.0000
  Fe  Fe381     1.0  0.96237  0.47080  0.64886  1.0000
  C   C2829     1.0  0.83404  0.44768  0.92962  1.0000
  H   H3391     1.0  0.90264  0.40211  0.84610  1.0000
  C   C2830     1.0  0.89606  0.44704  0.58561  1.0000
  H   H3392     1.0  0.98568  0.47310  0.76300  1.0000
  C   C2831     1.0  0.89813  0.39376  0.95454  1.0000
  C   C2832     1.0  0.79917  0.40631  0.59691  1.0000
  C   C2833     1.0  0.84104  0.48802  0.53000  1.0000
  N   N190      1.0  0.90327  0.44082  0.65867  1.0000
  S   S760      1.0  0.82741  0.47506  0.97920  1.0000
  S   S761      1.0  0.98174  0.47137  0.64897  1.0000
  H   H3393     1.0  0.92062  0.44352  0.66648  1.0000
  H   H3394     1.0  0.96994  0.46900  0.77460  1.0000
  H   H3395     1.0  0.80881  0.41057  0.59150  1.0000
  H   H3396     1.0  0.78185  0.49606  0.86482  1.0000
  H   H3397     1.0  0.90554  0.45984  0.65023  1.0000
  H   H3398     1.0  0.79490  0.49616  0.80625  1.0000
  H   H3399     1.0  0.86743  0.47824  0.93942  1.0000
  H   H3400     1.0  0.84503  0.48263  0.88203  1.0000
  H   H3401     1.0  0.88530  0.43504  0.56797  1.0000
  C   C2834     1.0  0.90455  0.40248  0.90287  1.0000
  C   C2835     1.0  0.89282  0.40262  0.90157  1.0000
  H   H3402     1.0  0.91612  0.39821  0.92963  1.0000
  H   H3403     1.0  0.91657  0.45897  0.49688  1.0000
  H   H3404     1.0  0.77076  0.39231  0.80510  1.0000
  S   S762      1.0  0.81189  0.46442  0.55894  1.0000
  H   H3405     1.0  0.90741  0.41731  0.84823  1.0000
  C   C2836     1.0  0.89968  0.41021  0.84821  1.0000
  C   C2837     1.0  0.88393  0.39829  0.92807  1.0000
  H   H3406     1.0  0.98019  0.56641  0.54342  1.0000
  C   C2838     1.0  0.84733  0.50075  0.55904  1.0000
  H   H3407     1.0  0.83628  0.47872  0.58729  1.0000
  S   S763      1.0  0.79301  0.35996  0.95840  1.0000
  H   H3408     1.0  0.87084  0.49023  0.87544  1.0000
  C   C2839     1.0  0.77560  0.36608  0.83538  1.0000
  C   C2840     1.0  0.77221  0.37833  0.78370  1.0000
  H   H3409     1.0  0.87491  0.39864  0.92919  1.0000
  C   C2841     1.0  0.86661  0.48055  0.88407  1.0000
  H   H3410     1.0  0.92723  0.49310  0.55588  1.0000
  H   H3411     1.0  0.00042  0.51308  0.64579  1.0000
  H   H3412     1.0  0.78007  0.44392  0.87547  1.0000
  C   C2842     1.0  0.85753  0.45720  0.92859  1.0000
  C   C2843     1.0  0.84827  0.48511  0.90037  1.0000
  H   H3413     1.0  0.80848  0.52376  0.93097  1.0000
  H   H3414     1.0  0.77663  0.47439  0.80630  1.0000
  N   N191      1.0  0.84909  0.49016  0.54888  1.0000
  C   C2844     1.0  0.75427  0.48815  0.98010  1.0000
  C   C2845     1.0  0.86144  0.49150  0.53305  1.0000
  S   S764      1.0  0.76079  0.38334  0.64881  1.0000
  C   C2846     1.0  0.76453  0.43924  0.67534  1.0000
  Fe  Fe382     1.0  0.92467  0.52366  0.97327  1.0000
  C   C2847     1.0  0.85087  0.46512  0.91944  1.0000
  Fe  Fe383     1.0  0.78078  0.37554  0.89789  1.0000
  C   C2848     1.0  0.99364  0.48358  0.64803  1.0000
  H   H3415     1.0  0.87366  0.47645  0.88952  1.0000
  C   C2849     1.0  0.77207  0.44644  0.88343  1.0000
  C   C2850     1.0  0.76349  0.37255  0.55727  1.0000
  C   C2851     1.0  0.87090  0.50140  0.53084  1.0000
  H   H3416     1.0  0.88945  0.51017  0.51362  1.0000
  H   H3417     1.0  0.77905  0.45444  0.91433  1.0000
  C   C2852     1.0  0.99234  0.49510  0.64577  1.0000
  H   H3418     1.0  0.85245  0.50247  0.57505  1.0000
  H   H3419     1.0  0.93669  0.47997  0.76142  1.0000
  C   C2853     1.0  0.96702  0.48936  0.74335  1.0000
  H   H3420     1.0  0.75545  0.41181  0.69915  1.0000
  C   C2854     1.0  0.77409  0.36703  0.78602  1.0000
  H   H3421     1.0  0.97511  0.48251  0.69705  1.0000
  Fe  Fe384     1.0  0.80328  0.37536  0.91968  1.0000
  H   H3422     1.0  0.79803  0.39241  0.54310  1.0000
  H   H3423     1.0  0.77892  0.39562  0.56269  1.0000
  C   C2855     1.0  0.80112  0.43575  0.50281  1.0000
  C   C2856     1.0  0.77574  0.36091  0.81195  1.0000
  H   H3424     1.0  0.84388  0.49516  0.50956  1.0000
  C   C2857     1.0  0.77771  0.36781  0.58368  1.0000
  H   H3425     1.0  0.83180  0.48764  0.54078  1.0000
  N   N192      1.0  0.97743  0.48446  0.73840  1.0000
  H   H3426     1.0  0.86962  0.50873  0.53983  1.0000
  H   H3427     1.0  0.88024  0.49087  0.97665  1.0000
  H   H3428     1.0  0.86470  0.49217  0.92606  1.0000
  C   C2858     1.0  0.83245  0.39346  0.94739  1.0000
  H   H3429     1.0  0.84990  0.50880  0.54061  1.0000
  H   H3430     1.0  0.79118  0.40593  0.51709  1.0000
  C   C2859     1.0  0.87749  0.52831  0.97570  1.0000
  C   C2860     1.0  0.76132  0.45040  0.63200  1.0000
  H   H3431     1.0  0.76724  0.43242  0.66486  1.0000
  H   H3432     1.0  0.76177  0.34234  0.59587  1.0000
  C   C2861     1.0  0.78064  0.45381  0.64026  1.0000
  S   S765      1.0  0.78264  0.36603  0.61547  1.0000
  H   H3433     1.0  0.76073  0.46006  0.93291  1.0000
  C   C2862     1.0  0.77835  0.47517  0.82736  1.0000
  H   H3434     1.0  0.76318  0.45929  0.61681  1.0000
  H   H3435     1.0  0.90018  0.39057  0.97483  1.0000
  C   C2863     1.0  0.78551  0.49642  0.80885  1.0000
  H   H3436     1.0  0.84051  0.48398  0.91854  1.0000
  C   C2864     1.0  0.86063  0.48242  0.93277  1.0000
  H   H3437     1.0  0.94009  0.52205  0.56528  1.0000
  C   C2865     1.0  0.78507  0.36730  0.55797  1.0000
  H   H3438     1.0  0.77728  0.35220  0.81386  1.0000
  S   S766      1.0  0.90611  0.43325  0.50738  1.0000
  C   C2866     1.0  0.77485  0.49189  0.98304  1.0000
  C   C2867     1.0  0.93602  0.51240  0.56954  1.0000
  H   H3439     1.0  0.90508  0.46791  0.96106  1.0000
  C   C2868     1.0  0.77027  0.47762  0.68798  1.0000
  C   C2869     1.0  0.95510  0.43428  0.49650  1.0000
  H   H3440     1.0  0.81115  0.40004  0.55105  1.0000
  C   C2870     1.0  0.91546  0.49636  0.96377  1.0000
  H   H3441     1.0  0.76886  0.43951  0.69345  1.0000
  C   C2871     1.0  0.76481  0.45991  0.67010  1.0000
  H   H3442     1.0  0.93659  0.48927  0.57884  1.0000
  H   H3443     1.0  0.78269  0.44716  0.62834  1.0000
  H   H3444     1.0  0.86666  0.46044  0.92862  1.0000
  H   H3445     1.0  0.95490  0.51901  0.58470  1.0000
  H   H3446     1.0  0.77709  0.48482  0.68986  1.0000
  C   C2872     1.0  0.97406  0.50236  0.54337  1.0000
  H   H3447     1.0  0.89385  0.49456  0.49011  1.0000
  C   C2873     1.0  0.79668  0.42458  0.49889  1.0000
  H   H3448     1.0  0.94210  0.44233  0.51561  1.0000
  H   H3449     1.0  0.83906  0.52612  0.96420  1.0000
  C   C2874     1.0  0.99941  0.53852  0.61299  1.0000
  C   C2875     1.0  0.85682  0.51710  0.98472  1.0000
  C   C2876     1.0  0.82973  0.52562  0.96755  1.0000
  H   H3450     1.0  0.91927  0.47995  0.98112  1.0000
  H   H3451     1.0  0.88794  0.50540  0.97820  1.0000
  C   C2877     1.0  0.75849  0.47617  0.70166  1.0000
  H   H3452     1.0  0.76382  0.44417  0.61917  1.0000
  S   S767      1.0  0.76675  0.37588  0.49894  1.0000
  C   C2878     1.0  0.75962  0.48648  0.81352  1.0000
  S   S768      1.0  0.75785  0.38187  0.71825  1.0000
  H   H3453     1.0  0.80722  0.44550  0.53169  1.0000
  C   C2879     1.0  0.97353  0.59148  0.51305  1.0000
  H   H3454     1.0  0.84062  0.39821  0.98056  1.0000
  H   H3455     1.0  0.75509  0.37456  0.55708  1.0000
  H   H3456     1.0  0.87224  0.50119  0.98571  1.0000
  C   C2880     1.0  0.97026  0.58824  0.48925  1.0000
