data_image0
_chemical_formula_structural       CHSC2HFeS3H3C2SFeS2FeS2FeS2FeSFeS3FeS2FeS2FeSFeS4CHC6H4SHFeCHC2HC6H4C6H4C6H4C6H7C2HC2H3C2NSC3HCH3CSH6CHCHCH6CHCNC3H6CHCH3CH2CNC2H2CH2C2H2CHC2NH5C4HC3FeCHCHSH6FeH2C2H4CH3CHC2HC2NC3H11CHCH4CH7CNH5NC8H4C2HSHC2HC2FeCH2CNCFeCH2NHCNH2CH3S2FeS2NHCHFeS2FeS2FeSFeS3FeSH3FeSFeCSFeS2FeS2FeSFeS3CSHC6H4C2HC2H3CHSHC6H4C6H4C6H4C6HCH2SC3HC4H3NC2H4NC9H11CH2CHNC9H15NH2C2HCH2SCHCH2CH3CNH2FeH4SH2CHCHC3HCHC2H3CHCHC2H2C3H2CH4CH2CHCHCHCHCHC5H2CH5SCSCH2NCH3CH2C2HFeCHCH2C2HSHFeH3C2NHCH5SHFeSC2HSHCSFeS2FeS2FeSFeS3FeS2FeSCFe2S2CHC2SH2C2HCNHC6H4C6H5C4H2C2HSH2CHC6H4CH5C2H2CHCNC6H2CH11C2H2CH2CH2C2FeCHCHC5HCH2C2H3CHFeHC2HCH3CH2CHC2H2SH3NC7SCH11SCH2CH2CHNHCHCHC2HCH2CHNHCHFeS4CH3SFeS2FeS2FeSFeS3FeS2CHCHCFeS2FeHFe2C2S2H2NC6H4CHCH2CH3C6H6C3H3SC7H4C3H2C4H2NCH3SH2SNH2CH4CH2C2NC9H14NH2C3H2CH8CHC3HFeCNCH2C2HCSH2CHCHCH4C2H3CH4CFeH2CHC2HC3FeCSCHC2FeHSFeH3CS2FeHSFeSH2S2HSFeS2HCSCHSFeSFeSC2SHSH2FeS2FeS2C6H3FeC6H7CHCHC7H4C6H7C2NH2CHFeH3C7H2SH2NH3NC6HC2HCSH2CFeH7NC9H14NC9H14CHCH2C2H2C3HC4HFeHC3H4CH2SH2SH2CSCH2C2SCHCH2NH2CNH2CH3C2H6CHFeCSH2CH2NCHCFeHS2C2H2C5SCSHSFeHFeS6FeCSFeCSHCHS2FeSHCHFeSHCSCFeSHSFeS2FeS2C6H3C6H4C3H4C6H4C3H5CNC6H5C6H2NC3H3C2HCHC2HC3H2CHC6H7CHCHCHNCHCHSC2HCH2CSH7CHCHFeH3C3SH2NC2SCHFeCHCHCH8SH2SCNCH3C2HFeH3C3HC2H3SCH2C2HC4HSHCHC2H6CSH3CH4CH2CHCFeHCHNH2CH4SH4FeS2HFeS2CH2CFeS2FeS2FeSFeS3HSHCHFeS2C8H4C6H5C4H2SH2CH3C6H4C2HSC2H4CH2C2H3CHC4HCNCHNC3H2C3H2SCH3CHCHCNC8FeH13SH2CH2C3HCHCH5NCHFeCH4CH4CH6CFeH2CHSCH5C2S2HFeS3HFeS2FeS2FeSFeS3FeS2CFeCS2CH3CH2CH2CH2C6H4C6H5C3FeSHC2SHCH2C6H4NCHC2NH2NC3SHCHCHC2HCSCHC2HNC9H13CH4CNHC2HCFeH2C3H8CH2CHFeCH2CHC2NHCH2C2NH4FeHC2HSHCHC3HCH2CH3CHCHCH4CHC2HCFeH3CH2CHCHC3H2C2HCHC2HCH5C2FeHSFeS2FeS2FeSFeS3CS2FeCSFeH3CS2FeS2FeS2FeSFeS3HCSC6H5CSC4H4CHC4HSC2H2CH2C6H4C6H4C6H4C7HNH2C2FeSHCHC2H2CHCH2CHCSHCH3CH3CHCHC2H5SH2NC7FeH9C2H2C2H3C2HFeH4FeHC2H3CHCH2CFeH2C2HCSH2SCHNCNH3CH2CH4CHC2H2C6H2NCH2CHC2HCSC2HNCH2SHC2H3CH4CH4SHCH2CHCH2FeCFeHSNCHS2CSFeS2FeS2FeSFeS3HSCS2FeS2FeS2FeSFeS3HCSC6H5CHC3FeHCSHC6H4C6H4C6H6C7H4C2H3C2H3CHCH2CNH4CH6C2FeNC9H17CHC3HFeC3HC2HNH3CHC6HC2H2CHFe2H6C3H4CH2NH3SH2CH5NC9S2C2HCH2CH5NC5H3SH4CH2C4H4CH6CH3C2HSC5H2C2H2S2FeS2HS2FeCSHFeS2FeS2FeS2FeSFeS3FeS2FeS2FeSFeS3C2SC6H4C3H3FeH2C7H4C7H4C6H2CHC6H4C2H3CHC3H2CH4CH2FeH3C2H5NHCHNC7H20CNHC2SHC2H3C2H2NHCHCHCHC3H3CHCH2FeHNCHCH3C2H4CH7CHFeC2H2CH2C2H2C2H4NC3NC2H6SCH4CHCH2C4SCHC2H2C2HC4H3CHC2HC6HCH5FeCSCH3CFeS2CH2C2FeS2FeS2FeSFeS3FeS2H2CSHFeS2FeS2FeSFeS3FeS2C6H7SHCH4C6H4C2HC6H4C6H4C6H4SHCHC2H2C6H5C2H2CHC2NHC2NH4CH2CH2CH2CH2CHCHCHNC6H12CH3C2HSHCHC2HC2NC3H2CHFeCHNC2HNH6CH2C4H2CH4CHCH2SHCHCH2FeH4FeSC2HCFeHFeCSH4CS2FeSCFeS2FeS2FeSFeS3C2NHCFeCS2HSFeS2FeSFeCHS2H3CHC3H2C2HCH3CHC2HC6H4C6H5FeHC2HNC7H4CNC4H4SH3C2HC2NHC2H3C2H4CSH2C3H2CH3C2H2SCH3FeH3CHCH2SFeC2H2CHCNC2H4CHCH2SNCH2CH2C3SH2SCH4CHC2H4NCH9C2HC3H2CFeCHSC2H3C2HCFeS2CH2NFeSHFeS2FeS2FeSFeS3CHSFeS2FeHFeCHS2C4H3C5H2CHC4HC6H4C6H5NC2HCH2C6H3CH2CHCH7C4HCH5SHSH3C2HC2HC2H2CHCHCSCH3CH2C2H2C3H7CNC2H2CHCH2C2H3CH2NCSHCH3CH6C2H2C2NCH4CHCH2CNC4HSCH6CHCHC5H3C2H2NH3FeHC2H3CHCHCHCFeCHCHSFeS2FeS2HFeHFeS2H3S2CSH2CFeHFeHS3HSC2HSC2SCS2C6H4C6H5FeNCH2C5HCFeHC7H5CH8C2H2C6H4C3HC2NC9H2NH3CHCNH4CHCHCSNC4FeH3CSNC2H3CH7CHSHCH2CFeHSCFeHC2HSCH3CSC2HCH3NC2H2C2HFe2H7CNC4HCH3C2FeH2SHSH2C4H3CH4SH2CHC2HCH2C2H3SHCH7C3SC3FeHSFeCSHC2S2H4FeS2Fe2SCFeSFeCSH2S2H2SH4NSC9NH3C6H5S2HC8HSHC3H2C6H5CH3SC2H2Fe2C6H4CH2C2H2SH5C2H2CH4C3HCFe2H2CHC3HCSH2CHC2H3CSH5C3HC2HC2HSNHCHC3HCFeHNH5C2SHFeC2NH2CH4CSC3HC2SHCHCH4CH3CHNHC4HC3SH4SHCHS2H2C2HSH2CHCSHSHSH4CH3FeNFeH2CH2CHCSFeS2FeS2FeSFeS3HFeHFeS2CH2SCFe2S2FeS3NC2SH2C6H4CHC2H2C3NH3C4H4C6HCH2C6H4CHCHCH5NHC2H2CFeHC2HCH2C2H4SCH2CH4FeCH2CH6CHCH3CH3CH2CH4C4HCHC2HC2HCH3C3H2CHCH2CH2NH3CHC2HC2HCHC2HNHCHC2SH2C2NC2SHCH3C2HC4HCHCHC2HCHC2HCH5FeS2FeS2FeSFeS3FeS2H2C3NFeS2FeS2HFeHS2H2SC7H4C6H2C2HC2H3C6H4CH3C6H6SHC2H3CH3CH2CH4CH3C2HCH3SFeCNHNC6NH2CH3CH4C2HCHC2H7CHCNH2C5H3CH4SCHCH3CH2CFeNCSCH5CHCH6C3SHCHSH2SC2HCSHCNCFeSCFeSCS4FeS2FeS2FeSFeS3FeS2FeS2FeSFeS3FeS2C6H8C2H3C6H4C6H4C6H4C7H4NHFeH6CH2C3H2NHC3H8C2H3SHCNHCH4CH2FeH2CH2SCH2C3H2CH2CHFeCHSC2SH4C2H2CFeH2CHCH2SCHCH3C2H4CHC5NC9H10NHC3SHCHCNCHC2H3CH8CHC2HCH3CH3CH2CH5C2FeSC2H2S2FeS2FeS2FeSFeS3CSHSFe2SHFeS2FeS2FeSFeS3FeS2C6H4C2HCH2C2HCFeCHC6H4C6H4C6H4C6H4C6NCH7C2HCSH2CH2CHNC9H14CHNC9H14C2H2C2HNHSH3CH3CH3NH2C4HCHNC6H15FeCHCH3C3HCHC4H2SHCH3CHC3H3FeHNCH3CHCH7CHCNHC2SC3HCHFeC
_chemical_formula_sum              "C2040 H2448 S544 Fe272 N136"
_cell_length_a       71.2697
_cell_length_b       70.9822
_cell_length_c       60.5693
_cell_angle_alpha    88.2604
_cell_angle_beta     88.1219
_cell_angle_gamma    87.1136

_space_group_name_H-M_alt    "P 1"
_space_group_IT_number       1

loop_
  _space_group_symop_operation_xyz
  'x, y, z'

loop_
  _atom_site_type_symbol
  _atom_site_label
  _atom_site_symmetry_multiplicity
  _atom_site_fract_x
  _atom_site_fract_y
  _atom_site_fract_z
  _atom_site_occupancy
  C   C1        1.0  0.10735  0.03887  0.08388  1.0000
  H   H1        1.0  0.06557  0.19250  0.26679  1.0000
  S   S1        1.0  0.06145  0.10720  0.04310  1.0000
  C   C2        1.0  0.09409  0.00907  0.07618  1.0000
  C   C3        1.0  0.33754  0.14817  0.45511  1.0000
  H   H2        1.0  0.25514  0.15235  0.31982  1.0000
  Fe  Fe1       1.0  0.06450  0.13750  0.05209  1.0000
  S   S2        1.0  0.05814  0.14839  0.08670  1.0000
  S   S3        1.0  0.09143  0.14043  0.03251  1.0000
  S   S4        1.0  0.15309  0.04129  0.46470  1.0000
  H   H3        1.0  0.14060  0.01713  0.07602  1.0000
  H   H4        1.0  0.41012  0.14604  0.49456  1.0000
  H   H5        1.0  0.09633  0.19003  0.04432  1.0000
  C   C4        1.0  0.09083  0.06067  0.01801  1.0000
  C   C5        1.0  0.04735  0.20644  0.31537  1.0000
  S   S5        1.0  0.11545  0.17890  0.15446  1.0000
  Fe  Fe2       1.0  0.11519  0.19151  0.23564  1.0000
  S   S6        1.0  0.12662  0.17364  0.26516  1.0000
  S   S7        1.0  0.09491  0.17702  0.21510  1.0000
  Fe  Fe3       1.0  0.20943  0.09000  0.36454  1.0000
  S   S8        1.0  0.22510  0.11330  0.34708  1.0000
  S   S9        1.0  0.19792  0.09617  0.39931  1.0000
  Fe  Fe4       1.0  0.21782  0.06258  0.32717  1.0000
  S   S10       1.0  0.23414  0.08370  0.30731  1.0000
  S   S11       1.0  0.21250  0.03186  0.31969  1.0000
  Fe  Fe5       1.0  0.24744  0.09078  0.33922  1.0000
  S   S12       1.0  0.27956  0.09309  0.33765  1.0000
  Fe  Fe6       1.0  0.21073  0.10504  0.31641  1.0000
  S   S13       1.0  0.20327  0.12665  0.28850  1.0000
  S   S14       1.0  0.23270  0.06801  0.35854  1.0000
  S   S15       1.0  0.19338  0.08332  0.33447  1.0000
  Fe  Fe7       1.0  0.40841  0.14986  0.39975  1.0000
  S   S16       1.0  0.42528  0.12474  0.41418  1.0000
  S   S17       1.0  0.42595  0.17546  0.39075  1.0000
  Fe  Fe8       1.0  0.37211  0.12786  0.39984  1.0000
  S   S18       1.0  0.38691  0.10166  0.41379  1.0000
  S   S19       1.0  0.34000  0.13131  0.39621  1.0000
  Fe  Fe9       1.0  0.40019  0.12078  0.43765  1.0000
  S   S20       1.0  0.39909  0.11067  0.47468  1.0000
  Fe  Fe10      1.0  0.41088  0.10773  0.38947  1.0000
  S   S21       1.0  0.42333  0.08635  0.36407  1.0000
  S   S22       1.0  0.38435  0.14685  0.42460  1.0000
  S   S23       1.0  0.39502  0.13302  0.37417  1.0000
  S   S24       1.0  0.04647  0.14957  0.02456  1.0000
  C   C6        1.0  0.49122  0.03946  0.19616  1.0000
  H   H6        1.0  0.12410  0.08012  0.06168  1.0000
  C   C7        1.0  0.44468  0.07520  0.35305  1.0000
  C   C8        1.0  0.44391  0.06423  0.33409  1.0000
  C   C9        1.0  0.46028  0.05514  0.32463  1.0000
  C   C10       1.0  0.47778  0.05675  0.33407  1.0000
  C   C11       1.0  0.47858  0.06782  0.35296  1.0000
  C   C12       1.0  0.46222  0.07700  0.36235  1.0000
  H   H7        1.0  0.43049  0.06264  0.32669  1.0000
  H   H8        1.0  0.45927  0.04669  0.31019  1.0000
  H   H9        1.0  0.49196  0.06922  0.36051  1.0000
  H   H10       1.0  0.46317  0.08525  0.37696  1.0000
  S   S25       1.0  0.12808  0.20689  0.20619  1.0000
  H   H11       1.0  0.43365  0.20715  0.46437  1.0000
  Fe  Fe11      1.0  0.08708  0.11121  0.02113  1.0000
  C   C13       1.0  0.12173  0.03481  0.01353  1.0000
  H   H12       1.0  0.31354  0.10822  0.46131  1.0000
  C   C14       1.0  0.43244  0.16764  0.33073  1.0000
  C   C15       1.0  0.26038  0.15184  0.27596  1.0000
  H   H13       1.0  0.13722  0.16067  0.21911  1.0000
  C   C16       1.0  0.29602  0.10293  0.35515  1.0000
  C   C17       1.0  0.31540  0.09901  0.35110  1.0000
  C   C18       1.0  0.32904  0.10716  0.36375  1.0000
  C   C19       1.0  0.32350  0.11963  0.38047  1.0000
  C   C20       1.0  0.30412  0.12358  0.38450  1.0000
  C   C21       1.0  0.29047  0.11520  0.37208  1.0000
  H   H14       1.0  0.31990  0.08963  0.33799  1.0000
  H   H15       1.0  0.34384  0.10399  0.36033  1.0000
  H   H16       1.0  0.29960  0.13329  0.39726  1.0000
  H   H17       1.0  0.27568  0.11846  0.37537  1.0000
  C   C22       1.0  0.14828  0.16105  0.27143  1.0000
  C   C23       1.0  0.16450  0.16213  0.25787  1.0000
  C   C24       1.0  0.18112  0.15155  0.26338  1.0000
  C   C25       1.0  0.18186  0.13979  0.28255  1.0000
  C   C26       1.0  0.16570  0.13886  0.29623  1.0000
  C   C27       1.0  0.14906  0.14941  0.29069  1.0000
  H   H18       1.0  0.16432  0.17125  0.24326  1.0000
  H   H19       1.0  0.19352  0.15248  0.25270  1.0000
  H   H20       1.0  0.16600  0.12997  0.31106  1.0000
  H   H21       1.0  0.13669  0.14847  0.30140  1.0000
  C   C28       1.0  0.16640  0.05627  0.44708  1.0000
  C   C29       1.0  0.16678  0.05338  0.42420  1.0000
  C   C30       1.0  0.17673  0.06524  0.40944  1.0000
  C   C31       1.0  0.18637  0.08014  0.41743  1.0000
  C   C32       1.0  0.18585  0.08314  0.44030  1.0000
  C   C33       1.0  0.17603  0.07118  0.45511  1.0000
  H   H22       1.0  0.15916  0.04200  0.41788  1.0000
  H   H23       1.0  0.17654  0.06326  0.39184  1.0000
  H   H24       1.0  0.19310  0.09480  0.44658  1.0000
  H   H25       1.0  0.17583  0.07359  0.47267  1.0000
  C   C34       1.0  0.07443  0.15646  0.10540  1.0000
  C   C35       1.0  0.09388  0.15399  0.10178  1.0000
  C   C36       1.0  0.10626  0.16076  0.11706  1.0000
  C   C37       1.0  0.09934  0.17013  0.13602  1.0000
  C   C38       1.0  0.07991  0.17258  0.13964  1.0000
  C   C39       1.0  0.06755  0.16573  0.12442  1.0000
  H   H26       1.0  0.09938  0.14679  0.08728  1.0000
  H   H27       1.0  0.12128  0.15884  0.11409  1.0000
  H   H28       1.0  0.07439  0.17980  0.15411  1.0000
  H   H29       1.0  0.05253  0.16769  0.12739  1.0000
  H   H30       1.0  0.44745  0.11913  0.36403  1.0000
  H   H31       1.0  0.13141  0.04651  0.06232  1.0000
  H   H32       1.0  0.09985  0.07497  0.43931  1.0000
  C   C40       1.0  0.46284  0.18237  0.30702  1.0000
  C   C41       1.0  0.14517  0.12420  0.23456  1.0000
  H   H33       1.0  0.25790  0.12708  0.32445  1.0000
  C   C42       1.0  0.09297  0.09981  0.47236  1.0000
  C   C43       1.0  0.08182  0.18636  0.04954  1.0000
  H   H34       1.0  0.41968  0.19577  0.32796  1.0000
  H   H35       1.0  0.50211  0.04767  0.20391  1.0000
  H   H36       1.0  0.30442  0.13261  0.46026  1.0000
  C   C44       1.0  0.13564  0.10133  0.43297  1.0000
  C   C45       1.0  0.42054  0.19773  0.37742  1.0000
  N   N1        1.0  0.11080  0.01811  0.08430  1.0000
  S   S26       1.0  0.49900  0.04509  0.32339  1.0000
  C   C46       1.0  0.02345  0.17648  0.32029  1.0000
  C   C47       1.0  0.35093  0.13437  0.49943  1.0000
  C   C48       1.0  0.11860  0.10613  0.44472  1.0000
  H   H37       1.0  0.39059  0.19523  0.37744  1.0000
  C   C49       1.0  0.07204  0.18020  0.27597  1.0000
  H   H38       1.0  0.11971  0.08324  0.49476  1.0000
  H   H39       1.0  0.17748  0.09273  0.25655  1.0000
  H   H40       1.0  0.28433  0.14143  0.33266  1.0000
  C   C50       1.0  0.08751  0.06667  0.09465  1.0000
  S   S27       1.0  0.50150  0.03100  0.25702  1.0000
  H   H41       1.0  0.17351  0.11267  0.18973  1.0000
  H   H42       1.0  0.23851  0.02223  0.24383  1.0000
  H   H43       1.0  0.18519  0.02668  0.35298  1.0000
  H   H44       1.0  0.15941  0.16067  0.20429  1.0000
  H   H45       1.0  0.08776  0.08950  0.48506  1.0000
  H   H46       1.0  0.10195  0.01398  0.11855  1.0000
  C   C51       1.0  0.08329  0.16818  0.31099  1.0000
  H   H47       1.0  0.07547  0.18082  0.03462  1.0000
  C   C52       1.0  0.02935  0.20190  0.24999  1.0000
  H   H48       1.0  0.26284  0.16609  0.28215  1.0000
  C   C53       1.0  0.14431  0.15772  0.20287  1.0000
  H   H49       1.0  0.42051  0.16278  0.34041  1.0000
  H   H50       1.0  0.36355  0.13780  0.49005  1.0000
  H   H51       1.0  0.12542  0.01585  0.05271  1.0000
  H   H52       1.0  0.08603  0.17682  0.26796  1.0000
  H   H53       1.0  0.10315  0.06448  0.46644  1.0000
  H   H54       1.0  0.34907  0.11389  0.43785  1.0000
  C   C54       1.0  0.15430  0.11250  0.25024  1.0000
  H   H55       1.0  0.04579  0.15923  0.30654  1.0000
  C   C55       1.0  0.33460  0.12919  0.48874  1.0000
  N   N2        1.0  0.14209  0.13809  0.19607  1.0000
  C   C56       1.0  0.14977  0.13652  0.17304  1.0000
  C   C57       1.0  0.12174  0.13460  0.19569  1.0000
  C   C58       1.0  0.22740  0.02679  0.27696  1.0000
  H   H56       1.0  0.14848  0.12207  0.16681  1.0000
  H   H57       1.0  0.14204  0.14638  0.16141  1.0000
  H   H58       1.0  0.08260  0.17445  0.06190  1.0000
  H   H59       1.0  0.11948  0.11973  0.19159  1.0000
  H   H60       1.0  0.11439  0.14394  0.18319  1.0000
  H   H61       1.0  0.11431  0.13746  0.21173  1.0000
  C   C59       1.0  0.08579  0.20082  0.30080  1.0000
  H   H62       1.0  0.13368  0.02491  0.01167  1.0000
  C   C60       1.0  0.12442  0.05429  0.01400  1.0000
  H   H63       1.0  0.07671  0.15466  0.30812  1.0000
  H   H64       1.0  0.29673  0.13577  0.26225  1.0000
  H   H65       1.0  0.45937  0.14091  0.36491  1.0000
  C   C61       1.0  0.39960  0.11872  0.50258  1.0000
  H   H66       1.0  0.14349  0.08827  0.43653  1.0000
  H   H67       1.0  0.10026  0.19745  0.29395  1.0000
  C   C62       1.0  0.23155  0.01589  0.25813  1.0000
  N   N3        1.0  0.33441  0.12893  0.46430  1.0000
  C   C63       1.0  0.10898  0.06724  0.01631  1.0000
  C   C64       1.0  0.34967  0.11576  0.45599  1.0000
  H   H68       1.0  0.35155  0.15311  0.45911  1.0000
  H   H69       1.0  0.48206  0.03457  0.21015  1.0000
  C   C65       1.0  0.10356  0.02825  0.01539  1.0000
  H   H70       1.0  0.23121  0.04134  0.27707  1.0000
  H   H71       1.0  0.01808  0.04176  0.02110  1.0000
  C   C66       1.0  0.21065  0.02700  0.38287  1.0000
  C   C67       1.0  0.44824  0.15532  0.32576  1.0000
  H   H72       1.0  0.13875  0.08467  0.47502  1.0000
  H   H73       1.0  0.34066  0.14178  0.30747  1.0000
  C   C68       1.0  0.11700  0.13579  0.42264  1.0000
  H   H74       1.0  0.13970  0.13989  0.39885  1.0000
  C   C69       1.0  0.05441  0.18815  0.30930  1.0000
  C   C70       1.0  0.21828  0.01883  0.29552  1.0000
  N   N4        1.0  0.07357  0.18453  0.29957  1.0000
  H   H75       1.0  0.01394  0.16501  0.32175  1.0000
  H   H76       1.0  0.47468  0.18824  0.29798  1.0000
  H   H77       1.0  0.01433  0.17633  0.25358  1.0000
  H   H78       1.0  0.11526  0.20478  0.11375  1.0000
  H   H79       1.0  0.44963  0.20475  0.37464  1.0000
  C   C71       1.0  0.14309  0.11337  0.41663  1.0000
  C   C72       1.0  0.13378  0.13057  0.41145  1.0000
  C   C73       1.0  0.11919  0.05139  0.07192  1.0000
  C   C74       1.0  0.19454  0.01454  0.42416  1.0000
  H   H80       1.0  0.34897  0.10156  0.46420  1.0000
  C   C75       1.0  0.09925  0.07849  0.08248  1.0000
  C   C76       1.0  0.40576  0.13646  0.50775  1.0000
  C   C77       1.0  0.44705  0.19400  0.31209  1.0000
  Fe  Fe12      1.0  0.10613  0.19375  0.18612  1.0000
  C   C78       1.0  0.11515  0.07088  0.07141  1.0000
  H   H81       1.0  0.31746  0.14356  0.33859  1.0000
  C   C79       1.0  0.12512  0.09169  0.48041  1.0000
  H   H82       1.0  0.30578  0.12057  0.49597  1.0000
  S   S28       1.0  0.11279  0.09150  0.01761  1.0000
  H   H83       1.0  0.36381  0.12086  0.45881  1.0000
  H   H84       1.0  0.10369  0.19145  0.08083  1.0000
  H   H85       1.0  0.07405  0.03622  0.01882  1.0000
  H   H86       1.0  0.13341  0.13316  0.24037  1.0000
  H   H87       1.0  0.33008  0.13797  0.26939  1.0000
  H   H88       1.0  0.08196  0.10148  0.45974  1.0000
  Fe  Fe13      1.0  0.14634  0.04427  0.50146  1.0000
  H   H89       1.0  0.09656  0.12885  0.44730  1.0000
  H   H90       1.0  0.19038  0.01598  0.45952  1.0000
  C   C80       1.0  0.17013  0.10135  0.24416  1.0000
  C   C81       1.0  0.15152  0.12490  0.21210  1.0000
  H   H91       1.0  0.24503  0.15125  0.27300  1.0000
  H   H92       1.0  0.09819  0.16609  0.30487  1.0000
  H   H93       1.0  0.09592  0.09357  0.08137  1.0000
  H   H94       1.0  0.05143  0.18712  0.07892  1.0000
  C   C82       1.0  0.16756  0.11309  0.20633  1.0000
  H   H95       1.0  0.01886  0.00983  0.01553  1.0000
  H   H96       1.0  0.43674  0.09001  0.49732  1.0000
  H   H97       1.0  0.20474  0.04032  0.39015  1.0000
  C   C83       1.0  0.04178  0.17331  0.31176  1.0000
  H   H98       1.0  0.33697  0.14878  0.43677  1.0000
  C   C84       1.0  0.31650  0.12285  0.45555  1.0000
  C   C85       1.0  0.17667  0.10154  0.22223  1.0000
  H   H99       1.0  0.16473  0.14031  0.17167  1.0000
  C   C86       1.0  0.43185  0.18661  0.32379  1.0000
  C   C87       1.0  0.01495  0.19074  0.25869  1.0000
  N   N5        1.0  0.44839  0.13523  0.33320  1.0000
  C   C88       1.0  0.43186  0.12628  0.32450  1.0000
  C   C89       1.0  0.46544  0.12394  0.32578  1.0000
  C   C90       1.0  0.44738  0.13403  0.35769  1.0000
  H   H100      1.0  0.12283  0.06724  0.44827  1.0000
  H   H101      1.0  0.43220  0.11081  0.32827  1.0000
  H   H102      1.0  0.41836  0.13199  0.33186  1.0000
  H   H103      1.0  0.43127  0.12827  0.30624  1.0000
  H   H104      1.0  0.46693  0.12394  0.30743  1.0000
  H   H105      1.0  0.46485  0.10886  0.33140  1.0000
  H   H106      1.0  0.47840  0.12917  0.33273  1.0000
  H   H107      1.0  0.43440  0.14118  0.36464  1.0000
  H   H108      1.0  0.09388  0.11329  0.48111  1.0000
  H   H109      1.0  0.21607  0.03096  0.36602  1.0000
  H   H110      1.0  0.26767  0.15054  0.25956  1.0000
  C   C91       1.0  0.11426  0.01117  0.10721  1.0000
  H   H111      1.0  0.13849  0.05935  0.01261  1.0000
  C   C92       1.0  0.10922  0.07426  0.45368  1.0000
  H   H112      1.0  0.47619  0.15511  0.30925  1.0000
  H   H113      1.0  0.13818  0.16818  0.19075  1.0000
  H   H114      1.0  0.08197  0.03855  0.10506  1.0000
  H   H115      1.0  0.32672  0.15860  0.46161  1.0000
  C   C93       1.0  0.46352  0.16328  0.31367  1.0000
  H   H116      1.0  0.08341  0.17023  0.32913  1.0000
  H   H117      1.0  0.07886  0.07056  0.01974  1.0000
  H   H118      1.0  0.23926  0.13698  0.30812  1.0000
  H   H119      1.0  0.48267  0.04939  0.18552  1.0000
  H   H120      1.0  0.06315  0.16808  0.27343  1.0000
  H   H121      1.0  0.31701  0.12274  0.43711  1.0000
  H   H122      1.0  0.22307  0.02177  0.39234  1.0000
  C   C94       1.0  0.01706  0.19451  0.32631  1.0000
  N   N6        1.0  0.11144  0.09331  0.46245  1.0000
  H   H123      1.0  0.14941  0.11250  0.26738  1.0000
  H   H124      1.0  0.08718  0.20511  0.31816  1.0000
  H   H125      1.0  0.12806  0.10581  0.48665  1.0000
  H   H126      1.0  0.17273  0.03230  0.37831  1.0000
  H   H127      1.0  0.18904  0.09283  0.21764  1.0000
  N   N7        1.0  0.26680  0.13686  0.29201  1.0000
  C   C95       1.0  0.26415  0.11819  0.28252  1.0000
  C   C96       1.0  0.25430  0.13845  0.31202  1.0000
  C   C97       1.0  0.28693  0.13866  0.29655  1.0000
  C   C98       1.0  0.30068  0.13775  0.27905  1.0000
  C   C99       1.0  0.29356  0.14101  0.31817  1.0000
  C   C100      1.0  0.31981  0.13897  0.28297  1.0000
  C   C101      1.0  0.31272  0.14223  0.32188  1.0000
  C   C102      1.0  0.32581  0.14115  0.30436  1.0000
  H   H128      1.0  0.26933  0.10655  0.29388  1.0000
  H   H129      1.0  0.24903  0.11605  0.27963  1.0000
  H   H130      1.0  0.27178  0.11635  0.26641  1.0000
  H   H131      1.0  0.15628  0.10940  0.40808  1.0000
  C   C103      1.0  0.10946  0.12384  0.43910  1.0000
  C   C104      1.0  0.18039  0.02071  0.36929  1.0000
  H   H132      1.0  0.42263  0.20649  0.42610  1.0000
  S   S29       1.0  0.04503  0.19253  0.22926  1.0000
  H   H133      1.0  0.07510  0.07268  0.10316  1.0000
  C   C105      1.0  0.31881  0.12470  0.50254  1.0000
  C   C106      1.0  0.05141  0.19661  0.06393  1.0000
  H   H134      1.0  0.10988  0.14926  0.41866  1.0000
  C   C107      1.0  0.09153  0.04716  0.09552  1.0000
  C   C108      1.0  0.40212  0.20408  0.37295  1.0000
  Fe  Fe14      1.0  0.07467  0.20188  0.22062  1.0000
  C   C109      1.0  0.09562  0.20333  0.08755  1.0000
  H   H135      1.0  0.20419  0.02578  0.42431  1.0000
  H   H136      1.0  0.04564  0.18861  0.05035  1.0000
  C   C110      1.0  0.18674  0.00898  0.44467  1.0000
  N   N8        1.0  0.49984  0.02364  0.18317  1.0000
  C   C111      1.0  0.48528  0.01384  0.17167  1.0000
  Fe  Fe15      1.0  0.04544  0.11943  0.01414  1.0000
  C   C112      1.0  0.08814  0.04123  0.01749  1.0000
  H   H137      1.0  0.17006  0.01008  0.36576  1.0000
  H   H138      1.0  0.08155  0.01092  0.08738  1.0000
  N   N9        1.0  0.19634  0.01252  0.38216  1.0000
  H   H139      1.0  0.12650  0.01798  0.11397  1.0000
  C   C113      1.0  0.12727  0.01168  0.07034  1.0000
  N   N10       1.0  0.07062  0.20283  0.05838  1.0000
  H   H140      1.0  0.09021  0.01507  0.05965  1.0000
  H   H141      1.0  0.46705  0.00980  0.20105  1.0000
  C   C114      1.0  0.48727  0.00899  0.14905  1.0000
  H   H142      1.0  0.49912  0.01293  0.13871  1.0000
  H   H143      1.0  0.04120  0.20857  0.06734  1.0000
  H   H144      1.0  0.44755  0.20660  0.68182  1.0000
  S   S30       1.0  0.08406  0.17573  0.98452  1.0000
  S   S31       1.0  0.07111  0.12126  0.99143  1.0000
  Fe  Fe16      1.0  0.11459  0.19387  0.82169  1.0000
  S   S32       1.0  0.08319  0.19096  0.82347  1.0000
  S   S33       1.0  0.13019  0.16539  0.81428  1.0000
  N   N11       1.0  0.43993  0.08739  0.58647  1.0000
  H   H145      1.0  0.43576  0.14331  0.72885  1.0000
  C   C115      1.0  0.03067  0.17224  0.73717  1.0000
  H   H146      1.0  0.45321  0.07054  0.61246  1.0000
  Fe  Fe17      1.0  0.20061  0.08589  0.69313  1.0000
  S   S34       1.0  0.21941  0.10925  0.70069  1.0000
  S   S35       1.0  0.18402  0.09067  0.66163  1.0000
  Fe  Fe18      1.0  0.20875  0.06488  0.73715  1.0000
  S   S36       1.0  0.22823  0.08690  0.74750  1.0000
  S   S37       1.0  0.19854  0.04132  0.76068  1.0000
  Fe  Fe19      1.0  0.20624  0.10835  0.73515  1.0000
  S   S38       1.0  0.19975  0.13691  0.75147  1.0000
  Fe  Fe20      1.0  0.23992  0.08633  0.71235  1.0000
  S   S39       1.0  0.27181  0.08342  0.70440  1.0000
  S   S40       1.0  0.18610  0.08658  0.72674  1.0000
  S   S41       1.0  0.22179  0.06273  0.70277  1.0000
  Fe  Fe21      1.0  0.12304  0.02389  0.53741  1.0000
  S   S42       1.0  0.12699  0.04633  0.56186  1.0000
  H   H147      1.0  0.03850  0.12034  0.52970  1.0000
  H   H148      1.0  0.23928  0.12830  0.76882  1.0000
  H   H149      1.0  0.18355  0.01111  0.78704  1.0000
  Fe  Fe22      1.0  0.15699  0.04561  0.54993  1.0000
  S   S43       1.0  0.18050  0.04296  0.57459  1.0000
  Fe  Fe23      1.0  0.12151  0.06689  0.53377  1.0000
  C   C116      1.0  0.22378  0.06819  0.57708  1.0000
  S   S44       1.0  0.15357  0.02151  0.52708  1.0000
  Fe  Fe24      1.0  0.37209  0.12856  0.65516  1.0000
  S   S45       1.0  0.38789  0.10703  0.63370  1.0000
  S   S46       1.0  0.34022  0.13076  0.66401  1.0000
  Fe  Fe25      1.0  0.40597  0.15390  0.65677  1.0000
  S   S47       1.0  0.42347  0.13396  0.63531  1.0000
  S   S48       1.0  0.42317  0.17821  0.66858  1.0000
  Fe  Fe26      1.0  0.39855  0.13195  0.61370  1.0000
  S   S49       1.0  0.40353  0.13679  0.57576  1.0000
  Fe  Fe27      1.0  0.41225  0.11026  0.65654  1.0000
  S   S50       1.0  0.43483  0.08636  0.66397  1.0000
  S   S51       1.0  0.38169  0.15345  0.63396  1.0000
  S   S52       1.0  0.39578  0.13021  0.67920  1.0000
  C   C117      1.0  0.39405  0.10657  0.52023  1.0000
  S   S53       1.0  0.47978  0.04993  0.74734  1.0000
  H   H150      1.0  0.23372  0.02034  0.74791  1.0000
  C   C118      1.0  0.44670  0.07606  0.68759  1.0000
  C   C119      1.0  0.44205  0.08114  0.70934  1.0000
  C   C120      1.0  0.45216  0.07288  0.72727  1.0000
  C   C121      1.0  0.46702  0.05924  0.72391  1.0000
  C   C122      1.0  0.47148  0.05394  0.70219  1.0000
  C   C123      1.0  0.46145  0.06231  0.68426  1.0000
  H   H151      1.0  0.43061  0.09138  0.71242  1.0000
  H   H152      1.0  0.44856  0.07728  0.74388  1.0000
  H   H153      1.0  0.48282  0.04355  0.69915  1.0000
  H   H154      1.0  0.46523  0.05810  0.66762  1.0000
  C   C124      1.0  0.40142  0.12945  0.54776  1.0000
  C   C125      1.0  0.40677  0.14168  0.53009  1.0000
  H   H155      1.0  0.42875  0.06109  0.51854  1.0000
  C   C126      1.0  0.47052  0.12771  0.73938  1.0000
  C   C127      1.0  0.39486  0.11187  0.54257  1.0000
  H   H156      1.0  0.41181  0.15534  0.53373  1.0000
  H   H157      1.0  0.39058  0.10224  0.55573  1.0000
  H   H158      1.0  0.47938  0.10748  0.68920  1.0000
  C   C128      1.0  0.44333  0.10506  0.52613  1.0000
  H   H159      1.0  0.25595  0.06165  0.66895  1.0000
  S   S54       1.0  0.15212  0.06820  0.52342  1.0000
  H   H160      1.0  0.44892  0.14637  0.66985  1.0000
  C   C129      1.0  0.29042  0.09672  0.69233  1.0000
  C   C130      1.0  0.30879  0.08838  0.69140  1.0000
  C   C131      1.0  0.32413  0.09838  0.68255  1.0000
  C   C132      1.0  0.32134  0.11698  0.67452  1.0000
  C   C133      1.0  0.30291  0.12523  0.67518  1.0000
  C   C134      1.0  0.28754  0.11518  0.68387  1.0000
  H   H161      1.0  0.31124  0.07410  0.69780  1.0000
  H   H162      1.0  0.33814  0.09177  0.68220  1.0000
  H   H163      1.0  0.30053  0.13960  0.66906  1.0000
  H   H164      1.0  0.27357  0.12185  0.68426  1.0000
  C   C135      1.0  0.18241  0.07637  0.63834  1.0000
  C   C136      1.0  0.19258  0.05912  0.63630  1.0000
  C   C137      1.0  0.19156  0.04881  0.61686  1.0000
  C   C138      1.0  0.18008  0.05544  0.59953  1.0000
  C   C139      1.0  0.16956  0.07247  0.60182  1.0000
  C   C140      1.0  0.17088  0.08295  0.62105  1.0000
  H   H165      1.0  0.20137  0.05383  0.64954  1.0000
  H   H166      1.0  0.19983  0.03570  0.61514  1.0000
  H   H167      1.0  0.16097  0.07787  0.58844  1.0000
  H   H168      1.0  0.16312  0.09638  0.62243  1.0000
  C   C141      1.0  0.14892  0.15808  0.79553  1.0000
  C   C142      1.0  0.15200  0.13870  0.79148  1.0000
  C   C143      1.0  0.16708  0.13204  0.77757  1.0000
  C   C144      1.0  0.17958  0.14466  0.76780  1.0000
  C   C145      1.0  0.17651  0.16405  0.77185  1.0000
  C   C146      1.0  0.16121  0.17075  0.78542  1.0000
  H   H169      1.0  0.14268  0.12872  0.79919  1.0000
  H   H170      1.0  0.16922  0.11710  0.77476  1.0000
  H   H171      1.0  0.18605  0.17399  0.76447  1.0000
  H   H172      1.0  0.15916  0.18567  0.78840  1.0000
  C   C147      1.0  0.07966  0.17906  0.95601  1.0000
  C   C148      1.0  0.09236  0.18892  0.94226  1.0000
  C   C149      1.0  0.08841  0.19316  0.91994  1.0000
  C   C150      1.0  0.07147  0.18802  0.91138  1.0000
  C   C151      1.0  0.05892  0.17796  0.92505  1.0000
  C   C152      1.0  0.06309  0.17329  0.94717  1.0000
  H   H173      1.0  0.10518  0.19349  0.94901  1.0000
  C   C153      1.0  0.33575  0.13066  0.53549  1.0000
  H   H174      1.0  0.04582  0.17383  0.91854  1.0000
  H   H175      1.0  0.05317  0.16575  0.95758  1.0000
  S   S55       1.0  0.06512  0.19400  0.88394  1.0000
  C   C154      1.0  0.30791  0.16081  0.73537  1.0000
  C   C155      1.0  0.04647  0.17676  0.74867  1.0000
  C   C156      1.0  0.04783  0.10789  0.52834  1.0000
  H   H176      1.0  0.25915  0.11388  0.76058  1.0000
  C   C157      1.0  0.30948  0.12702  0.73209  1.0000
  C   C158      1.0  0.27935  0.14324  0.74253  1.0000
  C   C159      1.0  0.03097  0.20707  0.78830  1.0000
  C   C160      1.0  0.01688  0.16674  0.68119  1.0000
  H   H177      1.0  0.36405  0.13922  0.53018  1.0000
  H   H178      1.0  0.43748  0.04367  0.76196  1.0000
  H   H179      1.0  0.24123  0.10671  0.64304  1.0000
  N   N12       1.0  0.25036  0.07753  0.63865  1.0000
  C   C161      1.0  0.27018  0.08242  0.63447  1.0000
  C   C162      1.0  0.24099  0.09276  0.65190  1.0000
  H   H180      1.0  0.27104  0.09552  0.62397  1.0000
  H   H181      1.0  0.27732  0.08485  0.65018  1.0000
  H   H182      1.0  0.27866  0.07103  0.62606  1.0000
  H   H183      1.0  0.24813  0.09441  0.66775  1.0000
  N   N13       1.0  0.10771  0.07814  0.61204  1.0000
  C   C163      1.0  0.09868  0.08964  0.62986  1.0000
  C   C164      1.0  0.12244  0.06542  0.62224  1.0000
  C   C165      1.0  0.11728  0.09090  0.59590  1.0000
  C   C166      1.0  0.09320  0.06800  0.60083  1.0000
  C   C167      1.0  0.09345  0.04797  0.59991  1.0000
  C   C168      1.0  0.07827  0.07823  0.59013  1.0000
  C   C169      1.0  0.08006  0.03896  0.58818  1.0000
  C   C170      1.0  0.06469  0.06904  0.57893  1.0000
  C   C171      1.0  0.06574  0.04947  0.57768  1.0000
  H   H184      1.0  0.09071  0.08064  0.64187  1.0000
  H   H185      1.0  0.10924  0.09696  0.63920  1.0000
  H   H186      1.0  0.08868  0.10082  0.62334  1.0000
  H   H187      1.0  0.13049  0.05692  0.60961  1.0000
  H   H188      1.0  0.11635  0.05569  0.63499  1.0000
  H   H189      1.0  0.13301  0.07345  0.63073  1.0000
  H   H190      1.0  0.10754  0.10199  0.58871  1.0000
  H   H191      1.0  0.12876  0.09829  0.60352  1.0000
  H   H192      1.0  0.12362  0.08294  0.58173  1.0000
  H   H193      1.0  0.04000  0.19748  0.68944  1.0000
  H   H194      1.0  0.07723  0.09348  0.58977  1.0000
  C   C172      1.0  0.17479  0.01085  0.86548  1.0000
  H   H195      1.0  0.05367  0.07721  0.57045  1.0000
  H   H196      1.0  0.10429  0.03891  0.60729  1.0000
  C   C173      1.0  0.20206  0.02497  0.83427  1.0000
  H   H197      1.0  0.44641  0.05728  0.58991  1.0000
  N   N14       1.0  0.10302  0.14028  0.87524  1.0000
  C   C174      1.0  0.11123  0.12927  0.85646  1.0000
  C   C175      1.0  0.08266  0.14375  0.87140  1.0000
  C   C176      1.0  0.11203  0.15867  0.87461  1.0000
  C   C177      1.0  0.10562  0.13077  0.89714  1.0000
  C   C178      1.0  0.11486  0.11264  0.89991  1.0000
  C   C179      1.0  0.09872  0.13969  0.91664  1.0000
  C   C180      1.0  0.11685  0.10412  0.92094  1.0000
  C   C181      1.0  0.10085  0.13112  0.93754  1.0000
  C   C182      1.0  0.10984  0.11333  0.93971  1.0000
  H   H198      1.0  0.10902  0.13691  0.84029  1.0000
  H   H199      1.0  0.12673  0.12693  0.85770  1.0000
  H   H200      1.0  0.10467  0.11546  0.85533  1.0000
  H   H201      1.0  0.07564  0.15321  0.88378  1.0000
  H   H202      1.0  0.07520  0.13033  0.87218  1.0000
  H   H203      1.0  0.08016  0.15081  0.85499  1.0000
  H   H204      1.0  0.12719  0.15688  0.87850  1.0000
  H   H205      1.0  0.11119  0.16570  0.85795  1.0000
  H   H206      1.0  0.10519  0.16878  0.88637  1.0000
  H   H207      1.0  0.12066  0.10475  0.88612  1.0000
  H   H208      1.0  0.09154  0.15339  0.91586  1.0000
  H   H209      1.0  0.12385  0.09027  0.92278  1.0000
  H   H210      1.0  0.09543  0.13833  0.95217  1.0000
  H   H211      1.0  0.11136  0.10669  0.95600  1.0000
  H   H212      1.0  0.21304  0.04646  0.81213  1.0000
  N   N15       1.0  0.25881  0.14247  0.74673  1.0000
  H   H213      1.0  0.45204  0.12172  0.67606  1.0000
  H   H214      1.0  0.09822  0.20078  0.90954  1.0000
  C   C183      1.0  0.47975  0.11043  0.70656  1.0000
  C   C184      1.0  0.42763  0.03316  0.76903  1.0000
  H   H215      1.0  0.26180  0.13198  0.78022  1.0000
  C   C185      1.0  0.41820  0.20150  0.67852  1.0000
  H   H216      1.0  0.08111  0.02373  0.58666  1.0000
  H   H217      1.0  0.24237  0.02803  0.80296  1.0000
  S   S56       1.0  0.50057  0.02510  0.79777  1.0000
  C   C186      1.0  0.49076  0.09779  0.71944  1.0000
  H   H218      1.0  0.44386  0.03144  0.80890  1.0000
  C   C187      1.0  0.25469  0.12857  0.76486  1.0000
  H   H219      1.0  0.28413  0.11293  0.73773  1.0000
  H   H220      1.0  0.24446  0.04545  0.57316  1.0000
  C   C188      1.0  0.25014  0.13652  0.72635  1.0000
  H   H221      1.0  0.05562  0.04247  0.56824  1.0000
  H   H222      1.0  0.23456  0.13681  0.72824  1.0000
  H   H223      1.0  0.46292  0.13904  0.74787  1.0000
  C   C189      1.0  0.49146  0.09988  0.74217  1.0000
  N   N16       1.0  0.01103  0.17515  0.70264  1.0000
  H   H224      1.0  0.46649  0.07159  0.58663  1.0000
  H   H225      1.0  0.33288  0.14449  0.72534  1.0000
  Fe  Fe28      1.0  0.07342  0.15032  0.00418  1.0000
  H   H226      1.0  0.46232  0.16380  0.72275  1.0000
  H   H227      1.0  0.42999  0.05976  0.55883  1.0000
  H   H228      1.0  0.41105  0.09728  0.59026  1.0000
  H   H229      1.0  0.31477  0.17411  0.73405  1.0000
  S   S57       1.0  0.10302  0.09353  0.53839  1.0000
  H   H230      1.0  0.25490  0.12190  0.72193  1.0000
  H   H231      1.0  0.25040  0.17162  0.73932  1.0000
  C   C190      1.0  0.43411  0.07252  0.55024  1.0000
  H   H232      1.0  0.04821  0.17169  0.76559  1.0000
  C   C191      1.0  0.23223  0.02228  0.81472  1.0000
  H   H233      1.0  0.38923  0.09283  0.51661  1.0000
  C   C192      1.0  0.21697  0.08286  0.59032  1.0000
  C   C193      1.0  0.43761  0.13917  0.71136  1.0000
  C   C194      1.0  0.43335  0.07311  0.52718  1.0000
  H   H234      1.0  0.42027  0.08459  0.61407  1.0000
  C   C195      1.0  0.43797  0.08934  0.51515  1.0000
  H   H235      1.0  0.28160  0.17394  0.74439  1.0000
  C   C196      1.0  0.28876  0.16048  0.74129  1.0000
  C   C197      1.0  0.20779  0.01804  0.76676  1.0000
  H   H236      1.0  0.44621  0.11790  0.51672  1.0000
  H   H237      1.0  0.25556  0.16628  0.76809  1.0000
  H   H238      1.0  0.45586  0.16947  0.69517  1.0000
  C   C198      1.0  0.24948  0.16083  0.75299  1.0000
  H   H239      1.0  0.48194  0.11632  0.76985  1.0000
  C   C199      1.0  0.45204  0.07099  0.59410  1.0000
  H   H240      1.0  0.25854  0.04803  0.64480  1.0000
  C   C200      1.0  0.25006  0.05984  0.65235  1.0000
  C   C201      1.0  0.43960  0.08827  0.56200  1.0000
  H   H241      1.0  0.22611  0.08966  0.65626  1.0000
  H   H242      1.0  0.47910  0.15963  0.70039  1.0000
  C   C202      1.0  0.24127  0.07483  0.61739  1.0000
  C   C203      1.0  0.22542  0.08615  0.61026  1.0000
  C   C204      1.0  0.21567  0.03267  0.81998  1.0000
  H   H243      1.0  0.23543  0.05522  0.65496  1.0000
  H   H244      1.0  0.21883  0.09725  0.62007  1.0000
  C   C205      1.0  0.04114  0.09132  0.52023  1.0000
  H   H245      1.0  0.42826  0.14916  0.70170  1.0000
  H   H246      1.0  0.43795  0.11727  0.59238  1.0000
  H   H247      1.0  0.45941  0.01544  0.75363  1.0000
  H   H248      1.0  0.44758  0.11765  0.55657  1.0000
  C   C206      1.0  0.24814  0.06031  0.60318  1.0000
  H   H249      1.0  0.26013  0.05118  0.60746  1.0000
  H   H250      1.0  0.18050  0.02266  0.87445  1.0000
  C   C207      1.0  0.29036  0.12651  0.73785  1.0000
  H   H251      1.0  0.46170  0.10707  0.58980  1.0000
  C   C208      1.0  0.42060  0.08520  0.59564  1.0000
  H   H252      1.0  0.43217  0.12485  0.71003  1.0000
  C   C209      1.0  0.23939  0.05699  0.58343  1.0000
  H   H253      1.0  0.49830  0.08584  0.71191  1.0000
  C   C210      1.0  0.44718  0.10449  0.59609  1.0000
  H   H254      1.0  0.44767  0.10318  0.61446  1.0000
  C   C211      1.0  0.02776  0.17928  0.71523  1.0000
  H   H255      1.0  0.41442  0.07211  0.59025  1.0000
  C   C212      1.0  0.06682  0.10845  0.53410  1.0000
  C   C213      1.0  0.44407  0.10468  0.54920  1.0000
  C   C214      1.0  0.00676  0.04382  0.00889  1.0000
  C   C215      1.0  0.31819  0.14414  0.73060  1.0000
  C   C216      1.0  0.46401  0.15890  0.70553  1.0000
  H   H256      1.0  0.31744  0.11410  0.72796  1.0000
  H   H257      1.0  0.23412  0.15952  0.75669  1.0000
  C   C217      1.0  0.22543  0.01135  0.75870  1.0000
  H   H258      1.0  0.25369  0.14601  0.71202  1.0000
  H   H259      1.0  0.18937  0.03363  0.83703  1.0000
  H   H260      1.0  0.41805  0.04049  0.78126  1.0000
  H   H261      1.0  0.46046  0.03468  0.78643  1.0000
  H   H262      1.0  0.21660  0.06519  0.56215  1.0000
  S   S58       1.0  0.11481  0.20678  0.85538  1.0000
  C   C218      1.0  0.01305  0.20083  0.78378  1.0000
  S   S59       1.0  0.02083  0.10552  0.99939  1.0000
  C   C219      1.0  0.07907  0.09241  0.53207  1.0000
  H   H263      1.0  0.47219  0.13622  0.67171  1.0000
  H   H264      1.0  0.16632  0.01672  0.85153  1.0000
  N   N17       1.0  0.45743  0.13957  0.70316  1.0000
  C   C220      1.0  0.48140  0.11484  0.75212  1.0000
  H   H265      1.0  0.07203  0.12139  0.53996  1.0000
  H   H266      1.0  0.41919  0.02926  0.75493  1.0000
  H   H267      1.0  0.20452  0.09121  0.58555  1.0000
  C   C221      1.0  0.46927  0.12586  0.71619  1.0000
  H   H268      1.0  0.30733  0.12194  0.53585  1.0000
  H   H269      1.0  0.06724  0.20525  0.71029  1.0000
  C   C222      1.0  0.45132  0.02421  0.79487  1.0000
  C   C223      1.0  0.07216  0.07576  0.52459  1.0000
  H   H270      1.0  0.02072  0.16368  0.74611  1.0000
  Fe  Fe29      1.0  0.50237  0.02776  0.76034  1.0000
  C   C224      1.0  0.45775  0.13569  0.67918  1.0000
  H   H271      1.0  0.03231  0.01009  0.51539  1.0000
  C   C225      1.0  0.05963  0.18854  0.73894  1.0000
  H   H272      1.0  0.02598  0.15370  0.68373  1.0000
  H   H273      1.0  0.33627  0.13122  0.55334  1.0000
  C   C226      1.0  0.35140  0.13516  0.52243  1.0000
  C   C227      1.0  0.05338  0.07529  0.51846  1.0000
  H   H274      1.0  0.03811  0.20189  0.80293  1.0000
  S   S60       1.0  0.11537  0.04454  0.51010  1.0000
  H   H275      1.0  0.01122  0.03651  0.99344  1.0000
  Fe  Fe30      1.0  0.08351  0.20555  0.85584  1.0000
  H   H276      1.0  0.08123  0.06318  0.52348  1.0000
  H   H277      1.0  0.02470  0.17661  0.67017  1.0000
  H   H278      1.0  0.00652  0.19083  0.79507  1.0000
  C   C228      1.0  0.31949  0.12543  0.52558  1.0000
  C   C229      1.0  0.04149  0.19122  0.70581  1.0000
  N   N18       1.0  0.43791  0.01666  0.77951  1.0000
  H   H279      1.0  0.38810  0.20122  0.67726  1.0000
  C   C230      1.0  0.05714  0.19576  0.71756  1.0000
  H   H280      1.0  0.49956  0.08962  0.75210  1.0000
  H   H281      1.0  0.07147  0.19255  0.74829  1.0000
  H   H282      1.0  0.46108  0.01289  0.80159  1.0000
  H   H283      1.0  0.04827  0.06240  0.51232  1.0000
  H   H284      1.0  0.00772  0.20329  0.68789  1.0000
  S   S61       1.0  0.01803  0.08988  0.51099  1.0000
  H   H285      1.0  0.43684  0.26696  0.45938  1.0000
  Fe  Fe31      1.0  0.10561  0.23009  0.21155  1.0000
  S   S62       1.0  0.11126  0.26152  0.21458  1.0000
  C   C231      1.0  0.46210  0.37604  0.39476  1.0000
  C   C232      1.0  0.18180  0.32442  0.15689  1.0000
  H   H286      1.0  0.33815  0.40411  0.34144  1.0000
  S   S63       1.0  0.43940  0.36809  0.47251  1.0000
  H   H287      1.0  0.45731  0.40724  0.09048  1.0000
  C   C233      1.0  0.07621  0.23357  0.10800  1.0000
  S   S64       1.0  0.34317  0.37313  0.23678  1.0000
  Fe  Fe32      1.0  0.44755  0.31180  0.35902  1.0000
  S   S65       1.0  0.41650  0.30914  0.35596  1.0000
  S   S66       1.0  0.46220  0.31532  0.39149  1.0000
  Fe  Fe33      1.0  0.45596  0.30296  0.31017  1.0000
  S   S67       1.0  0.42531  0.29869  0.30427  1.0000
  S   S68       1.0  0.47476  0.30372  0.27882  1.0000
  Fe  Fe34      1.0  0.41945  0.32511  0.32324  1.0000
  S   S69       1.0  0.40236  0.35188  0.31217  1.0000
  Fe  Fe35      1.0  0.42495  0.28278  0.33726  1.0000
  S   S70       1.0  0.40767  0.25683  0.34528  1.0000
  S   S71       1.0  0.45008  0.32995  0.32809  1.0000
  S   S72       1.0  0.45599  0.28484  0.34144  1.0000
  Fe  Fe36      1.0  0.13128  0.36143  0.14666  1.0000
  S   S73       1.0  0.11275  0.38296  0.12835  1.0000
  S   S74       1.0  0.12756  0.32946  0.14531  1.0000
  Fe  Fe37      1.0  0.15916  0.39103  0.15812  1.0000
  S   S75       1.0  0.32417  0.40550  0.18703  1.0000
  C   C234      1.0  0.43563  0.23736  0.46386  1.0000
  Fe  Fe38      1.0  0.13933  0.39403  0.11300  1.0000
  Fe  Fe39      1.0  0.33017  0.40141  0.22339  1.0000
  S   S76       1.0  0.13322  0.37994  0.17592  1.0000
  S   S77       1.0  0.15784  0.37144  0.12965  1.0000
  C   C235      1.0  0.19992  0.34077  0.18219  1.0000
  H   H288      1.0  0.20328  0.29125  0.23993  1.0000
  C   C236      1.0  0.09277  0.22587  0.11686  1.0000
  C   C237      1.0  0.12869  0.38185  0.04460  1.0000
  S   S78       1.0  0.47048  0.40382  0.49929  1.0000
  H   H289      1.0  0.32438  0.37021  0.28602  1.0000
  H   H290      1.0  0.12499  0.37227  0.05809  1.0000
  C   C238      1.0  0.49974  0.30259  0.27626  1.0000
  C   C239      1.0  0.39791  0.37281  0.22084  1.0000
  H   H291      1.0  0.46382  0.36048  0.36478  1.0000
  C   C240      1.0  0.06922  0.22617  0.08893  1.0000
  N   N19       1.0  0.18266  0.33005  0.18026  1.0000
  H   H292      1.0  0.49694  0.35620  0.45120  1.0000
  C   C241      1.0  0.36061  0.36752  0.25679  1.0000
  C   C242      1.0  0.36506  0.34843  0.26239  1.0000
  C   C243      1.0  0.37823  0.34331  0.27876  1.0000
  C   C244      1.0  0.38698  0.35726  0.28994  1.0000
  C   C245      1.0  0.38284  0.37632  0.28398  1.0000
  C   C246      1.0  0.36999  0.38141  0.26732  1.0000
  H   H293      1.0  0.35804  0.33753  0.25425  1.0000
  H   H294      1.0  0.38114  0.32860  0.28318  1.0000
  H   H295      1.0  0.38964  0.38723  0.29235  1.0000
  H   H296      1.0  0.36737  0.39608  0.26262  1.0000
  C   C247      1.0  0.44523  0.35235  0.45078  1.0000
  C   C248      1.0  0.43368  0.35244  0.43237  1.0000
  C   C249      1.0  0.43845  0.34097  0.41419  1.0000
  C   C250      1.0  0.45494  0.32940  0.41423  1.0000
  C   C251      1.0  0.46612  0.32884  0.43296  1.0000
  C   C252      1.0  0.46120  0.34009  0.45123  1.0000
  H   H297      1.0  0.42116  0.36170  0.43199  1.0000
  H   H298      1.0  0.42963  0.34143  0.39997  1.0000
  H   H299      1.0  0.47873  0.31971  0.43329  1.0000
  H   H300      1.0  0.46981  0.33935  0.46563  1.0000
  H   H301      1.0  0.18363  0.33663  0.14515  1.0000
  C   C253      1.0  0.13724  0.39861  0.04908  1.0000
  C   C254      1.0  0.43175  0.22743  0.36108  1.0000
  C   C255      1.0  0.41327  0.23394  0.35702  1.0000
  C   C256      1.0  0.39854  0.22207  0.36287  1.0000
  H   H302      1.0  0.44329  0.23618  0.35638  1.0000
  H   H303      1.0  0.38420  0.22688  0.35973  1.0000
  C   C257      1.0  0.21950  0.39684  0.19766  1.0000
  C   C258      1.0  0.42528  0.39869  0.11534  1.0000
  H   H304      1.0  0.06405  0.21177  0.02508  1.0000
  S   S79       1.0  0.14270  0.40505  0.07660  1.0000
  H   H305      1.0  0.43334  0.38997  0.10377  1.0000
  H   H306      1.0  0.05623  0.23250  0.08280  1.0000
  C   C259      1.0  0.19272  0.40244  0.02929  1.0000
  H   H307      1.0  0.20050  0.34730  0.19863  1.0000
  C   C260      1.0  0.11453  0.28034  0.19475  1.0000
  C   C261      1.0  0.11493  0.29896  0.20214  1.0000
  C   C262      1.0  0.11829  0.31425  0.18727  1.0000
  C   C263      1.0  0.12159  0.31109  0.16473  1.0000
  C   C264      1.0  0.12112  0.29249  0.15734  1.0000
  C   C265      1.0  0.11755  0.27723  0.17218  1.0000
  H   H308      1.0  0.11266  0.30157  0.21955  1.0000
  H   H309      1.0  0.11852  0.32842  0.19330  1.0000
  H   H310      1.0  0.12370  0.28982  0.13998  1.0000
  H   H311      1.0  0.11741  0.26304  0.16620  1.0000
  C   C266      1.0  0.19492  0.30948  0.21244  1.0000
  H   H312      1.0  0.04108  0.22922  0.25025  1.0000
  H   H313      1.0  0.49974  0.31036  0.24155  1.0000
  H   H314      1.0  0.16612  0.34746  0.20284  1.0000
  H   H315      1.0  0.16663  0.35606  0.17478  1.0000
  H   H316      1.0  0.19288  0.31334  0.15288  1.0000
  C   C267      1.0  0.23838  0.40219  0.19708  1.0000
  C   C268      1.0  0.16630  0.34303  0.18536  1.0000
  H   H317      1.0  0.42815  0.40617  0.07048  1.0000
  H   H318      1.0  0.21286  0.33170  0.17911  1.0000
  C   C269      1.0  0.17866  0.28174  0.22502  1.0000
  H   H319      1.0  0.09803  0.23139  0.13186  1.0000
  C   C270      1.0  0.16724  0.30060  0.19391  1.0000
  N   N20       1.0  0.43906  0.34584  0.24878  1.0000
  C   C271      1.0  0.45585  0.34071  0.23466  1.0000
  C   C272      1.0  0.44539  0.35277  0.27004  1.0000
  C   C273      1.0  0.42905  0.32829  0.25383  1.0000
  C   C274      1.0  0.42736  0.36081  0.23747  1.0000
  C   C275      1.0  0.40845  0.35839  0.23170  1.0000
  C   C276      1.0  0.43491  0.37850  0.23169  1.0000
  H   H320      1.0  0.06010  0.22979  0.04493  1.0000
  H   H321      1.0  0.35556  0.37690  0.35704  1.0000
  C   C277      1.0  0.40570  0.39004  0.21561  1.0000
  H   H322      1.0  0.46525  0.35263  0.23187  1.0000
  H   H323      1.0  0.46465  0.32901  0.24236  1.0000
  H   H324      1.0  0.45171  0.33599  0.21823  1.0000
  H   H325      1.0  0.45464  0.36484  0.26779  1.0000
  H   H326      1.0  0.45366  0.34157  0.27933  1.0000
  H   H327      1.0  0.43317  0.35738  0.28085  1.0000
  H   H328      1.0  0.41678  0.33092  0.26540  1.0000
  H   H329      1.0  0.42425  0.32190  0.23859  1.0000
  H   H330      1.0  0.43834  0.31728  0.26204  1.0000
  H   H331      1.0  0.40132  0.34559  0.23564  1.0000
  H   H332      1.0  0.44918  0.38136  0.23552  1.0000
  C   C278      1.0  0.43172  0.22022  0.45479  1.0000
  C   C279      1.0  0.17630  0.37356  0.03051  1.0000
  H   H333      1.0  0.35592  0.40834  0.10100  1.0000
  H   H334      1.0  0.47480  0.38669  0.01765  1.0000
  C   C280      1.0  0.34922  0.35837  0.33131  1.0000
  H   H335      1.0  0.17726  0.26979  0.23642  1.0000
  H   H336      1.0  0.50472  0.29438  0.31012  1.0000
  C   C281      1.0  0.20851  0.39846  0.17868  1.0000
  H   H337      1.0  0.50189  0.37463  0.46931  1.0000
  H   H338      1.0  0.01642  0.24262  0.27605  1.0000
  C   C282      1.0  0.03013  0.22045  0.25688  1.0000
  C   C283      1.0  0.18191  0.31327  0.19535  1.0000
  Fe  Fe40      1.0  0.45791  0.37534  0.50094  1.0000
  C   C284      1.0  0.42546  0.21987  0.43328  1.0000
  H   H339      1.0  0.49765  0.35204  0.36766  1.0000
  C   C285      1.0  0.34006  0.35659  0.31160  1.0000
  H   H340      1.0  0.08039  0.21321  0.29076  1.0000
  C   C286      1.0  0.47149  0.36551  0.37841  1.0000
  C   C287      1.0  0.41565  0.38957  0.13275  1.0000
  C   C288      1.0  0.34818  0.37558  0.34183  1.0000
  C   C289      1.0  0.50044  0.36659  0.39810  1.0000
  C   C290      1.0  0.33022  0.37211  0.30202  1.0000
  H   H341      1.0  0.34123  0.34328  0.30321  1.0000
  C   C291      1.0  0.32887  0.38990  0.31225  1.0000
  H   H342      1.0  0.47918  0.37420  0.45788  1.0000
  H   H343      1.0  0.08363  0.40228  0.10075  1.0000
  C   C292      1.0  0.10250  0.21090  0.10657  1.0000
  C   C293      1.0  0.33813  0.39117  0.33257  1.0000
  H   H344      1.0  0.01791  0.22389  0.20285  1.0000
  H   H345      1.0  0.44062  0.23754  0.48057  1.0000
  H   H346      1.0  0.41831  0.23558  0.40417  1.0000
  C   C294      1.0  0.47169  0.38159  0.41306  1.0000
  H   H347      1.0  0.08370  0.22280  0.03624  1.0000
  Fe  Fe41      1.0  0.11662  0.40247  0.15673  1.0000
  H   H348      1.0  0.21331  0.39153  0.21300  1.0000
  C   C295      1.0  0.49900  0.40154  0.02644  1.0000
  C   C296      1.0  0.40465  0.40003  0.14787  1.0000
  H   H349      1.0  0.35751  0.34649  0.33815  1.0000
  C   C297      1.0  0.16566  0.28512  0.20854  1.0000
  H   H350      1.0  0.06868  0.24522  0.11612  1.0000
  H   H351      1.0  0.24651  0.40093  0.21186  1.0000
  H   H352      1.0  0.16796  0.31896  0.15299  1.0000
  C   C298      1.0  0.19328  0.29386  0.22694  1.0000
  H   H353      1.0  0.38344  0.37071  0.21680  1.0000
  H   H354      1.0  0.46346  0.38860  0.42599  1.0000
  C   C299      1.0  0.06954  0.21748  0.04042  1.0000
  H   H355      1.0  0.20032  0.35289  0.17003  1.0000
  C   C300      1.0  0.49058  0.36074  0.38012  1.0000
  C   C301      1.0  0.12509  0.37730  0.02253  1.0000
  H   H356      1.0  0.15408  0.27585  0.20726  1.0000
  H   H357      1.0  0.15271  0.33659  0.18255  1.0000
  S   S80       1.0  0.18477  0.39123  0.18056  1.0000
  H   H358      1.0  0.29184  0.39660  0.30805  1.0000
  H   H359      1.0  0.15662  0.30276  0.18167  1.0000
  H   H360      1.0  0.20635  0.31848  0.21509  1.0000
  N   N21       1.0  0.42461  0.27183  0.41559  1.0000
  C   C302      1.0  0.42734  0.28937  0.42764  1.0000
  C   C303      1.0  0.43870  0.27096  0.39707  1.0000
  C   C304      1.0  0.40551  0.27351  0.40636  1.0000
  C   C305      1.0  0.42679  0.25438  0.42949  1.0000
  C   C306      1.0  0.42301  0.23665  0.42082  1.0000
  C   C307      1.0  0.43331  0.25424  0.45145  1.0000
  C   C308      1.0  0.42419  0.39287  0.22098  1.0000
  S   S81       1.0  0.08444  0.21775  0.18976  1.0000
  C   C309      1.0  0.49126  0.37737  0.41509  1.0000
  H   H361      1.0  0.44204  0.29002  0.43323  1.0000
  H   H362      1.0  0.42499  0.30222  0.41684  1.0000
  H   H363      1.0  0.41740  0.29082  0.44211  1.0000
  H   H364      1.0  0.45327  0.26933  0.40320  1.0000
  H   H365      1.0  0.43792  0.28403  0.38655  1.0000
  H   H366      1.0  0.43660  0.25909  0.38605  1.0000
  H   H367      1.0  0.39446  0.27261  0.41969  1.0000
  H   H368      1.0  0.40303  0.28710  0.39701  1.0000
  H   H369      1.0  0.40319  0.26240  0.39431  1.0000
  H   H370      1.0  0.16877  0.36298  0.04000  1.0000
  H   H371      1.0  0.11858  0.36423  0.01942  1.0000
  S   S82       1.0  0.09423  0.21564  0.24273  1.0000
  C   C310      1.0  0.01606  0.22804  0.27142  1.0000
  H   H372      1.0  0.41648  0.37430  0.13430  1.0000
  H   H373      1.0  0.18219  0.38906  0.05923  1.0000
  C   C311      1.0  0.18385  0.38828  0.04140  1.0000
  H   H374      1.0  0.39688  0.39294  0.16109  1.0000
  H   H375      1.0  0.48172  0.40617  0.44462  1.0000
  C   C312      1.0  0.47983  0.40002  0.02251  1.0000
  H   H376      1.0  0.02357  0.22359  0.32761  1.0000
  N   N22       1.0  0.50102  0.38302  0.43489  1.0000
  H   H377      1.0  0.44710  0.37914  0.39379  1.0000
  C   C313      1.0  0.02895  0.20945  0.32377  1.0000
  H   H378      1.0  0.05555  0.21877  0.31331  1.0000
  C   C314      1.0  0.49663  0.40329  0.43930  1.0000
  H   H379      1.0  0.43021  0.40632  0.21690  1.0000
  C   C315      1.0  0.49445  0.37153  0.45413  1.0000
  C   C316      1.0  0.07864  0.21071  0.07819  1.0000
  H   H380      1.0  0.39731  0.40124  0.20754  1.0000
  C   C317      1.0  0.21679  0.40542  0.15900  1.0000
  H   H381      1.0  0.20863  0.40675  0.14424  1.0000
  H   H382      1.0  0.50496  0.40822  0.45307  1.0000
  C   C318      1.0  0.43531  0.20953  0.37139  1.0000
  H   H383      1.0  0.33224  0.40003  0.26911  1.0000
  N   N23       1.0  0.31955  0.40646  0.30095  1.0000
  H   H384      1.0  0.30104  0.39126  0.28080  1.0000
  C   C319      1.0  0.30055  0.40197  0.29386  1.0000
  H   H385      1.0  0.44661  0.20883  0.30715  1.0000
  Fe  Fe42      1.0  0.10995  0.23516  0.83786  1.0000
  S   S83       1.0  0.07839  0.23457  0.84041  1.0000
  S   S84       1.0  0.12753  0.25904  0.84968  1.0000
  S   S85       1.0  0.06189  0.22875  0.77905  1.0000
  S   S86       1.0  0.11219  0.22231  0.80397  1.0000
  C   C320      1.0  0.18111  0.36970  0.96063  1.0000
  H   H386      1.0  0.25581  0.40405  0.87481  1.0000
  H   H387      1.0  0.07244  0.25722  0.89172  1.0000
  H   H388      1.0  0.16170  0.40243  0.96579  1.0000
  S   S87       1.0  0.33396  0.37928  0.80474  1.0000
  Fe  Fe43      1.0  0.46167  0.30213  0.72953  1.0000
  S   S88       1.0  0.43655  0.29159  0.74904  1.0000
  S   S89       1.0  0.49303  0.29506  0.73408  1.0000
  Fe  Fe44      1.0  0.43706  0.32402  0.69588  1.0000
  S   S90       1.0  0.41034  0.31533  0.71311  1.0000
  S   S91       1.0  0.43460  0.34547  0.66729  1.0000
  Fe  Fe45      1.0  0.42390  0.32149  0.74489  1.0000
  S   S92       1.0  0.41345  0.34175  0.77218  1.0000
  Fe  Fe46      1.0  0.42479  0.28614  0.71554  1.0000
  S   S93       1.0  0.40697  0.26185  0.70509  1.0000
  S   S94       1.0  0.44991  0.33200  0.72733  1.0000
  S   S95       1.0  0.45066  0.29481  0.69634  1.0000
  Fe  Fe47      1.0  0.47408  0.36580  0.54652  1.0000
  S   S96       1.0  0.44642  0.37914  0.53588  1.0000
  S   S97       1.0  0.47729  0.34256  0.57323  1.0000
  C   C321      1.0  0.09416  0.24342  0.95351  1.0000
  H   H389      1.0  0.10450  0.27657  0.93148  1.0000
  C   C322      1.0  0.06052  0.22568  0.94874  1.0000
  H   H390      1.0  0.38730  0.36328  0.89812  1.0000
  C   C323      1.0  0.38712  0.38681  0.72938  1.0000
  Fe  Fe48      1.0  0.12407  0.36761  0.89502  1.0000
  S   S98       1.0  0.10540  0.38832  0.91445  1.0000
  S   S99       1.0  0.10830  0.34430  0.87878  1.0000
  Fe  Fe49      1.0  0.15912  0.39081  0.90158  1.0000
  H   H391      1.0  0.12440  0.24784  0.92483  1.0000
  Fe  Fe50      1.0  0.08067  0.21994  0.80786  1.0000
  Fe  Fe51      1.0  0.12882  0.38863  0.93899  1.0000
  C   C324      1.0  0.49540  0.32622  0.68720  1.0000
  C   C325      1.0  0.20803  0.40043  0.88138  1.0000
  S   S100      1.0  0.14631  0.36642  0.92057  1.0000
  S   S101      1.0  0.13824  0.39027  0.87456  1.0000
  H   H392      1.0  0.15148  0.37643  0.81759  1.0000
  H   H393      1.0  0.48289  0.31106  0.77718  1.0000
  N   N24       1.0  0.49837  0.34655  0.68976  1.0000
  C   C326      1.0  0.44667  0.34426  0.64129  1.0000
  C   C327      1.0  0.44325  0.35877  0.62542  1.0000
  C   C328      1.0  0.45270  0.35857  0.60463  1.0000
  C   C329      1.0  0.46574  0.34384  0.59955  1.0000
  C   C330      1.0  0.46932  0.32941  0.61555  1.0000
  C   C331      1.0  0.45975  0.32954  0.63629  1.0000
  H   H394      1.0  0.43319  0.37024  0.62917  1.0000
  H   H395      1.0  0.44980  0.36974  0.59248  1.0000
  H   H396      1.0  0.47934  0.31793  0.61168  1.0000
  H   H397      1.0  0.46247  0.31826  0.64833  1.0000
  C   C332      1.0  0.10266  0.37914  0.79939  1.0000
  H   H398      1.0  0.33573  0.39256  0.75857  1.0000
  C   C333      1.0  0.01740  0.25069  0.80726  1.0000
  H   H399      1.0  0.35041  0.35843  0.84290  1.0000
  H   H400      1.0  0.09474  0.25676  0.87772  1.0000
  C   C334      1.0  0.43331  0.21241  0.68394  1.0000
  H   H401      1.0  0.48328  0.37289  0.68174  1.0000
  H   H402      1.0  0.10327  0.38266  0.85507  1.0000
  H   H403      1.0  0.37301  0.33553  0.82680  1.0000
  C   C335      1.0  0.35628  0.36945  0.79553  1.0000
  C   C336      1.0  0.35689  0.35390  0.78158  1.0000
  C   C337      1.0  0.37417  0.34554  0.77380  1.0000
  C   C338      1.0  0.39116  0.35239  0.78028  1.0000
  C   C339      1.0  0.39055  0.36790  0.79433  1.0000
  C   C340      1.0  0.37326  0.37650  0.80176  1.0000
  H   H404      1.0  0.34387  0.34825  0.77670  1.0000
  H   H405      1.0  0.37435  0.33356  0.76315  1.0000
  H   H406      1.0  0.40358  0.37325  0.79958  1.0000
  H   H407      1.0  0.37312  0.38835  0.81258  1.0000
  H   H408      1.0  0.06183  0.23412  0.91509  1.0000
  H   H409      1.0  0.08705  0.39306  0.83560  1.0000
  C   C341      1.0  0.39680  0.22773  0.68950  1.0000
  C   C342      1.0  0.41189  0.23860  0.69505  1.0000
  C   C343      1.0  0.43021  0.23081  0.69213  1.0000
  H   H410      1.0  0.38255  0.23355  0.69165  1.0000
  H   H411      1.0  0.44199  0.23890  0.69629  1.0000
  H   H412      1.0  0.34356  0.40629  0.87199  1.0000
  S   S102      1.0  0.12524  0.38248  0.97686  1.0000
  C   C344      1.0  0.06900  0.22506  0.96913  1.0000
  C   C345      1.0  0.12184  0.28279  0.85747  1.0000
  C   C346      1.0  0.10396  0.29150  0.85482  1.0000
  C   C347      1.0  0.10013  0.31024  0.86153  1.0000
  C   C348      1.0  0.11405  0.32058  0.87099  1.0000
  C   C349      1.0  0.13191  0.31186  0.87370  1.0000
  C   C350      1.0  0.13575  0.29312  0.86696  1.0000
  H   H413      1.0  0.09313  0.28387  0.84741  1.0000
  H   H414      1.0  0.08627  0.31682  0.85929  1.0000
  H   H415      1.0  0.14280  0.31957  0.88087  1.0000
  H   H416      1.0  0.14965  0.28659  0.86906  1.0000
  C   C351      1.0  0.12103  0.35933  0.82433  1.0000
  C   C352      1.0  0.03003  0.22667  0.75500  1.0000
  C   C353      1.0  0.09699  0.38081  0.83876  1.0000
  H   H417      1.0  0.03660  0.23668  0.74377  1.0000
  H   H418      1.0  0.09238  0.23332  0.98741  1.0000
  C   C354      1.0  0.12515  0.39379  0.82130  1.0000
  C   C355      1.0  0.37576  0.34145  0.84264  1.0000
  C   C356      1.0  0.49794  0.30810  0.77630  1.0000
  C   C357      1.0  0.17753  0.37291  0.00745  1.0000
  H   H419      1.0  0.36717  0.38668  0.75610  1.0000
  H   H420      1.0  0.21368  0.40224  0.96603  1.0000
  N   N25       1.0  0.11180  0.37844  0.82102  1.0000
  C   C358      1.0  0.18671  0.38703  0.99457  1.0000
  H   H421      1.0  0.32785  0.36835  0.86648  1.0000
  H   H422      1.0  0.09472  0.39286  0.79644  1.0000
  H   H423      1.0  0.48289  0.32185  0.69716  1.0000
  S   S103      1.0  0.48843  0.39329  0.54783  1.0000
  H   H424      1.0  0.35808  0.37248  0.91575  1.0000
  H   H425      1.0  0.12912  0.35845  0.83980  1.0000
  S   S104      1.0  0.30435  0.40677  0.85175  1.0000
  N   N26       1.0  0.09605  0.25288  0.91314  1.0000
  H   H426      1.0  0.32349  0.38164  0.89055  1.0000
  H   H427      1.0  0.11591  0.22928  0.90887  1.0000
  C   C359      1.0  0.36287  0.35460  0.85206  1.0000
  H   H428      1.0  0.10362  0.28084  0.90236  1.0000
  H   H429      1.0  0.36739  0.39996  0.86356  1.0000
  H   H430      1.0  0.10710  0.25018  0.95621  1.0000
  H   H431      1.0  0.03049  0.24778  0.81569  1.0000
  C   C360      1.0  0.19415  0.40189  0.00622  1.0000
  H   H432      1.0  0.08216  0.28003  0.91869  1.0000
  H   H433      1.0  0.18882  0.35676  0.96699  1.0000
  C   C361      1.0  0.08628  0.24372  0.93226  1.0000
  C   C362      1.0  0.08680  0.25033  0.89190  1.0000
  N   N27       1.0  0.41685  0.28606  0.63861  1.0000
  C   C363      1.0  0.41376  0.29937  0.65693  1.0000
  C   C364      1.0  0.39922  0.27633  0.63564  1.0000
  C   C365      1.0  0.43141  0.27157  0.64566  1.0000
  C   C366      1.0  0.42208  0.29656  0.61798  1.0000
  C   C367      1.0  0.43887  0.29223  0.60538  1.0000
  C   C368      1.0  0.41030  0.31187  0.61006  1.0000
  C   C369      1.0  0.44367  0.30297  0.58645  1.0000
  C   C370      1.0  0.41534  0.32259  0.59124  1.0000
  C   C371      1.0  0.43204  0.31821  0.57954  1.0000
  H   H434      1.0  0.40168  0.30962  0.65442  1.0000
  H   H435      1.0  0.41069  0.29186  0.67293  1.0000
  H   H436      1.0  0.42637  0.30769  0.65890  1.0000
  H   H437      1.0  0.39512  0.26801  0.65085  1.0000
  H   H438      1.0  0.40082  0.26638  0.62176  1.0000
  H   H439      1.0  0.38719  0.28641  0.63207  1.0000
  H   H440      1.0  0.44502  0.27801  0.64848  1.0000
  H   H441      1.0  0.42726  0.26436  0.66155  1.0000
  H   H442      1.0  0.43364  0.26025  0.63340  1.0000
  H   H443      1.0  0.44876  0.28091  0.61000  1.0000
  H   H444      1.0  0.39725  0.31591  0.61863  1.0000
  H   H445      1.0  0.45688  0.29999  0.57750  1.0000
  H   H446      1.0  0.40647  0.33463  0.58593  1.0000
  H   H447      1.0  0.43627  0.32691  0.56537  1.0000
  N   N28       1.0  0.35296  0.37794  0.88115  1.0000
  H   H448      1.0  0.50234  0.31797  0.80900  1.0000
  H   H449      1.0  0.08817  0.36831  0.84071  1.0000
  C   C372      1.0  0.35763  0.38438  0.90337  1.0000
  C   C373      1.0  0.36628  0.36310  0.87237  1.0000
  C   C374      1.0  0.20797  0.38847  0.96230  1.0000
  H   H450      1.0  0.16576  0.36847  0.96421  1.0000
  H   H451      1.0  0.34822  0.39119  0.84912  1.0000
  C   C375      1.0  0.08571  0.23403  0.97158  1.0000
  H   H452      1.0  0.08596  0.23508  0.88837  1.0000
  H   H453      1.0  0.21714  0.37706  0.96989  1.0000
  H   H454      1.0  0.40249  0.32637  0.84551  1.0000
  H   H455      1.0  0.39380  0.37338  0.73463  1.0000
  H   H456      1.0  0.47495  0.36763  0.71958  1.0000
  H   H457      1.0  0.40920  0.34027  0.88125  1.0000
  H   H458      1.0  0.09254  0.36776  0.79834  1.0000
  H   H459      1.0  0.11327  0.37746  0.78559  1.0000
  C   C376      1.0  0.22734  0.39820  0.88573  1.0000
  H   H460      1.0  0.02907  0.27141  0.78508  1.0000
  C   C377      1.0  0.12993  0.38934  0.00448  1.0000
  C   C378      1.0  0.39616  0.34425  0.87320  1.0000
  C   C379      1.0  0.09659  0.27343  0.91663  1.0000
  H   H461      1.0  0.48079  0.35481  0.66226  1.0000
  Fe  Fe52      1.0  0.46143  0.40638  0.53487  1.0000
  C   C380      1.0  0.06892  0.23486  0.93051  1.0000
  N   N29       1.0  0.18810  0.38699  0.97011  1.0000
  C   C381      1.0  0.11564  0.24485  0.91068  1.0000
  H   H462      1.0  0.23175  0.39041  0.90044  1.0000
  H   H463      1.0  0.49543  0.36291  0.93139  1.0000
  C   C382      1.0  0.38337  0.35749  0.88276  1.0000
  C   C383      1.0  0.35304  0.39455  0.86578  1.0000
  H   H464      1.0  0.12305  0.25087  0.89579  1.0000
  C   C384      1.0  0.33361  0.37105  0.88287  1.0000
  S   S105      1.0  0.19143  0.39019  0.90040  1.0000
  H   H465      1.0  0.33317  0.35774  0.89304  1.0000
  H   H466      1.0  0.47972  0.37186  0.75845  1.0000
  C   C385      1.0  0.01216  0.22036  0.75042  1.0000
  H   H467      1.0  0.13060  0.35531  0.81021  1.0000
  C   C386      1.0  0.39241  0.33633  0.85313  1.0000
  H   H468      1.0  0.37126  0.39141  0.90303  1.0000
  C   C387      1.0  0.03953  0.22011  0.77396  1.0000
  H   H469      1.0  0.49443  0.34117  0.90131  1.0000
  H   H470      1.0  0.11064  0.34811  0.82605  1.0000
  H   H471      1.0  0.34696  0.39514  0.90969  1.0000
  H   H472      1.0  0.50119  0.36941  0.96952  1.0000
  C   C388      1.0  0.14500  0.39038  0.81940  1.0000
  C   C389      1.0  0.48768  0.36125  0.72630  1.0000
  H   H473      1.0  0.18294  0.36984  0.94227  1.0000
  H   H474      1.0  0.49314  0.32282  0.66969  1.0000
  H   H475      1.0  0.04777  0.21825  0.94676  1.0000
  C   C390      1.0  0.48208  0.35743  0.68018  1.0000
  H   H476      1.0  0.17068  0.36151  0.00013  1.0000
  H   H477      1.0  0.46856  0.35332  0.68817  1.0000
  H   H478      1.0  0.17800  0.40411  0.94261  1.0000
  H   H479      1.0  0.50063  0.38921  0.94972  1.0000
  C   C391      1.0  0.01657  0.26400  0.78994  1.0000
  Fe  Fe53      1.0  0.32293  0.40672  0.82081  1.0000
  H   H480      1.0  0.20952  0.38734  0.94397  1.0000
  H   H481      1.0  0.17235  0.40214  0.82009  1.0000
  C   C392      1.0  0.39380  0.39626  0.71048  1.0000
  H   H482      1.0  0.06286  0.21710  0.98285  1.0000
  C   C393      1.0  0.17686  0.40337  0.96100  1.0000
  C   C394      1.0  0.15725  0.40510  0.82073  1.0000
  H   H483      1.0  0.40560  0.39012  0.70094  1.0000
  C   C395      1.0  0.24107  0.40592  0.87120  1.0000
  C   C396      1.0  0.37183  0.39456  0.74164  1.0000
  C   C397      1.0  0.49025  0.36387  0.74879  1.0000
  Fe  Fe54      1.0  0.49651  0.38876  0.51222  1.0000
  C   C398      1.0  0.39989  0.20934  0.68132  1.0000
  S   S106      1.0  0.48458  0.36000  0.51155  1.0000
  C   C399      1.0  0.50091  0.35020  0.71343  1.0000
  H   H484      1.0  0.32710  0.40247  0.73303  1.0000
  C   C400      1.0  0.13825  0.40623  0.00901  1.0000
  C   C401      1.0  0.33138  0.40600  0.74985  1.0000
  Fe  Fe55      1.0  0.38810  0.44670  0.03899  1.0000
  H   H485      1.0  0.06433  0.46165  0.07685  1.0000
  S   S107      1.0  0.37139  0.42966  0.06453  1.0000
  Fe  Fe56      1.0  0.42827  0.45391  0.02448  1.0000
  H   H486      1.0  0.34969  0.41524  0.14060  1.0000
  H   H487      1.0  0.35547  0.60077  0.22727  1.0000
  H   H488      1.0  0.45242  0.41455  0.02165  1.0000
  C   C402      1.0  0.44246  0.47143  0.50091  1.0000
  S   S108      1.0  0.40744  0.46935  0.04695  1.0000
  S   S109      1.0  0.30102  0.41259  0.23380  1.0000
  Fe  Fe57      1.0  0.31404  0.44106  0.23416  1.0000
  H   H489      1.0  0.14836  0.42384  0.03418  1.0000
  S   S110      1.0  0.30798  0.45861  0.26499  1.0000
  Fe  Fe58      1.0  0.33545  0.43419  0.19013  1.0000
  S   S111      1.0  0.35554  0.44889  0.16586  1.0000
  H   H490      1.0  0.42449  0.57507  0.01277  1.0000
  H   H491      1.0  0.46077  0.56116  0.47694  1.0000
  S   S112      1.0  0.30717  0.44812  0.19885  1.0000
  S   S113      1.0  0.34331  0.42934  0.22576  1.0000
  H   H492      1.0  0.48190  0.53449  0.02685  1.0000
  S   S114      1.0  0.40966  0.43021  0.01819  1.0000
  Fe  Fe59      1.0  0.39744  0.48408  0.01589  1.0000
  S   S115      1.0  0.14252  0.41468  0.14054  1.0000
  S   S116      1.0  0.37027  0.58261  0.47125  1.0000
  H   H493      1.0  0.26846  0.60624  0.40006  1.0000
  C   C403      1.0  0.09175  0.42515  0.04025  1.0000
  S   S117      1.0  0.30387  0.56592  0.33943  1.0000
  C   C404      1.0  0.08156  0.44040  0.03082  1.0000
  H   H494      1.0  0.43776  0.45453  0.10844  1.0000
  S   S118      1.0  0.34599  0.57015  0.31752  1.0000
  Fe  Fe60      1.0  0.31718  0.56676  0.30510  1.0000
  S   S119      1.0  0.31585  0.54728  0.27570  1.0000
  Fe  Fe61      1.0  0.33263  0.57162  0.35141  1.0000
  S   S120      1.0  0.34530  0.55299  0.37899  1.0000
  C   C405      1.0  0.33113  0.41155  0.28116  1.0000
  C   C406      1.0  0.46715  0.41577  0.02479  1.0000
  S   S121      1.0  0.10016  0.57845  0.38931  1.0000
  H   H495      1.0  0.10056  0.41081  0.06970  1.0000
  S   S122      1.0  0.14689  0.59454  0.41276  1.0000
  H   H496      1.0  0.46207  0.43003  0.07959  1.0000
  H   H497      1.0  0.06391  0.46522  0.03689  1.0000
  Fe  Fe62      1.0  0.03214  0.52469  0.29577  1.0000
  S   S123      1.0  0.03402  0.52821  0.25862  1.0000
  S   S124      1.0  0.05081  0.54590  0.31241  1.0000
  Fe  Fe63      1.0  0.03576  0.49631  0.25750  1.0000
  S   S125      1.0  0.06174  0.48209  0.23928  1.0000
  S   S126      1.0  0.03504  0.49275  0.29479  1.0000
  C   C407      1.0  0.08214  0.43628  0.18898  1.0000
  C   C408      1.0  0.09487  0.44562  0.20139  1.0000
  C   C409      1.0  0.08834  0.45944  0.21661  1.0000
  C   C410      1.0  0.06898  0.46413  0.21995  1.0000
  C   C411      1.0  0.05624  0.45470  0.20763  1.0000
  C   C412      1.0  0.06279  0.44101  0.19224  1.0000
  H   H498      1.0  0.10978  0.44227  0.19918  1.0000
  H   H499      1.0  0.09844  0.46648  0.22592  1.0000
  H   H500      1.0  0.04134  0.45804  0.20984  1.0000
  Fe  Fe64      1.0  0.34035  0.60155  0.31413  1.0000
  C   C413      1.0  0.08625  0.57006  0.36765  1.0000
  C   C414      1.0  0.08424  0.57953  0.34713  1.0000
  C   C415      1.0  0.07317  0.57214  0.33068  1.0000
  C   C416      1.0  0.06386  0.55516  0.33432  1.0000
  C   C417      1.0  0.06595  0.54568  0.35480  1.0000
  C   C418      1.0  0.07697  0.55308  0.37125  1.0000
  H   H501      1.0  0.09118  0.59258  0.34393  1.0000
  H   H502      1.0  0.07184  0.57964  0.31495  1.0000
  H   H503      1.0  0.05907  0.53259  0.35798  1.0000
  H   H504      1.0  0.07834  0.54552  0.38693  1.0000
  H   H505      1.0  0.28228  0.47342  0.13709  1.0000
  H   H506      1.0  0.42563  0.50717  0.03543  1.0000
  H   H507      1.0  0.40359  0.44462  0.50506  1.0000
  C   C419      1.0  0.47545  0.55945  0.48276  1.0000
  H   H508      1.0  0.12529  0.55339  0.46200  1.0000
  C   C420      1.0  0.49601  0.52759  0.02319  1.0000
  H   H509      1.0  0.11175  0.42053  0.10189  1.0000
  C   C421      1.0  0.07178  0.45334  0.04434  1.0000
  C   C422      1.0  0.36524  0.57423  0.44492  1.0000
  C   C423      1.0  0.35811  0.58710  0.42879  1.0000
  C   C424      1.0  0.35257  0.58087  0.40824  1.0000
  C   C425      1.0  0.35366  0.56163  0.40383  1.0000
  C   C426      1.0  0.36101  0.54876  0.41982  1.0000
  C   C427      1.0  0.36693  0.55503  0.44022  1.0000
  H   H510      1.0  0.49731  0.55654  0.04900  1.0000
  H   H511      1.0  0.34732  0.59091  0.39590  1.0000
  H   H512      1.0  0.36196  0.53385  0.41655  1.0000
  H   H513      1.0  0.37230  0.54499  0.45254  1.0000
  C   C428      1.0  0.30947  0.48342  0.26731  1.0000
  C   C429      1.0  0.31528  0.49500  0.24954  1.0000
  C   C430      1.0  0.31691  0.51451  0.25239  1.0000
  C   C431      1.0  0.31271  0.52272  0.27296  1.0000
  C   C432      1.0  0.30638  0.51122  0.29054  1.0000
  C   C433      1.0  0.30495  0.49167  0.28778  1.0000
  H   H514      1.0  0.31868  0.48892  0.23366  1.0000
  H   H515      1.0  0.32159  0.52330  0.23859  1.0000
  H   H516      1.0  0.30229  0.51745  0.30613  1.0000
  H   H517      1.0  0.30012  0.48293  0.30154  1.0000
  H   H518      1.0  0.29289  0.41462  0.28646  1.0000
  H   H519      1.0  0.32800  0.57866  0.49027  1.0000
  H   H520      1.0  0.27190  0.43448  0.12840  1.0000
  C   C434      1.0  0.32855  0.48491  0.09634  1.0000
  C   C435      1.0  0.30376  0.60470  0.45156  1.0000
  N   N30       1.0  0.43389  0.42786  0.09343  1.0000
  H   H521      1.0  0.43954  0.45531  0.07894  1.0000
  H   H522      1.0  0.27379  0.45182  0.10620  1.0000
  C   C436      1.0  0.43924  0.55265  0.03084  1.0000
  H   H523      1.0  0.33095  0.42895  0.31883  1.0000
  Fe  Fe65      1.0  0.12006  0.60264  0.39524  1.0000
  H   H524      1.0  0.49785  0.44768  0.04033  1.0000
  H   H525      1.0  0.10435  0.43172  0.12676  1.0000
  H   H526      1.0  0.31555  0.42269  0.12469  1.0000
  C   C437      1.0  0.41043  0.54881  0.01131  1.0000
  C   C438      1.0  0.36801  0.43498  0.09285  1.0000
  C   C439      1.0  0.35961  0.42174  0.10725  1.0000
  C   C440      1.0  0.35592  0.42568  0.12966  1.0000
  C   C441      1.0  0.36026  0.44311  0.13783  1.0000
  C   C442      1.0  0.36899  0.45623  0.12352  1.0000
  C   C443      1.0  0.37289  0.45219  0.10114  1.0000
  H   H527      1.0  0.37251  0.46970  0.12972  1.0000
  H   H528      1.0  0.37921  0.46257  0.09021  1.0000
  S   S127      1.0  0.27053  0.41607  0.17538  1.0000
  H   H529      1.0  0.35675  0.60196  0.43232  1.0000
  H   H530      1.0  0.05272  0.43395  0.18285  1.0000
  N   N31       1.0  0.29554  0.59741  0.41275  1.0000
  H   H531      1.0  0.34396  0.48162  0.06540  1.0000
  H   H532      1.0  0.30072  0.42454  0.14885  1.0000
  H   H533      1.0  0.45044  0.52744  0.04744  1.0000
  N   N32       1.0  0.29816  0.44851  0.12629  1.0000
  C   C444      1.0  0.30934  0.43280  0.13687  1.0000
  C   C445      1.0  0.29062  0.46108  0.14401  1.0000
  C   C446      1.0  0.28179  0.44067  0.11581  1.0000
  C   C447      1.0  0.31023  0.45811  0.10951  1.0000
  C   C448      1.0  0.31665  0.47654  0.11222  1.0000
  C   C449      1.0  0.31675  0.44861  0.09021  1.0000
  H   H534      1.0  0.39353  0.47803  0.49763  1.0000
  C   C450      1.0  0.32850  0.45718  0.07438  1.0000
  C   C451      1.0  0.33442  0.47527  0.07745  1.0000
  H   H535      1.0  0.08624  0.55261  0.48711  1.0000
  C   C452      1.0  0.27517  0.60222  0.41603  1.0000
  S   S128      1.0  0.32880  0.60314  0.34932  1.0000
  H   H536      1.0  0.30205  0.46623  0.15401  1.0000
  H   H537      1.0  0.07387  0.56806  0.46789  1.0000
  C   C453      1.0  0.07216  0.45110  0.06738  1.0000
  Fe  Fe66      1.0  0.38833  0.56725  0.49714  1.0000
  H   H538      1.0  0.47430  0.51177  0.48515  1.0000
  H   H539      1.0  0.12025  0.55446  0.49094  1.0000
  H   H540      1.0  0.34563  0.41469  0.28564  1.0000
  H   H541      1.0  0.31330  0.43424  0.08746  1.0000
  H   H542      1.0  0.48516  0.56202  0.46835  1.0000
  H   H543      1.0  0.33365  0.44946  0.06002  1.0000
  H   H544      1.0  0.09147  0.58929  0.44253  1.0000
  N   N33       1.0  0.09872  0.51324  0.27654  1.0000
  C   C454      1.0  0.10771  0.50100  0.25932  1.0000
  C   C455      1.0  0.08629  0.50140  0.29068  1.0000
  C   C456      1.0  0.08690  0.52809  0.26515  1.0000
  C   C457      1.0  0.11239  0.52213  0.29037  1.0000
  C   C458      1.0  0.13221  0.51983  0.28681  1.0000
  C   C459      1.0  0.10595  0.53362  0.30808  1.0000
  C   C460      1.0  0.14460  0.52854  0.30028  1.0000
  C   C461      1.0  0.11842  0.54220  0.32148  1.0000
  C   C462      1.0  0.13772  0.53969  0.31758  1.0000
  H   H545      1.0  0.11634  0.48910  0.26677  1.0000
  H   H546      1.0  0.09705  0.49451  0.24932  1.0000
  H   H547      1.0  0.11653  0.50917  0.24736  1.0000
  H   H548      1.0  0.09462  0.49091  0.30084  1.0000
  H   H549      1.0  0.07670  0.49347  0.28062  1.0000
  H   H550      1.0  0.07697  0.50992  0.30209  1.0000
  H   H551      1.0  0.09566  0.53778  0.25495  1.0000
  H   H552      1.0  0.07680  0.52186  0.25408  1.0000
  H   H553      1.0  0.07824  0.53687  0.27696  1.0000
  H   H554      1.0  0.13851  0.51139  0.27374  1.0000
  H   H555      1.0  0.09112  0.53605  0.31163  1.0000
  H   H556      1.0  0.15966  0.52665  0.29730  1.0000
  H   H557      1.0  0.11304  0.55088  0.33497  1.0000
  H   H558      1.0  0.14733  0.54644  0.32800  1.0000
  N   N34       1.0  0.35635  0.51203  0.33067  1.0000
  C   C463      1.0  0.37058  0.52640  0.32657  1.0000
  C   C464      1.0  0.33734  0.52151  0.33036  1.0000
  C   C465      1.0  0.35908  0.50395  0.35333  1.0000
  C   C466      1.0  0.35798  0.49785  0.31317  1.0000
  C   C467      1.0  0.35624  0.50359  0.29064  1.0000
  C   C468      1.0  0.36068  0.47813  0.31781  1.0000
  C   C469      1.0  0.35710  0.49048  0.27385  1.0000
  C   C470      1.0  0.36135  0.46512  0.30084  1.0000
  C   C471      1.0  0.35942  0.47128  0.27894  1.0000
  H   H559      1.0  0.36992  0.53710  0.33976  1.0000
  H   H560      1.0  0.38505  0.51976  0.32596  1.0000
  H   H561      1.0  0.36852  0.53449  0.31076  1.0000
  H   H562      1.0  0.33476  0.52948  0.31458  1.0000
  H   H563      1.0  0.33517  0.53190  0.34366  1.0000
  H   H564      1.0  0.32624  0.51110  0.33266  1.0000
  H   H565      1.0  0.37324  0.49678  0.35487  1.0000
  H   H566      1.0  0.35801  0.51514  0.36593  1.0000
  H   H567      1.0  0.34808  0.49389  0.35818  1.0000
  H   H568      1.0  0.35362  0.51828  0.28581  1.0000
  H   H569      1.0  0.36212  0.47241  0.33440  1.0000
  H   H570      1.0  0.35533  0.49525  0.25682  1.0000
  H   H571      1.0  0.36322  0.45015  0.30466  1.0000
  H   H572      1.0  0.35947  0.46119  0.26584  1.0000
  C   C472      1.0  0.07551  0.41435  0.10829  1.0000
  H   H573      1.0  0.09005  0.54978  0.45797  1.0000
  C   C473      1.0  0.49948  0.53823  0.49909  1.0000
  H   H574      1.0  0.21605  0.58285  0.34513  1.0000
  H   H575      1.0  0.49835  0.51677  0.03664  1.0000
  C   C474      1.0  0.30379  0.59167  0.43421  1.0000
  C   C475      1.0  0.32051  0.56876  0.45870  1.0000
  H   H576      1.0  0.31333  0.56259  0.42628  1.0000
  H   H577      1.0  0.48248  0.52653  0.46205  1.0000
  C   C476      1.0  0.43942  0.53345  0.03716  1.0000
  C   C477      1.0  0.12096  0.56319  0.47547  1.0000
  C   C478      1.0  0.10316  0.43269  0.10847  1.0000
  H   H578      1.0  0.00832  0.43271  0.31538  1.0000
  C   C479      1.0  0.41061  0.52961  0.01772  1.0000
  C   C480      1.0  0.31226  0.59996  0.47160  1.0000
  C   C481      1.0  0.43189  0.44881  0.09338  1.0000
  C   C482      1.0  0.45431  0.42251  0.09325  1.0000
  H   H579      1.0  0.29129  0.58728  0.38012  1.0000
  Fe  Fe67      1.0  0.30034  0.59762  0.33548  1.0000
  H   H580      1.0  0.07573  0.41168  0.12651  1.0000
  C   C483      1.0  0.50543  0.41880  0.03270  1.0000
  C   C484      1.0  0.47370  0.52628  0.47757  1.0000
  C   C485      1.0  0.07262  0.44753  0.11461  1.0000
  H   H581      1.0  0.33352  0.49885  0.09887  1.0000
  H   H582      1.0  0.32503  0.42413  0.27223  1.0000
  H   H583      1.0  0.05738  0.44797  0.11111  1.0000
  H   H584      1.0  0.41073  0.44406  0.12744  1.0000
  C   C486      1.0  0.09875  0.58809  0.48791  1.0000
  H   H585      1.0  0.10855  0.57116  0.43564  1.0000
  H   H586      1.0  0.31267  0.57860  0.39222  1.0000
  S   S129      1.0  0.45828  0.45289  0.03548  1.0000
  H   H587      1.0  0.32103  0.43825  0.14614  1.0000
  H   H588      1.0  0.24185  0.41600  0.14304  1.0000
  S   S130      1.0  0.45710  0.56658  0.04022  1.0000
  H   H589      1.0  0.28121  0.45353  0.15601  1.0000
  H   H590      1.0  0.07822  0.46172  0.11120  1.0000
  C   C487      1.0  0.24225  0.59654  0.34786  1.0000
  S   S131      1.0  0.31178  0.59828  0.30002  1.0000
  C   C488      1.0  0.08249  0.43569  0.07752  1.0000
  H   H591      1.0  0.46064  0.42602  0.10906  1.0000
  H   H592      1.0  0.43273  0.42851  0.05794  1.0000
  C   C489      1.0  0.10480  0.58207  0.44809  1.0000
  C   C490      1.0  0.47363  0.43300  0.03125  1.0000
  S   S132      1.0  0.18733  0.60444  0.36894  1.0000
  C   C491      1.0  0.42480  0.56028  0.01768  1.0000
  H   H593      1.0  0.44310  0.47155  0.48304  1.0000
  C   C492      1.0  0.42415  0.41865  0.11254  1.0000
  H   H594      1.0  0.09943  0.41511  0.02972  1.0000
  H   H595      1.0  0.26771  0.59002  0.42340  1.0000
  N   N35       1.0  0.08332  0.43277  0.10180  1.0000
  H   H596      1.0  0.45110  0.44191  0.50417  1.0000
  H   H597      1.0  0.30943  0.43530  0.30609  1.0000
  C   C493      1.0  0.29761  0.58250  0.39603  1.0000
  N   N36       1.0  0.47945  0.54051  0.49321  1.0000
  H   H598      1.0  0.11615  0.59225  0.44698  1.0000
  H   H599      1.0  0.10999  0.44573  0.10245  1.0000
  C   C494      1.0  0.08763  0.56045  0.47103  1.0000
  H   H600      1.0  0.47668  0.57110  0.49436  1.0000
  H   H601      1.0  0.39449  0.42773  0.15732  1.0000
  H   H602      1.0  0.41061  0.42510  0.07228  1.0000
  C   C495      1.0  0.31225  0.57339  0.43850  1.0000
  C   C496      1.0  0.42601  0.42161  0.07269  1.0000
  H   H603      1.0  0.32761  0.55504  0.46131  1.0000
  H   H604      1.0  0.30907  0.42027  0.33042  1.0000
  H   H605      1.0  0.06070  0.41375  0.10321  1.0000
  H   H606      1.0  0.41692  0.45391  0.09212  1.0000
  H   H607      1.0  0.08133  0.44220  0.01299  1.0000
  H   H608      1.0  0.07366  0.44475  0.13280  1.0000
  C   C497      1.0  0.42530  0.52193  0.03043  1.0000
  H   H609      1.0  0.19812  0.41413  0.03784  1.0000
  Fe  Fe68      1.0  0.46175  0.59597  0.02623  1.0000
  C   C498      1.0  0.09227  0.42280  0.06322  1.0000
  S   S133      1.0  0.42957  0.50821  0.49625  1.0000
  H   H610      1.0  0.45880  0.52894  0.47275  1.0000
  H   H611      1.0  0.25021  0.58651  0.33770  1.0000
  C   C499      1.0  0.49275  0.43442  0.03528  1.0000
  H   H612      1.0  0.28595  0.42900  0.10459  1.0000
  H   H613      1.0  0.29031  0.56960  0.40150  1.0000
  N   N37       1.0  0.10295  0.57382  0.47083  1.0000
  C   C500      1.0  0.41285  0.42889  0.12834  1.0000
  H   H614      1.0  0.31299  0.48468  0.12663  1.0000
  C   C501      1.0  0.09489  0.60755  0.48266  1.0000
  Fe  Fe69      1.0  0.29592  0.41895  0.19769  1.0000
  H   H615      1.0  0.13252  0.57304  0.47698  1.0000
  S   S134      1.0  0.08947  0.41908  0.16879  1.0000
  S   S135      1.0  0.41904  0.56078  0.49116  1.0000
  C   C502      1.0  0.31720  0.42338  0.31485  1.0000
  C   C503      1.0  0.22281  0.59451  0.35211  1.0000
  H   H616      1.0  0.49970  0.41231  0.42441  1.0000
  H   H617      1.0  0.00752  0.58741  0.23057  1.0000
  C   C504      1.0  0.32074  0.58207  0.47508  1.0000
  C   C505      1.0  0.21203  0.60739  0.36520  1.0000
  C   C506      1.0  0.40334  0.41963  0.14574  1.0000
  C   C507      1.0  0.14183  0.41079  0.03107  1.0000
  C   C508      1.0  0.24666  0.40917  0.17741  1.0000
  S   S136      1.0  0.39225  0.51551  0.01000  1.0000
  C   C509      1.0  0.23570  0.41068  0.15839  1.0000
  S   S137      1.0  0.37582  0.46281  0.00967  1.0000
  H   H618      1.0  0.33297  0.43655  0.72288  1.0000
  S   S138      1.0  0.39794  0.43840  0.95400  1.0000
  Fe  Fe70      1.0  0.31941  0.43269  0.86028  1.0000
  H   H619      1.0  0.23750  0.54920  0.76632  1.0000
  Fe  Fe71      1.0  0.31744  0.44958  0.81308  1.0000
  S   S139      1.0  0.30190  0.42494  0.80190  1.0000
  S   S140      1.0  0.32914  0.46984  0.78640  1.0000
  S   S141      1.0  0.29869  0.45314  0.84356  1.0000
  S   S142      1.0  0.33942  0.43113  0.83071  1.0000
  S   S143      1.0  0.44991  0.43302  0.55144  1.0000
  S   S144      1.0  0.29861  0.60559  0.73991  1.0000
  Fe  Fe72      1.0  0.31207  0.57660  0.73352  1.0000
  C   C510      1.0  0.43645  0.48786  0.51195  1.0000
  S   S145      1.0  0.30178  0.55449  0.75896  1.0000
  Fe  Fe73      1.0  0.33309  0.59085  0.69198  1.0000
  C   C511      1.0  0.39301  0.47225  0.51442  1.0000
  S   S146      1.0  0.35739  0.58992  0.66627  1.0000
  H   H620      1.0  0.03814  0.52341  0.64155  1.0000
  C   C512      1.0  0.49025  0.58136  0.55941  1.0000
  H   H621      1.0  0.39910  0.55487  0.00151  1.0000
  S   S147      1.0  0.34094  0.58793  0.72790  1.0000
  S   S148      1.0  0.30505  0.57735  0.69722  1.0000
  Fe  Fe74      1.0  0.42334  0.57406  0.52358  1.0000
  S   S149      1.0  0.42165  0.54689  0.54367  1.0000
  H   H622      1.0  0.39743  0.51321  0.55811  1.0000
  C   C513      1.0  0.36373  0.49975  0.56836  1.0000
  H   H623      1.0  0.37951  0.52796  0.95655  1.0000
  Fe  Fe75      1.0  0.39040  0.55443  0.54607  1.0000
  S   S150      1.0  0.37065  0.54724  0.57525  1.0000
  H   H624      1.0  0.14185  0.41588  0.99558  1.0000
  C   C514      1.0  0.34610  0.48983  0.90029  1.0000
  S   S151      1.0  0.39263  0.58260  0.52847  1.0000
  C   C515      1.0  0.11846  0.41289  0.82300  1.0000
  Fe  Fe76      1.0  0.29272  0.60671  0.70358  1.0000
  S   S152      1.0  0.08845  0.59172  0.66388  1.0000
  H   H625      1.0  0.02478  0.49468  0.65468  1.0000
  S   S153      1.0  0.10711  0.43798  0.87793  1.0000
  Fe  Fe77      1.0  0.02883  0.48740  0.79030  1.0000
  S   S154      1.0  0.03372  0.49178  0.75355  1.0000
  S   S155      1.0  0.04070  0.46206  0.81144  1.0000
  Fe  Fe78      1.0  0.03235  0.52310  0.75963  1.0000
  S   S156      1.0  0.05645  0.54143  0.74590  1.0000
  S   S157      1.0  0.02935  0.51844  0.79681  1.0000
  C   C516      1.0  0.05967  0.45558  0.82937  1.0000
  C   C517      1.0  0.07355  0.46798  0.83420  1.0000
  C   C518      1.0  0.08797  0.46225  0.84886  1.0000
  C   C519      1.0  0.08890  0.44403  0.85885  1.0000
  C   C520      1.0  0.07504  0.43161  0.85399  1.0000
  C   C521      1.0  0.06059  0.43736  0.83937  1.0000
  H   H626      1.0  0.07316  0.48202  0.82672  1.0000
  H   H627      1.0  0.09850  0.47206  0.85253  1.0000
  H   H628      1.0  0.04988  0.42766  0.83599  1.0000
  C   C522      1.0  0.07965  0.57866  0.68753  1.0000
  C   C523      1.0  0.09085  0.57299  0.70536  1.0000
  C   C524      1.0  0.08345  0.56178  0.72301  1.0000
  C   C525      1.0  0.06476  0.55605  0.72326  1.0000
  C   C526      1.0  0.05343  0.56220  0.70573  1.0000
  C   C527      1.0  0.06086  0.57329  0.68800  1.0000
  H   H629      1.0  0.10532  0.57689  0.70535  1.0000
  H   H630      1.0  0.09238  0.55730  0.73650  1.0000
  H   H631      1.0  0.03895  0.55844  0.70579  1.0000
  H   H632      1.0  0.05198  0.57760  0.67443  1.0000
  C   C528      1.0  0.04991  0.52462  0.65209  1.0000
  C   C529      1.0  0.01920  0.50322  0.66876  1.0000
  C   C530      1.0  0.23569  0.41592  0.85196  1.0000
  H   H633      1.0  0.02055  0.53262  0.69566  1.0000
  H   H634      1.0  0.38486  0.48990  0.97495  1.0000
  H   H635      1.0  0.24980  0.58667  0.67793  1.0000
  H   H636      1.0  0.21827  0.57974  0.66473  1.0000
  C   C531      1.0  0.36009  0.57850  0.64055  1.0000
  C   C532      1.0  0.37514  0.58319  0.62611  1.0000
  C   C533      1.0  0.37830  0.57411  0.60584  1.0000
  C   C534      1.0  0.36659  0.55999  0.59992  1.0000
  C   C535      1.0  0.35155  0.55528  0.61435  1.0000
  C   C536      1.0  0.34820  0.56457  0.63449  1.0000
  H   H637      1.0  0.02996  0.49593  0.83899  1.0000
  H   H638      1.0  0.38994  0.57786  0.59494  1.0000
  H   H639      1.0  0.34239  0.54439  0.60994  1.0000
  H   H640      1.0  0.33662  0.56077  0.64544  1.0000
  C   C537      1.0  0.44568  0.45418  0.53593  1.0000
  C   C538      1.0  0.44024  0.47080  0.54699  1.0000
  C   C539      1.0  0.43570  0.48763  0.53503  1.0000
  H   H641      1.0  0.02835  0.51170  0.86205  1.0000
  H   H642      1.0  0.48949  0.44736  0.56410  1.0000
  H   H643      1.0  0.35874  0.50855  0.58254  1.0000
  H   H644      1.0  0.43927  0.47055  0.56485  1.0000
  H   H645      1.0  0.43143  0.50035  0.54356  1.0000
  C   C540      1.0  0.02564  0.51853  0.70218  1.0000
  N   N38       1.0  0.34644  0.41974  0.74875  1.0000
  C   C541      1.0  0.32128  0.49339  0.77908  1.0000
  C   C542      1.0  0.33103  0.50323  0.76211  1.0000
  C   C543      1.0  0.32534  0.52191  0.75570  1.0000
  C   C544      1.0  0.30977  0.53098  0.76623  1.0000
  C   C545      1.0  0.30000  0.52111  0.78315  1.0000
  C   C546      1.0  0.30570  0.50245  0.78955  1.0000
  H   H646      1.0  0.34312  0.49640  0.75390  1.0000
  H   H647      1.0  0.33301  0.52927  0.74268  1.0000
  H   H648      1.0  0.28797  0.52796  0.79145  1.0000
  H   H649      1.0  0.29804  0.49510  0.80260  1.0000
  H   H650      1.0  0.39278  0.60574  0.72164  1.0000
  C   C547      1.0  0.37746  0.43736  0.93841  1.0000
  C   C548      1.0  0.35948  0.43935  0.94821  1.0000
  C   C549      1.0  0.34353  0.43889  0.93516  1.0000
  C   C550      1.0  0.34536  0.43658  0.91220  1.0000
  C   C551      1.0  0.36335  0.43463  0.90235  1.0000
  C   C552      1.0  0.37932  0.43488  0.91546  1.0000
  H   H651      1.0  0.36497  0.43309  0.88468  1.0000
  H   H652      1.0  0.39321  0.43343  0.90775  1.0000
  N   N39       1.0  0.38228  0.48998  0.57240  1.0000
  C   C553      1.0  0.09474  0.59588  0.52713  1.0000
  C   C554      1.0  0.13082  0.42745  0.82447  1.0000
  C   C555      1.0  0.46833  0.59346  0.53194  1.0000
  H   H653      1.0  0.49319  0.57258  0.57392  1.0000
  H   H654      1.0  0.10362  0.41678  0.82367  1.0000
  H   H655      1.0  0.40145  0.51588  0.96153  1.0000
  C   C556      1.0  0.00925  0.46212  0.88975  1.0000
  C   C557      1.0  0.36269  0.52159  0.91571  1.0000
  H   H656      1.0  0.48670  0.43906  0.52523  1.0000
  C   C558      1.0  0.24759  0.55130  0.75215  1.0000
  H   H657      1.0  0.36414  0.43276  0.77142  1.0000
  C   C559      1.0  0.38532  0.41358  0.70393  1.0000
  C   C560      1.0  0.08048  0.53745  0.65591  1.0000
  H   H658      1.0  0.41014  0.48627  0.94532  1.0000
  C   C561      1.0  0.20262  0.41052  0.86222  1.0000
  C   C562      1.0  0.34070  0.50771  0.89196  1.0000
  C   C563      1.0  0.37469  0.49127  0.96142  1.0000
  H   H659      1.0  0.34465  0.53744  0.89313  1.0000
  H   H660      1.0  0.17973  0.59821  0.71483  1.0000
  C   C564      1.0  0.08132  0.52972  0.67726  1.0000
  H   H661      1.0  0.07522  0.41774  0.86188  1.0000
  C   C565      1.0  0.03874  0.47525  0.87778  1.0000
  C   C566      1.0  0.39899  0.48863  0.93290  1.0000
  C   C567      1.0  0.06640  0.51967  0.68629  1.0000
  C   C568      1.0  0.04980  0.60045  0.73998  1.0000
  C   C569      1.0  0.34897  0.52354  0.89964  1.0000
  C   C570      1.0  0.22481  0.59793  0.73159  1.0000
  H   H662      1.0  0.06732  0.51495  0.70339  1.0000
  H   H663      1.0  0.18148  0.41703  0.96679  1.0000
  H   H664      1.0  0.04628  0.43740  0.91271  1.0000
  H   H665      1.0  0.36839  0.53443  0.92104  1.0000
  H   H666      1.0  0.03573  0.52094  0.71528  1.0000
  H   H667      1.0  0.26178  0.58755  0.71897  1.0000
  H   H668      1.0  0.34068  0.42950  0.78172  1.0000
  C   C571      1.0  0.25375  0.58275  0.76208  1.0000
  H   H669      1.0  0.33954  0.47749  0.89443  1.0000
  C   C572      1.0  0.36857  0.50350  0.92449  1.0000
  H   H670      1.0  0.32965  0.44041  0.94290  1.0000
  C   C573      1.0  0.06485  0.53486  0.64333  1.0000
  H   H671      1.0  0.39478  0.45149  0.57416  1.0000
  N   N40       1.0  0.38298  0.50074  0.94153  1.0000
  C   C574      1.0  0.35983  0.48773  0.91624  1.0000
  H   H672      1.0  0.37622  0.49022  0.60758  1.0000
  C   C575      1.0  0.04084  0.48827  0.69396  1.0000
  H   H673      1.0  0.36417  0.50985  0.55396  1.0000
  S   S158      1.0  0.13768  0.60186  0.62907  1.0000
  C   C576      1.0  0.38758  0.47710  0.55417  1.0000
  C   C577      1.0  0.39066  0.51858  0.94871  1.0000
  H   H674      1.0  0.37060  0.47671  0.95825  1.0000
  C   C578      1.0  0.46752  0.53870  0.51357  1.0000
  H   H675      1.0  0.32580  0.44312  0.75023  1.0000
  H   H676      1.0  0.40544  0.49503  0.91767  1.0000
  C   C579      1.0  0.37002  0.42148  0.71618  1.0000
  S   S159      1.0  0.44582  0.59555  0.52073  1.0000
  H   H677      1.0  0.14925  0.59136  0.51481  1.0000
  H   H678      1.0  0.15970  0.43483  0.82517  1.0000
  H   H679      1.0  0.26181  0.54661  0.75802  1.0000
  H   H680      1.0  0.24465  0.54152  0.73882  1.0000
  H   H681      1.0  0.39473  0.47434  0.92878  1.0000
  H   H682      1.0  0.27450  0.56683  0.72883  1.0000
  H   H683      1.0  0.49934  0.56403  0.51773  1.0000
  C   C580      1.0  0.44703  0.45462  0.51285  1.0000
  H   H684      1.0  0.12530  0.44180  0.82689  1.0000
  C   C581      1.0  0.02010  0.50348  0.85078  1.0000
  H   H685      1.0  0.09323  0.53228  0.68728  1.0000
  Fe  Fe79      1.0  0.39889  0.44814  0.98948  1.0000
  H   H686      1.0  0.35284  0.48949  0.56543  1.0000
  H   H687      1.0  0.02893  0.48021  0.70114  1.0000
  H   H688      1.0  0.38402  0.49857  0.52783  1.0000
  C   C582      1.0  0.50062  0.60346  0.53090  1.0000
  C   C583      1.0  0.39661  0.50430  0.57351  1.0000
  C   C584      1.0  0.47222  0.58192  0.55052  1.0000
  S   S160      1.0  0.41968  0.47040  0.99409  1.0000
  H   H689      1.0  0.24350  0.59745  0.62236  1.0000
  H   H690      1.0  0.47013  0.52474  0.52209  1.0000
  N   N41       1.0  0.24700  0.57131  0.74407  1.0000
  C   C585      1.0  0.26023  0.57269  0.72480  1.0000
  C   C586      1.0  0.01908  0.44842  0.90255  1.0000
  S   S161      1.0  0.32468  0.43614  0.89686  1.0000
  C   C587      1.0  0.22813  0.57852  0.73728  1.0000
  H   H691      1.0  0.24340  0.58336  0.77622  1.0000
  Fe  Fe80      1.0  0.41520  0.53418  0.51138  1.0000
  C   C588      1.0  0.33812  0.43794  0.73986  1.0000
  H   H692      1.0  0.04828  0.47943  0.68125  1.0000
  C   C589      1.0  0.19294  0.59281  0.72152  1.0000
  H   H693      1.0  0.38443  0.59392  0.63062  1.0000
  C   C590      1.0  0.03862  0.44813  0.90300  1.0000
  H   H694      1.0  0.41082  0.49755  0.57614  1.0000
  H   H695      1.0  0.25540  0.56478  0.71063  1.0000
  H   H696      1.0  0.37300  0.60386  0.70480  1.0000
  H   H697      1.0  0.05052  0.48964  0.70775  1.0000
  H   H698      1.0  0.39337  0.51418  0.58724  1.0000
  H   H699      1.0  0.39764  0.52631  0.93474  1.0000
  H   H700      1.0  0.02041  0.59640  0.74607  1.0000
  H   H701      1.0  0.36203  0.49940  0.96790  1.0000
  S   S162      1.0  0.47300  0.59952  0.99146  1.0000
  H   H702      1.0  0.36350  0.47360  0.92218  1.0000
  H   H703      1.0  0.33004  0.50926  0.87956  1.0000
  S   S163      1.0  0.25240  0.42571  0.83272  1.0000
  C   C591      1.0  0.39875  0.45348  0.51857  1.0000
  N   N42       1.0  0.03423  0.50684  0.68432  1.0000
  C   C592      1.0  0.14415  0.60559  0.51836  1.0000
  H   H704      1.0  0.34830  0.44934  0.73992  1.0000
  H   H705      1.0  0.37061  0.46896  0.59452  1.0000
  H   H706      1.0  0.21420  0.55154  0.73825  1.0000
  C   C593      1.0  0.01878  0.47594  0.87687  1.0000
  C   C594      1.0  0.38093  0.48023  0.59442  1.0000
  H   H707      1.0  0.46996  0.54982  0.52551  1.0000
  Fe  Fe81      1.0  0.28456  0.42698  0.83373  1.0000
  H   H708      1.0  0.40438  0.43192  0.54341  1.0000
  H   H709      1.0  0.35783  0.44118  0.96585  1.0000
  H   H710      1.0  0.46125  0.57377  0.55826  1.0000
  C   C595      1.0  0.39364  0.45788  0.55785  1.0000
  C   C596      1.0  0.03074  0.60520  0.73798  1.0000
  C   C597      1.0  0.39910  0.44633  0.54022  1.0000
  H   H711      1.0  0.18443  0.56428  0.72457  1.0000
  C   C598      1.0  0.38760  0.48394  0.53190  1.0000
  C   C599      1.0  0.19569  0.57367  0.72688  1.0000
  H   H712      1.0  0.06364  0.46119  0.89101  1.0000
  H   H713      1.0  0.04733  0.48488  0.86832  1.0000
  H   H714      1.0  0.31863  0.41155  0.75912  1.0000
  S   S164      1.0  0.18451  0.60244  0.65707  1.0000
  C   C600      1.0  0.35238  0.42301  0.77149  1.0000
  H   H715      1.0  0.09174  0.54595  0.64937  1.0000
  H   H716      1.0  0.39481  0.47396  0.59950  1.0000
  C   C601      1.0  0.20740  0.60493  0.72413  1.0000
  C   C602      1.0  0.50181  0.44760  0.55307  1.0000
  H   H717      1.0  0.06419  0.54119  0.62684  1.0000
  C   C603      1.0  0.50445  0.59219  0.54966  1.0000
  C   C604      1.0  0.05023  0.51673  0.67396  1.0000
  C   C605      1.0  0.22111  0.59400  0.66891  1.0000
  C   C606      1.0  0.36272  0.41207  0.73542  1.0000
  H   H718      1.0  0.49079  0.56205  0.00848  1.0000
  S   S165      1.0  0.14226  0.41293  0.92075  1.0000
  H   H719      1.0  0.01342  0.51176  0.71039  1.0000
  C   C607      1.0  0.21298  0.56653  0.73471  1.0000
  H   H720      1.0  0.26739  0.57684  0.76847  1.0000
  C   C608      1.0  0.23902  0.59786  0.67656  1.0000
  C   C609      1.0  0.48258  0.60416  0.52216  1.0000
  H   H721      1.0  0.21201  0.42586  0.83283  1.0000
  H   H722      1.0  0.09502  0.59153  0.54443  1.0000
  H   H723      1.0  0.01227  0.51658  0.66233  1.0000
  H   H724      1.0  0.39065  0.42091  0.68925  1.0000
  H   H725      1.0  0.49500  0.52039  0.00723  1.0000
  H   H726      1.0  0.05417  0.58791  0.74959  1.0000
  C   C610      1.0  0.15017  0.42355  0.82355  1.0000
  S   S166      1.0  0.38390  0.53953  0.51492  1.0000
  H   H727      1.0  0.36419  0.43496  0.71027  1.0000
  H   H728      1.0  0.35697  0.40974  0.78035  1.0000
  H   H729      1.0  0.14407  0.60066  0.55393  1.0000
  C   C611      1.0  0.04839  0.46158  0.89076  1.0000
  H   H730      1.0  0.18389  0.59667  0.59831  1.0000
  H   H731      1.0  0.23589  0.60778  0.73199  1.0000
  H   H732      1.0  0.01153  0.43787  0.91204  1.0000
  H   H733      1.0  0.10069  0.56808  0.51594  1.0000
  C   C612      1.0  0.21636  0.41814  0.84761  1.0000
  H   H734      1.0  0.25651  0.59745  0.75654  1.0000
  H   H735      1.0  0.01158  0.51400  0.84081  1.0000
  C   C613      1.0  0.09819  0.58262  0.51067  1.0000
  H   H736      1.0  0.20078  0.41342  0.99754  1.0000
  C   C614      1.0  0.50016  0.44292  0.53110  1.0000
  Fe  Fe82      1.0  0.12023  0.41088  0.89467  1.0000
  H   H737      1.0  0.18787  0.41243  0.85863  1.0000
  C   C615      1.0  0.50545  0.55631  0.00533  1.0000
  H   H738      1.0  0.07776  0.60667  0.73126  1.0000
  N   N43       1.0  0.00803  0.49010  0.86319  1.0000
  H   H739      1.0  0.00669  0.47134  0.83612  1.0000
  H   H740      1.0  0.20390  0.59946  0.56525  1.0000
  C   C616      1.0  0.20687  0.60838  0.66663  1.0000
  H   H741      1.0  0.00773  0.49520  0.67707  1.0000
  H   H742      1.0  0.21637  0.59492  0.59923  1.0000
  H   H743      1.0  0.45234  0.53997  0.50981  1.0000
  H   H744      1.0  0.41229  0.64112  0.21956  1.0000
  S   S167      1.0  0.10618  0.79145  0.30117  1.0000
  H   H745      1.0  0.40290  0.66507  0.21961  1.0000
  H   H746      1.0  0.47826  0.66820  0.31682  1.0000
  H   H747      1.0  0.13573  0.67200  0.33482  1.0000
  H   H748      1.0  0.37351  0.66187  0.17130  1.0000
  Fe  Fe83      1.0  0.11510  0.78329  0.33592  1.0000
  S   S168      1.0  0.13178  0.75674  0.34897  1.0000
  S   S169      1.0  0.08908  0.79698  0.35198  1.0000
  H   H749      1.0  0.09863  0.77679  0.44727  1.0000
  Fe  Fe84      1.0  0.46743  0.63705  0.03727  1.0000
  S   S170      1.0  0.44282  0.62236  0.02469  1.0000
  S   S171      1.0  0.46501  0.66280  0.05907  1.0000
  C   C617      1.0  0.34797  0.62850  0.23867  1.0000
  H   H750      1.0  0.40255  0.63715  0.33449  1.0000
  H   H751      1.0  0.48323  0.68872  0.30034  1.0000
  C   C618      1.0  0.43468  0.78272  0.12546  1.0000
  Fe  Fe85      1.0  0.44286  0.68868  0.18622  1.0000
  S   S172      1.0  0.41602  0.70464  0.19597  1.0000
  S   S173      1.0  0.44302  0.66442  0.16209  1.0000
  Fe  Fe86      1.0  0.46445  0.70658  0.22276  1.0000
  S   S174      1.0  0.43894  0.72407  0.23479  1.0000
  S   S175      1.0  0.49429  0.70192  0.23583  1.0000
  Fe  Fe87      1.0  0.42301  0.69759  0.23121  1.0000
  S   S176      1.0  0.39949  0.69021  0.25636  1.0000
  Fe  Fe88      1.0  0.43354  0.73013  0.19858  1.0000
  S   S177      1.0  0.41845  0.75645  0.18293  1.0000
  S   S178      1.0  0.44871  0.67990  0.22152  1.0000
  S   S179      1.0  0.46017  0.71430  0.18654  1.0000
  H   H752      1.0  0.38921  0.62854  0.16831  1.0000
  S   S180      1.0  0.15673  0.63919  0.41331  1.0000
  H   H753      1.0  0.49819  0.66407  0.11316  1.0000
  C   C619      1.0  0.45883  0.80539  0.10059  1.0000
  H   H754      1.0  0.12851  0.78696  0.37874  1.0000
  Fe  Fe89      1.0  0.12936  0.64484  0.39563  1.0000
  S   S181      1.0  0.11475  0.67269  0.38338  1.0000
  S   S182      1.0  0.11272  0.62602  0.41908  1.0000
  C   C620      1.0  0.44608  0.64789  0.31453  1.0000
  C   C621      1.0  0.14646  0.77589  0.41598  1.0000
  C   C622      1.0  0.37544  0.63524  0.28613  1.0000
  C   C623      1.0  0.39308  0.63476  0.27490  1.0000
  C   C624      1.0  0.40064  0.65135  0.26566  1.0000
  C   C625      1.0  0.39058  0.66871  0.26740  1.0000
  C   C626      1.0  0.37306  0.66925  0.27889  1.0000
  C   C627      1.0  0.36551  0.65265  0.28818  1.0000
  H   H755      1.0  0.40102  0.62144  0.27349  1.0000
  H   H756      1.0  0.41442  0.65075  0.25767  1.0000
  H   H757      1.0  0.36523  0.68262  0.28059  1.0000
  H   H758      1.0  0.35201  0.65332  0.29690  1.0000
  C   C628      1.0  0.45830  0.66308  0.08757  1.0000
  C   C629      1.0  0.45280  0.64685  0.09919  1.0000
  C   C630      1.0  0.44821  0.64757  0.12198  1.0000
  C   C631      1.0  0.44901  0.66447  0.13340  1.0000
  C   C632      1.0  0.45452  0.68070  0.12177  1.0000
  C   C633      1.0  0.45911  0.67999  0.09896  1.0000
  H   H759      1.0  0.45205  0.63376  0.09065  1.0000
  H   H760      1.0  0.44393  0.63493  0.13081  1.0000
  H   H761      1.0  0.45518  0.69380  0.13034  1.0000
  H   H762      1.0  0.46335  0.69264  0.09014  1.0000
  H   H763      1.0  0.12335  0.70249  0.32095  1.0000
  C   C634      1.0  0.40682  0.79332  0.17306  1.0000
  C   C635      1.0  0.42159  0.78127  0.18100  1.0000
  C   C636      1.0  0.43855  0.78913  0.18579  1.0000
  C   C637      1.0  0.40023  0.63364  0.17894  1.0000
  H   H764      1.0  0.39364  0.78742  0.16927  1.0000
  H   H765      1.0  0.45009  0.78010  0.19173  1.0000
  S   S183      1.0  0.36686  0.61372  0.29749  1.0000
  H   H766      1.0  0.41428  0.80526  0.12360  1.0000
  H   H767      1.0  0.48585  0.72455  0.27547  1.0000
  C   C638      1.0  0.42334  0.67371  0.30745  1.0000
  H   H768      1.0  0.13075  0.64691  0.49241  1.0000
  H   H769      1.0  0.45550  0.65918  0.26455  1.0000
  H   H770      1.0  0.46010  0.64139  0.31377  1.0000
  C   C639      1.0  0.12649  0.73371  0.35929  1.0000
  C   C640      1.0  0.14110  0.72177  0.36780  1.0000
  C   C641      1.0  0.13779  0.70322  0.37563  1.0000
  C   C642      1.0  0.11978  0.69629  0.37493  1.0000
  C   C643      1.0  0.10512  0.70837  0.36680  1.0000
  C   C644      1.0  0.10840  0.72694  0.35908  1.0000
  H   H771      1.0  0.15516  0.72682  0.36805  1.0000
  H   H772      1.0  0.14921  0.69425  0.38195  1.0000
  H   H773      1.0  0.09111  0.70322  0.36622  1.0000
  H   H774      1.0  0.09699  0.73588  0.35263  1.0000
  C   C645      1.0  0.14036  0.61843  0.50060  1.0000
  C   C646      1.0  0.09127  0.62065  0.49925  1.0000
  H   H775      1.0  0.43517  0.62357  0.33193  1.0000
  S   S184      1.0  0.14405  0.61066  0.47266  1.0000
  C   C647      1.0  0.47163  0.68101  0.30874  1.0000
  C   C648      1.0  0.37656  0.64115  0.20881  1.0000
  H   H776      1.0  0.14464  0.72641  0.30587  1.0000
  H   H777      1.0  0.21302  0.63254  0.38399  1.0000
  H   H778      1.0  0.36895  0.66858  0.22303  1.0000
  H   H779      1.0  0.47962  0.61318  0.50784  1.0000
  C   C649      1.0  0.36590  0.65382  0.22259  1.0000
  H   H780      1.0  0.37988  0.61099  0.20141  1.0000
  H   H781      1.0  0.15101  0.76710  0.40160  1.0000
  C   C650      1.0  0.12105  0.79440  0.43372  1.0000
  C   C651      1.0  0.45027  0.69426  0.28199  1.0000
  H   H782      1.0  0.38219  0.67730  0.19124  1.0000
  H   H783      1.0  0.11614  0.75636  0.42538  1.0000
  H   H784      1.0  0.47430  0.65190  0.28245  1.0000
  C   C652      1.0  0.50004  0.71848  0.27630  1.0000
  H   H785      1.0  0.03732  0.78774  0.23689  1.0000
  C   C653      1.0  0.42009  0.70017  0.01698  1.0000
  C   C654      1.0  0.10652  0.78920  0.44905  1.0000
  C   C655      1.0  0.37231  0.62177  0.21077  1.0000
  C   C656      1.0  0.22103  0.62245  0.37396  1.0000
  H   H786      1.0  0.41985  0.65793  0.19885  1.0000
  C   C657      1.0  0.13374  0.63677  0.50568  1.0000
  N   N44       1.0  0.12669  0.78316  0.41415  1.0000
  C   C658      1.0  0.11495  0.76673  0.41128  1.0000
  H   H787      1.0  0.09991  0.77128  0.40923  1.0000
  N   N45       1.0  0.45718  0.67636  0.29299  1.0000
  C   C659      1.0  0.24041  0.62467  0.36938  1.0000
  C   C660      1.0  0.46621  0.66437  0.27556  1.0000
  C   C661      1.0  0.25118  0.61176  0.35630  1.0000
  H   H788      1.0  0.08901  0.63550  0.49489  1.0000
  H   H789      1.0  0.41884  0.68742  0.30077  1.0000
  C   C662      1.0  0.15034  0.71256  0.31105  1.0000
  C   C663      1.0  0.13835  0.69906  0.31952  1.0000
  C   C664      1.0  0.44212  0.66611  0.30491  1.0000
  H   H790      1.0  0.13504  0.80691  0.39315  1.0000
  H   H791      1.0  0.40640  0.66608  0.01323  1.0000
  S   S185      1.0  0.27557  0.61552  0.35090  1.0000
  C   C665      1.0  0.35165  0.64757  0.23699  1.0000
  H   H792      1.0  0.39504  0.66922  0.31942  1.0000
  H   H793      1.0  0.09515  0.61316  0.46589  1.0000
  H   H794      1.0  0.43907  0.69172  0.27021  1.0000
  C   C666      1.0  0.40939  0.66337  0.31825  1.0000
  H   H795      1.0  0.43856  0.66568  0.02048  1.0000
  C   C667      1.0  0.12522  0.79522  0.39381  1.0000
  H   H796      1.0  0.45770  0.76205  0.12622  1.0000
  C   C668      1.0  0.45292  0.77600  0.12032  1.0000
  N   N46       1.0  0.17264  0.65850  0.33571  1.0000
  C   C669      1.0  0.19321  0.65497  0.33183  1.0000
  C   C670      1.0  0.16887  0.65799  0.35991  1.0000
  C   C671      1.0  0.16318  0.64271  0.32589  1.0000
  C   C672      1.0  0.16525  0.67683  0.32640  1.0000
  C   C673      1.0  0.17711  0.69086  0.31737  1.0000
  C   C674      1.0  0.14563  0.68153  0.32729  1.0000
  C   C675      1.0  0.16965  0.70845  0.30988  1.0000
  C   C676      1.0  0.10138  0.80038  0.46713  1.0000
  Fe  Fe90      1.0  0.14035  0.61896  0.43546  1.0000
  H   H797      1.0  0.20147  0.66525  0.34046  1.0000
  H   H798      1.0  0.19808  0.64073  0.33833  1.0000
  H   H799      1.0  0.19708  0.65545  0.31387  1.0000
  H   H800      1.0  0.17548  0.66979  0.36792  1.0000
  H   H801      1.0  0.17448  0.64453  0.36770  1.0000
  H   H802      1.0  0.15356  0.65928  0.36421  1.0000
  H   H803      1.0  0.16499  0.64310  0.30757  1.0000
  H   H804      1.0  0.16891  0.62870  0.33217  1.0000
  H   H805      1.0  0.14787  0.64297  0.32997  1.0000
  H   H806      1.0  0.19220  0.68873  0.31622  1.0000
  H   H807      1.0  0.46168  0.70120  0.27227  1.0000
  H   H808      1.0  0.17890  0.71912  0.30345  1.0000
  H   H809      1.0  0.14831  0.76703  0.43130  1.0000
  S   S186      1.0  0.13494  0.62179  0.37100  1.0000
  H   H810      1.0  0.49055  0.63026  0.10885  1.0000
  H   H811      1.0  0.41134  0.63952  0.16770  1.0000
  C   C677      1.0  0.01185  0.79888  0.25297  1.0000
  H   H812      1.0  0.47916  0.78197  0.10383  1.0000
  H   H813      1.0  0.24710  0.63654  0.37597  1.0000
  C   C678      1.0  0.41361  0.64528  0.32677  1.0000
  C   C679      1.0  0.04309  0.79784  0.26913  1.0000
  C   C680      1.0  0.43196  0.63762  0.32511  1.0000
  H   H814      1.0  0.44461  0.70472  0.29414  1.0000
  C   C681      1.0  0.03131  0.79429  0.25156  1.0000
  H   H815      1.0  0.43198  0.70905  0.02053  1.0000
  C   C682      1.0  0.49973  0.63048  0.09359  1.0000
  H   H816      1.0  0.40723  0.62140  0.18781  1.0000
  H   H817      1.0  0.05798  0.79407  0.26785  1.0000
  H   H818      1.0  0.30200  0.62694  0.41349  1.0000
  H   H819      1.0  0.46543  0.69007  0.32207  1.0000
  H   H820      1.0  0.39729  0.66950  0.16928  1.0000
  N   N47       1.0  0.39222  0.64796  0.19451  1.0000
  C   C683      1.0  0.38595  0.66483  0.18104  1.0000
  H   H821      1.0  0.11937  0.75882  0.39619  1.0000
  Fe  Fe91      1.0  0.16147  0.61506  0.38980  1.0000
  C   C684      1.0  0.40747  0.65324  0.20875  1.0000
  H   H822      1.0  0.42539  0.77389  0.13530  1.0000
  H   H823      1.0  0.47647  0.67224  0.26497  1.0000
  H   H824      1.0  0.34392  0.65747  0.24761  1.0000
  H   H825      1.0  0.49879  0.66778  0.08403  1.0000
  C   C685      1.0  0.46496  0.78726  0.10780  1.0000
  H   H826      1.0  0.41641  0.69262  0.03283  1.0000
  H   H827      1.0  0.49037  0.63495  0.07991  1.0000
  H   H828      1.0  0.50554  0.65193  0.05265  1.0000
  H   H829      1.0  0.15637  0.78748  0.41632  1.0000
  C   C686      1.0  0.42846  0.80089  0.11854  1.0000
  H   H830      1.0  0.11082  0.80176  0.39236  1.0000
  H   H831      1.0  0.08982  0.79663  0.47823  1.0000
  H   H832      1.0  0.29988  0.61828  0.38657  1.0000
  H   H833      1.0  0.40791  0.70981  0.01250  1.0000
  H   H834      1.0  0.50516  0.73050  0.30780  1.0000
  H   H835      1.0  0.50504  0.61576  0.09043  1.0000
  C   C687      1.0  0.03552  0.80594  0.28843  1.0000
  Fe  Fe92      1.0  0.08120  0.80711  0.31746  1.0000
  H   H836      1.0  0.32035  0.61163  0.40202  1.0000
  H   H837      1.0  0.33745  0.62361  0.25058  1.0000
  C   C688      1.0  0.35824  0.61564  0.22557  1.0000
  H   H838      1.0  0.00962  0.80121  0.15530  1.0000
  S   S187      1.0  0.48543  0.61030  0.04166  1.0000
  C   C689      1.0  0.30484  0.61426  0.40339  1.0000
  H   H839      1.0  0.29751  0.61880  0.44957  1.0000
  H   H840      1.0  0.50528  0.77414  0.26631  1.0000
  H   H841      1.0  0.27237  0.61435  0.42701  1.0000
  H   H842      1.0  0.45373  0.68305  0.00988  1.0000
  H   H843      1.0  0.31271  0.61032  0.48433  1.0000
  C   C690      1.0  0.44071  0.80871  0.18246  1.0000
  C   C691      1.0  0.08920  0.80257  0.58661  1.0000
  S   S188      1.0  0.10910  0.79667  0.74902  1.0000
  S   S189      1.0  0.47982  0.64337  0.00325  1.0000
  H   H844      1.0  0.31690  0.67040  0.77847  1.0000
  Fe  Fe93      1.0  0.11052  0.78466  0.71468  1.0000
  S   S190      1.0  0.12892  0.75938  0.70214  1.0000
  S   S191      1.0  0.07927  0.78712  0.71106  1.0000
  S   S192      1.0  0.43756  0.63666  0.96244  1.0000
  H   H845      1.0  0.03526  0.75171  0.77315  1.0000
  Fe  Fe94      1.0  0.42261  0.73458  0.83217  1.0000
  S   S193      1.0  0.45379  0.72941  0.83590  1.0000
  S   S194      1.0  0.40535  0.76268  0.83492  1.0000
  Fe  Fe95      1.0  0.41660  0.69287  0.82161  1.0000
  S   S195      1.0  0.44732  0.68482  0.82551  1.0000
  S   S196      1.0  0.39695  0.66870  0.81650  1.0000
  Fe  Fe96      1.0  0.44571  0.70312  0.85521  1.0000
  S   S197      1.0  0.46136  0.69574  0.88673  1.0000
  Fe  Fe97      1.0  0.45312  0.71142  0.80592  1.0000
  S   S198      1.0  0.47253  0.70961  0.77515  1.0000
  S   S199      1.0  0.41462  0.70925  0.85316  1.0000
  S   S200      1.0  0.42237  0.71855  0.80037  1.0000
  Fe  Fe98      1.0  0.12590  0.65050  0.65635  1.0000
  S   S201      1.0  0.15066  0.64604  0.63233  1.0000
  S   S202      1.0  0.11046  0.67627  0.67237  1.0000
  C   C692      1.0  0.48763  0.64709  0.88226  1.0000
  Fe  Fe99      1.0  0.13157  0.62979  0.61142  1.0000
  C   C693      1.0  0.44942  0.71926  0.95736  1.0000
  S   S203      1.0  0.13271  0.62370  0.67641  1.0000
  S   S204      1.0  0.10656  0.63612  0.63427  1.0000
  C   C694      1.0  0.13451  0.62917  0.54573  1.0000
  H   H846      1.0  0.05566  0.66636  0.71029  1.0000
  H   H847      1.0  0.41206  0.66345  0.98459  1.0000
  H   H848      1.0  0.50308  0.64399  0.88102  1.0000
  C   C695      1.0  0.22872  0.63060  0.67980  1.0000
  H   H849      1.0  0.07141  0.65932  0.73195  1.0000
  H   H850      1.0  0.49322  0.62102  0.59947  1.0000
  C   C696      1.0  0.20882  0.62512  0.59738  1.0000
  H   H851      1.0  0.49666  0.61574  0.85870  1.0000
  H   H852      1.0  0.49905  0.67265  0.78457  1.0000
  C   C697      1.0  0.21084  0.62677  0.67202  1.0000
  H   H853      1.0  0.20014  0.63802  0.67030  1.0000
  H   H854      1.0  0.23155  0.64486  0.68402  1.0000
  C   C698      1.0  0.35721  0.64965  0.76321  1.0000
  C   C699      1.0  0.36264  0.63752  0.78076  1.0000
  C   C700      1.0  0.37497  0.64355  0.79664  1.0000
  C   C701      1.0  0.38233  0.66163  0.79508  1.0000
  C   C702      1.0  0.37736  0.67354  0.77714  1.0000
  C   C703      1.0  0.36480  0.66761  0.76144  1.0000
  H   H855      1.0  0.35688  0.62373  0.78250  1.0000
  H   H856      1.0  0.37865  0.63419  0.81043  1.0000
  H   H857      1.0  0.38291  0.68741  0.77548  1.0000
  H   H858      1.0  0.36073  0.67714  0.74797  1.0000
  C   C704      1.0  0.44429  0.65325  0.94164  1.0000
  C   C705      1.0  0.43223  0.65759  0.92409  1.0000
  C   C706      1.0  0.43711  0.67074  0.90725  1.0000
  C   C707      1.0  0.45411  0.67969  0.90789  1.0000
  C   C708      1.0  0.46609  0.67545  0.92553  1.0000
  C   C709      1.0  0.46125  0.66225  0.94230  1.0000
  H   H859      1.0  0.41905  0.65071  0.92351  1.0000
  H   H860      1.0  0.42773  0.67395  0.89381  1.0000
  H   H861      1.0  0.47924  0.68236  0.92618  1.0000
  H   H862      1.0  0.47066  0.65905  0.95569  1.0000
  H   H863      1.0  0.01016  0.62476  0.72396  1.0000
  C   C710      1.0  0.42402  0.78198  0.86663  1.0000
  C   C711      1.0  0.40945  0.78235  0.85164  1.0000
  C   C712      1.0  0.24291  0.61619  0.68227  1.0000
  Fe  Fe100     1.0  0.15606  0.61819  0.65083  1.0000
  S   S205      1.0  0.26508  0.62200  0.69251  1.0000
  H   H864      1.0  0.43328  0.76949  0.86821  1.0000
  C   C713      1.0  0.48440  0.64898  0.84154  1.0000
  C   C714      1.0  0.02502  0.62114  0.72550  1.0000
  S   S206      1.0  0.34020  0.64370  0.74388  1.0000
  H   H865      1.0  0.41542  0.70499  0.92477  1.0000
  C   C715      1.0  0.47780  0.63008  0.57135  1.0000
  H   H866      1.0  0.44270  0.72503  0.92332  1.0000
  H   H867      1.0  0.36108  0.62962  0.68258  1.0000
  C   C716      1.0  0.12341  0.73631  0.69402  1.0000
  C   C717      1.0  0.10510  0.72999  0.69534  1.0000
  C   C718      1.0  0.10147  0.71168  0.68853  1.0000
  C   C719      1.0  0.11602  0.69941  0.68018  1.0000
  C   C720      1.0  0.13428  0.70582  0.67861  1.0000
  C   C721      1.0  0.13792  0.72411  0.68552  1.0000
  H   H868      1.0  0.09377  0.73911  0.70187  1.0000
  H   H869      1.0  0.08728  0.70695  0.68984  1.0000
  H   H870      1.0  0.14565  0.69663  0.67230  1.0000
  H   H871      1.0  0.15214  0.72880  0.68437  1.0000
  N   N48       1.0  0.07178  0.64008  0.70515  1.0000
  C   C722      1.0  0.03838  0.63238  0.71493  1.0000
  H   H872      1.0  0.39594  0.63033  0.74526  1.0000
  C   C723      1.0  0.21412  0.64271  0.60529  1.0000
  C   C724      1.0  0.02081  0.76926  0.74912  1.0000
  N   N49       1.0  0.19226  0.62331  0.58356  1.0000
  H   H873      1.0  0.06996  0.79441  0.56249  1.0000
  H   H874      1.0  0.08926  0.62519  0.53423  1.0000
  N   N50       1.0  0.47803  0.64024  0.86284  1.0000
  C   C725      1.0  0.22970  0.64379  0.61861  1.0000
  C   C726      1.0  0.45757  0.64448  0.86624  1.0000
  C   C727      1.0  0.47657  0.64219  0.55290  1.0000
  S   S207      1.0  0.32020  0.62013  0.69575  1.0000
  H   H875      1.0  0.40256  0.66219  0.68319  1.0000
  C   C728      1.0  0.42340  0.70638  0.93953  1.0000
  H   H876      1.0  0.42646  0.68038  0.74227  1.0000
  C   C729      1.0  0.18246  0.64168  0.57769  1.0000
  H   H877      1.0  0.09448  0.61908  0.70111  1.0000
  C   C730      1.0  0.40132  0.64164  0.73494  1.0000
  C   C731      1.0  0.11672  0.78878  0.64664  1.0000
  H   H878      1.0  0.06934  0.62663  0.67410  1.0000
  C   C732      1.0  0.40496  0.65961  0.70056  1.0000
  S   S208      1.0  0.13048  0.63683  0.57367  1.0000
  C   C733      1.0  0.09160  0.63329  0.70821  1.0000
  H   H879      1.0  0.37340  0.65068  0.67801  1.0000
  C   C734      1.0  0.09527  0.78008  0.61755  1.0000
  C   C735      1.0  0.41523  0.67265  0.71138  1.0000
  H   H880      1.0  0.17035  0.63987  0.56689  1.0000
  N   N51       1.0  0.35728  0.71736  0.82457  1.0000
  C   C736      1.0  0.37386  0.72217  0.81051  1.0000
  C   C737      1.0  0.34616  0.73505  0.82965  1.0000
  C   C738      1.0  0.36429  0.70920  0.84581  1.0000
  C   C739      1.0  0.34579  0.70441  0.81258  1.0000
  C   C740      1.0  0.33694  0.71063  0.79280  1.0000
  C   C741      1.0  0.34367  0.68526  0.81946  1.0000
  C   C742      1.0  0.32644  0.69854  0.78085  1.0000
  C   C743      1.0  0.33310  0.67333  0.80740  1.0000
  C   C744      1.0  0.32451  0.67993  0.78816  1.0000
  H   H881      1.0  0.36989  0.72949  0.79475  1.0000
  H   H882      1.0  0.38307  0.73172  0.81900  1.0000
  H   H883      1.0  0.38246  0.70918  0.80622  1.0000
  H   H884      1.0  0.34222  0.74339  0.81456  1.0000
  H   H885      1.0  0.35428  0.74467  0.83953  1.0000
  H   H886      1.0  0.33300  0.73197  0.83921  1.0000
  H   H887      1.0  0.37411  0.69669  0.84313  1.0000
  H   H888      1.0  0.37239  0.71948  0.85471  1.0000
  H   H889      1.0  0.35251  0.70497  0.85711  1.0000
  H   H890      1.0  0.33841  0.72478  0.78612  1.0000
  H   H891      1.0  0.35052  0.67893  0.83369  1.0000
  H   H892      1.0  0.32008  0.70345  0.76557  1.0000
  H   H893      1.0  0.33213  0.65862  0.81254  1.0000
  C   C745      1.0  0.08973  0.77117  0.65605  1.0000
  H   H894      1.0  0.42050  0.68482  0.70238  1.0000
  H   H895      1.0  0.38623  0.79930  0.83847  1.0000
  H   H896      1.0  0.17514  0.61708  0.61235  1.0000
  H   H897      1.0  0.39122  0.61108  0.67289  1.0000
  C   C746      1.0  0.02612  0.79696  0.79938  1.0000
  N   N52       1.0  0.42496  0.68678  0.99911  1.0000
  H   H898      1.0  0.48239  0.64046  0.89807  1.0000
  C   C747      1.0  0.43879  0.71773  0.93867  1.0000
  C   C748      1.0  0.11601  0.75669  0.63566  1.0000
  H   H899      1.0  0.10745  0.74447  0.63237  1.0000
  C   C749      1.0  0.49726  0.66372  0.84011  1.0000
  Fe  Fe101     1.0  0.45627  0.62722  0.99086  1.0000
  H   H900      1.0  0.48500  0.66254  0.88410  1.0000
  H   H901      1.0  0.07937  0.64935  0.67190  1.0000
  C   C750      1.0  0.41863  0.67018  0.73383  1.0000
  C   C751      1.0  0.42934  0.69739  0.97828  1.0000
  C   C752      1.0  0.06962  0.65945  0.71375  1.0000
  H   H902      1.0  0.44633  0.66538  0.99193  1.0000
  H   H903      1.0  0.03357  0.77225  0.73969  1.0000
  H   H904      1.0  0.12340  0.78404  0.66238  1.0000
  H   H905      1.0  0.45346  0.71098  0.99095  1.0000
  H   H906      1.0  0.45436  0.65999  0.86582  1.0000
  H   H907      1.0  0.17646  0.64885  0.59260  1.0000
  H   H908      1.0  0.45224  0.63880  0.88249  1.0000
  H   H909      1.0  0.12393  0.75266  0.65080  1.0000
  C   C753      1.0  0.06861  0.64101  0.68104  1.0000
  H   H910      1.0  0.00703  0.74591  0.79581  1.0000
  H   H911      1.0  0.09612  0.76750  0.67226  1.0000
  C   C754      1.0  0.39755  0.79878  0.84997  1.0000
  H   H912      1.0  0.12840  0.79169  0.63458  1.0000
  Fe  Fe102     1.0  0.07788  0.80129  0.74389  1.0000
  C   C755      1.0  0.13087  0.64205  0.52799  1.0000
  H   H913      1.0  0.47779  0.61262  0.87878  1.0000
  H   H914      1.0  0.12569  0.65627  0.53151  1.0000
  C   C756      1.0  0.05795  0.62789  0.71648  1.0000
  H   H915      1.0  0.10858  0.80222  0.65018  1.0000
  C   C757      1.0  0.02171  0.75764  0.76803  1.0000
  C   C758      1.0  0.44475  0.70937  0.97693  1.0000
  N   N53       1.0  0.38699  0.62999  0.70007  1.0000
  H   H916      1.0  0.40701  0.68725  0.95809  1.0000
  C   C759      1.0  0.48253  0.65161  0.80108  1.0000
  H   H917      1.0  0.23334  0.65724  0.62485  1.0000
  H   H918      1.0  0.20632  0.65582  0.60176  1.0000
  C   C760      1.0  0.49007  0.65550  0.54889  1.0000
  C   C761      1.0  0.24038  0.62754  0.62446  1.0000
  N   N54       1.0  0.10435  0.77441  0.63855  1.0000
  H   H919      1.0  0.40259  0.63270  0.66891  1.0000
  H   H920      1.0  0.46544  0.64083  0.54133  1.0000
  H   H921      1.0  0.50322  0.66101  0.62191  1.0000
  H   H922      1.0  0.03343  0.78727  0.81067  1.0000
  Fe  Fe103     1.0  0.32709  0.61691  0.73170  1.0000
  H   H923      1.0  0.08079  0.75936  0.65244  1.0000
  C   C762      1.0  0.06328  0.61149  0.72934  1.0000
  C   C763      1.0  0.09820  0.79762  0.60629  1.0000
  H   H924      1.0  0.19198  0.65128  0.56844  1.0000
  S   S209      1.0  0.05863  0.79380  0.77359  1.0000
  H   H925      1.0  0.41406  0.65304  0.76314  1.0000
  C   C764      1.0  0.08297  0.76785  0.60774  1.0000
  H   H926      1.0  0.10158  0.64292  0.69973  1.0000
  C   C765      1.0  0.49721  0.71204  0.77361  1.0000
  C   C766      1.0  0.41173  0.65469  0.74555  1.0000
  C   C767      1.0  0.44161  0.67477  0.00560  1.0000
  H   H927      1.0  0.36110  0.64668  0.70386  1.0000
  C   C768      1.0  0.40905  0.67418  0.99748  1.0000
  H   H928      1.0  0.43768  0.79709  0.89150  1.0000
  H   H929      1.0  0.10717  0.80795  0.61242  1.0000
  C   C769      1.0  0.07399  0.77297  0.58809  1.0000
  H   H930      1.0  0.09526  0.63272  0.72594  1.0000
  H   H931      1.0  0.08026  0.66884  0.70602  1.0000
  H   H932      1.0  0.47651  0.64734  0.78592  1.0000
  C   C770      1.0  0.39773  0.64364  0.71198  1.0000
  H   H933      1.0  0.44911  0.63850  0.85331  1.0000
  C   C771      1.0  0.36998  0.63970  0.69072  1.0000
  H   H934      1.0  0.03329  0.64460  0.70543  1.0000
  C   C772      1.0  0.39877  0.62190  0.68169  1.0000
  H   H935      1.0  0.46149  0.72800  0.95652  1.0000
  H   H936      1.0  0.49967  0.72091  0.80698  1.0000
  H   H937      1.0  0.12647  0.75820  0.62175  1.0000
  H   H938      1.0  0.05476  0.64781  0.67694  1.0000
  C   C773      1.0  0.41873  0.69622  0.95892  1.0000
  H   H939      1.0  0.20896  0.62221  0.55337  1.0000
  C   C774      1.0  0.42650  0.79771  0.87982  1.0000
  C   C775      1.0  0.48156  0.61946  0.86253  1.0000
  H   H940      1.0  0.49958  0.70353  0.73973  1.0000
  C   C776      1.0  0.49248  0.63126  0.58592  1.0000
  Fe  Fe104     1.0  0.49554  0.61531  0.00670  1.0000
  H   H941      1.0  0.06449  0.76350  0.58103  1.0000
  H   H942      1.0  0.08009  0.75429  0.61534  1.0000
  H   H943      1.0  0.08029  0.78405  0.65824  1.0000
  C   C777      1.0  0.50471  0.65697  0.56350  1.0000
  H   H944      1.0  0.48936  0.66453  0.53414  1.0000
  H   H945      1.0  0.25220  0.62840  0.63519  1.0000
  C   C778      1.0  0.14125  0.61085  0.54067  1.0000
  H   H946      1.0  0.50318  0.66945  0.85449  1.0000
  C   C779      1.0  0.07707  0.79033  0.57759  1.0000
  H   H947      1.0  0.37086  0.61891  0.72785  1.0000
  C   C780      1.0  0.17850  0.61151  0.59566  1.0000
  C   C781      1.0  0.49520  0.66592  0.80027  1.0000
  C   C782      1.0  0.03531  0.80280  0.77959  1.0000
  H   H948      1.0  0.46692  0.63254  0.82115  1.0000
  H   H949      1.0  0.41198  0.61494  0.68791  1.0000
  C   C783      1.0  0.47718  0.64322  0.82136  1.0000
  C   C784      1.0  0.38072  0.61398  0.71434  1.0000
  H   H950      1.0  0.47311  0.61276  0.85011  1.0000
  C   C785      1.0  0.00752  0.80346  0.80467  1.0000
  H   H951      1.0  0.16507  0.61107  0.58679  1.0000
  C   C786      1.0  0.09138  0.61486  0.52143  1.0000
  C   C787      1.0  0.19805  0.61412  0.56256  1.0000
  H   H952      1.0  0.39573  0.68228  0.99364  1.0000
  C   C788      1.0  0.50256  0.67194  0.81971  1.0000
  H   H953      1.0  0.20535  0.61975  0.71950  1.0000
  H   H954      1.0  0.18592  0.61315  0.55152  1.0000
  H   H955      1.0  0.08199  0.80765  0.80755  1.0000
  H   H956      1.0  0.46763  0.61928  0.57391  1.0000
  H   H957      1.0  0.50566  0.63599  0.62739  1.0000
  C   C789      1.0  0.21991  0.60884  0.60390  1.0000
  C   C790      1.0  0.23548  0.61010  0.61715  1.0000
  Fe  Fe105     1.0  0.11403  0.60930  0.65365  1.0000
  H   H958      1.0  0.26095  0.90486  0.11092  1.0000
  S   S210      1.0  0.06352  0.84206  0.47536  1.0000
  Fe  Fe106     1.0  0.22683  0.95315  0.22660  1.0000
  S   S211      1.0  0.23669  0.92866  0.24839  1.0000
  S   S212      1.0  0.23217  0.98395  0.23334  1.0000
  Fe  Fe107     1.0  0.21568  0.92687  0.19009  1.0000
  S   S213      1.0  0.22484  0.90085  0.20987  1.0000
  S   S214      1.0  0.20696  0.91926  0.15580  1.0000
  Fe  Fe108     1.0  0.21020  0.91498  0.23876  1.0000
  S   S215      1.0  0.18940  0.90282  0.26457  1.0000
  Fe  Fe109     1.0  0.25039  0.91679  0.21726  1.0000
  S   S216      1.0  0.27983  0.90210  0.21580  1.0000
  S   S217      1.0  0.19957  0.94039  0.21855  1.0000
  S   S218      1.0  0.24198  0.94190  0.19598  1.0000
  C   C791      1.0  0.44046  0.81289  0.10602  1.0000
  S   S219      1.0  0.14108  0.82895  0.27659  1.0000
  S   S220      1.0  0.09614  0.83431  0.31909  1.0000
  Fe  Fe110     1.0  0.14638  0.96181  0.05718  1.0000
  C   C792      1.0  0.18924  0.00628  0.40431  1.0000
  S   S221      1.0  0.15261  0.96849  0.09275  1.0000
  Fe  Fe111     1.0  0.12266  0.93838  0.02775  1.0000
  H   H959      1.0  0.05852  0.87835  0.37808  1.0000
  H   H960      1.0  0.11646  0.91933  0.20052  1.0000
  H   H961      1.0  0.31073  0.97720  0.21587  1.0000
  C   C793      1.0  0.20515  0.99623  0.37019  1.0000
  S   S222      1.0  0.15315  0.93633  0.03662  1.0000
  S   S223      1.0  0.11556  0.96194  0.05059  1.0000
  Fe  Fe112     1.0  0.38415  0.90393  0.15160  1.0000
  S   S224      1.0  0.40291  0.92166  0.12912  1.0000
  S   S225      1.0  0.35457  0.91780  0.15753  1.0000
  Fe  Fe113     1.0  0.41455  0.87222  0.15650  1.0000
  S   S226      1.0  0.43444  0.88841  0.13459  1.0000
  S   S227      1.0  0.42989  0.84524  0.17006  1.0000
  Fe  Fe114     1.0  0.42550  0.91418  0.15384  1.0000
  S   S228      1.0  0.45013  0.93225  0.16366  1.0000
  Fe  Fe115     1.0  0.41043  0.89448  0.11158  1.0000
  S   S229      1.0  0.41794  0.88782  0.07474  1.0000
  S   S230      1.0  0.40652  0.89779  0.17696  1.0000
  S   S231      1.0  0.39073  0.87709  0.13287  1.0000
  H   H962      1.0  0.45395  0.81457  0.18606  1.0000
  C   C794      1.0  0.14393  0.91719  0.14441  1.0000
  S   S232      1.0  0.47502  0.98440  0.24205  1.0000
  C   C795      1.0  0.45677  0.94631  0.18603  1.0000
  C   C796      1.0  0.47547  0.95190  0.18667  1.0000
  C   C797      1.0  0.48143  0.96321  0.20374  1.0000
  C   C798      1.0  0.46868  0.96938  0.22040  1.0000
  C   C799      1.0  0.44999  0.96381  0.21977  1.0000
  C   C800      1.0  0.44408  0.95234  0.20282  1.0000
  H   H963      1.0  0.48543  0.94743  0.17379  1.0000
  H   H964      1.0  0.39743  0.82193  0.16382  1.0000
  H   H965      1.0  0.43992  0.96846  0.23247  1.0000
  H   H966      1.0  0.42965  0.94829  0.20264  1.0000
  H   H967      1.0  0.12121  0.95828  0.48914  1.0000
  C   C801      1.0  0.03339  0.85663  0.42967  1.0000
  S   S233      1.0  0.05395  0.89476  0.49616  1.0000
  C   C802      1.0  0.39142  0.89931  0.04267  1.0000
  C   C803      1.0  0.40910  0.89074  0.04716  1.0000
  C   C804      1.0  0.42029  0.88400  0.02910  1.0000
  C   C805      1.0  0.40894  0.81292  0.16986  1.0000
  H   H968      1.0  0.38255  0.90459  0.05616  1.0000
  H   H969      1.0  0.43400  0.87740  0.03214  1.0000
  H   H970      1.0  0.15833  0.93411  0.21289  1.0000
  H   H971      1.0  0.16744  0.90576  0.16140  1.0000
  C   C806      1.0  0.47400  0.92733  0.25193  1.0000
  H   H972      1.0  0.13751  0.92556  0.22650  1.0000
  C   C807      1.0  0.04005  0.85095  0.12767  1.0000
  C   C808      1.0  0.04168  0.92396  0.03293  1.0000
  C   C809      1.0  0.47398  0.99833  0.13920  1.0000
  C   C810      1.0  0.07339  0.93541  0.03130  1.0000
  H   H973      1.0  0.03978  0.89421  0.02804  1.0000
  S   S234      1.0  0.09940  0.00398  0.01566  1.0000
  C   C811      1.0  0.04910  0.90570  0.02891  1.0000
  C   C812      1.0  0.22665  0.99694  0.25760  1.0000
  H   H974      1.0  0.08257  0.94700  0.03199  1.0000
  H   H975      1.0  0.15994  0.91781  0.23614  1.0000
  C   C813      1.0  0.21763  0.98894  0.27622  1.0000
  H   H976      1.0  0.46207  0.84360  0.10034  1.0000
  H   H977      1.0  0.21374  0.97441  0.27607  1.0000
  C   C814      1.0  0.30057  0.90687  0.19961  1.0000
  C   C815      1.0  0.30177  0.92281  0.18553  1.0000
  C   C816      1.0  0.31835  0.92576  0.17280  1.0000
  C   C817      1.0  0.33412  0.91306  0.17414  1.0000
  C   C818      1.0  0.33309  0.89730  0.18852  1.0000
  C   C819      1.0  0.31640  0.89424  0.20111  1.0000
  H   H978      1.0  0.29003  0.93297  0.18443  1.0000
  H   H979      1.0  0.31904  0.93809  0.16192  1.0000
  H   H980      1.0  0.34509  0.88742  0.18982  1.0000
  H   H981      1.0  0.31575  0.88192  0.21203  1.0000
  C   C820      1.0  0.19235  0.93357  0.13832  1.0000
  C   C821      1.0  0.18982  0.92789  0.11663  1.0000
  C   C822      1.0  0.17785  0.93852  0.10238  1.0000
  C   C823      1.0  0.16819  0.95488  0.10980  1.0000
  C   C824      1.0  0.17072  0.96054  0.13152  1.0000
  C   C825      1.0  0.18277  0.94997  0.14572  1.0000
  H   H982      1.0  0.19710  0.91517  0.11079  1.0000
  H   H983      1.0  0.17601  0.93401  0.08572  1.0000
  H   H984      1.0  0.16330  0.97318  0.13739  1.0000
  H   H985      1.0  0.18454  0.95446  0.16240  1.0000
  C   C826      1.0  0.17681  0.88170  0.26802  1.0000
  C   C827      1.0  0.17928  0.86666  0.25359  1.0000
  C   C828      1.0  0.16830  0.85067  0.25654  1.0000
  C   C829      1.0  0.15497  0.84925  0.27417  1.0000
  C   C830      1.0  0.15273  0.86416  0.28878  1.0000
  C   C831      1.0  0.16351  0.88026  0.28564  1.0000
  H   H986      1.0  0.18966  0.86727  0.24020  1.0000
  H   H987      1.0  0.17025  0.83919  0.24522  1.0000
  H   H988      1.0  0.14258  0.86334  0.30241  1.0000
  H   H989      1.0  0.16151  0.89171  0.29701  1.0000
  C   C832      1.0  0.33559  0.96062  0.20807  1.0000
  C   C833      1.0  0.07573  0.84238  0.44939  1.0000
  C   C834      1.0  0.08772  0.85673  0.44315  1.0000
  C   C835      1.0  0.09707  0.85658  0.42230  1.0000
  C   C836      1.0  0.09459  0.84210  0.40749  1.0000
  C   C837      1.0  0.08271  0.82763  0.41383  1.0000
  C   C838      1.0  0.07329  0.82784  0.43464  1.0000
  H   H990      1.0  0.08973  0.86800  0.45435  1.0000
  N   N55       1.0  0.43445  0.83226  0.09851  1.0000
  H   H991      1.0  0.05993  0.89323  0.41372  1.0000
  H   H992      1.0  0.01002  0.81686  0.30462  1.0000
  C   C839      1.0  0.46878  0.90913  0.21968  1.0000
  C   C840      1.0  0.04158  0.85508  0.38999  1.0000
  Fe  Fe116     1.0  0.06604  0.86497  0.50053  1.0000
  S   S235      1.0  0.04946  0.81034  0.31149  1.0000
  H   H993      1.0  0.11859  0.92936  0.13055  1.0000
  C   C841      1.0  0.32289  0.87949  0.13977  1.0000
  H   H994      1.0  0.06066  0.83468  0.34366  1.0000
  C   C842      1.0  0.25498  0.89457  0.12307  1.0000
  C   C843      1.0  0.03148  0.85895  0.35220  1.0000
  H   H995      1.0  0.06888  0.85444  0.35712  1.0000
  H   H996      1.0  0.10117  0.93031  0.16660  1.0000
  C   C844      1.0  0.32224  0.93352  0.23825  1.0000
  H   H997      1.0  0.46865  0.81358  0.09089  1.0000
  C   C845      1.0  0.31847  0.96407  0.21954  1.0000
  H   H998      1.0  0.05454  0.85280  0.12235  1.0000
  H   H999      1.0  0.29779  0.93673  0.27547  1.0000
  C   C846      1.0  0.17591  0.99207  0.40643  1.0000
  H   H1000     1.0  0.26680  0.91562  0.16973  1.0000
  C   C847      1.0  0.49810  0.94466  0.28128  1.0000
  S   S236      1.0  0.09827  0.92640  0.49605  1.0000
  H   H1001     1.0  0.04825  0.95291  0.03708  1.0000
  C   C848      1.0  0.21346  0.99984  0.29503  1.0000
  H   H1002     1.0  0.29098  0.91127  0.11863  1.0000
  H   H1003     1.0  0.16711  0.99141  0.46202  1.0000
  H   H1004     1.0  0.03054  0.85228  0.33583  1.0000
  C   C849      1.0  0.50050  0.91483  0.22992  1.0000
  H   H1005     1.0  0.10625  0.86780  0.41759  1.0000
  H   H1006     1.0  0.27348  0.94244  0.27069  1.0000
  H   H1007     1.0  0.04426  0.87947  0.44701  1.0000
  C   C850      1.0  0.02560  0.85915  0.11511  1.0000
  H   H1008     1.0  0.28405  0.86621  0.16819  1.0000
  C   C851      1.0  0.05194  0.88074  0.41235  1.0000
  H   H1009     1.0  0.01628  0.83016  0.37433  1.0000
  C   C852      1.0  0.26138  0.91483  0.15282  1.0000
  C   C853      1.0  0.25259  0.88322  0.16067  1.0000
  H   H1010     1.0  0.42557  0.82307  0.06717  1.0000
  H   H1011     1.0  0.03701  0.83020  0.19233  1.0000
  H   H1012     1.0  0.32459  0.90270  0.11646  1.0000
  H   H1013     1.0  0.08075  0.81626  0.40283  1.0000
  H   H1014     1.0  0.44918  0.83097  0.06673  1.0000
  S   S237      1.0  0.13192  0.80928  0.33837  1.0000
  H   H1015     1.0  0.18119  0.91062  0.19426  1.0000
  H   H1016     1.0  0.34064  0.97085  0.19591  1.0000
  N   N56       1.0  0.15282  0.90550  0.20546  1.0000
  C   C854      1.0  0.14294  0.88956  0.21615  1.0000
  C   C855      1.0  0.17290  0.89923  0.20215  1.0000
  C   C856      1.0  0.15206  0.92144  0.22084  1.0000
  C   C857      1.0  0.14358  0.91152  0.18467  1.0000
  C   C858      1.0  0.12455  0.91854  0.18514  1.0000
  C   C859      1.0  0.15298  0.91086  0.16359  1.0000
  C   C860      1.0  0.11564  0.92484  0.16583  1.0000
  Fe  Fe117     1.0  0.12159  0.81839  0.30494  1.0000
  H   H1017     1.0  0.17102  0.98532  0.39208  1.0000
  H   H1018     1.0  0.14322  0.87722  0.20520  1.0000
  H   H1019     1.0  0.14955  0.88473  0.23190  1.0000
  H   H1020     1.0  0.12801  0.89337  0.22054  1.0000
  H   H1021     1.0  0.17458  0.88654  0.19179  1.0000
  H   H1022     1.0  0.17961  0.89539  0.21812  1.0000
  H   H1023     1.0  0.28582  0.92554  0.25380  1.0000
  H   H1024     1.0  0.31736  0.85807  0.16454  1.0000
  H   H1025     1.0  0.49581  0.96733  0.20373  1.0000
  C   C861      1.0  0.04307  0.87307  0.43111  1.0000
  C   C862      1.0  0.33942  0.93031  0.22680  1.0000
  H   H1026     1.0  0.25325  0.86826  0.15564  1.0000
  H   H1027     1.0  0.21670  0.98918  0.37980  1.0000
  C   C863      1.0  0.28735  0.93908  0.26229  1.0000
  C   C864      1.0  0.13018  0.81122  0.43786  1.0000
  H   H1028     1.0  0.31768  0.92213  0.24902  1.0000
  H   H1029     1.0  0.48884  0.95665  0.27503  1.0000
  H   H1030     1.0  0.06841  0.83211  0.37140  1.0000
  C   C865      1.0  0.05389  0.93876  0.03406  1.0000
  C   C866      1.0  0.38516  0.90110  0.02065  1.0000
  H   H1031     1.0  0.27768  0.94371  0.21980  1.0000
  Fe  Fe118     1.0  0.50006  0.99928  0.25595  1.0000
  H   H1032     1.0  0.37148  0.90777  0.01761  1.0000
  H   H1033     1.0  0.21124  0.00071  0.35376  1.0000
  H   H1034     1.0  0.19496  0.98544  0.36674  1.0000
  H   H1035     1.0  0.41123  0.85292  0.10059  1.0000
  Fe  Fe119     1.0  0.12203  0.98107  0.02149  1.0000
  H   H1036     1.0  0.30437  0.97131  0.27092  1.0000
  C   C867      1.0  0.12537  0.92427  0.14551  1.0000
  C   C868      1.0  0.45841  0.99226  0.15142  1.0000
  H   H1037     1.0  0.41409  0.83819  0.12485  1.0000
  H   H1038     1.0  0.26378  0.95892  0.23775  1.0000
  H   H1039     1.0  0.33792  0.87618  0.13901  1.0000
  C   C869      1.0  0.08090  0.91714  0.02776  1.0000
  H   H1040     1.0  0.15778  0.97599  0.42826  1.0000
  C   C870      1.0  0.31127  0.86936  0.15419  1.0000
  H   H1041     1.0  0.00711  0.89551  0.50208  1.0000
  H   H1042     1.0  0.15146  0.91684  0.12855  1.0000
  C   C871      1.0  0.03594  0.84030  0.14691  1.0000
  Fe  Fe120     1.0  0.10533  0.82318  0.35245  1.0000
  H   H1043     1.0  0.07442  0.88813  0.02366  1.0000
  H   H1044     1.0  0.23743  0.88799  0.16152  1.0000
  C   C872      1.0  0.00697  0.85681  0.12178  1.0000
  C   C873      1.0  0.29204  0.87425  0.15611  1.0000
  H   H1045     1.0  0.01695  0.86298  0.35820  1.0000
  C   C874      1.0  0.28381  0.88943  0.14326  1.0000
  S   S238      1.0  0.15251  0.98267  0.02931  1.0000
  H   H1046     1.0  0.44668  0.92118  0.24042  1.0000
  H   H1047     1.0  0.25767  0.88386  0.17785  1.0000
  S   S239      1.0  0.10663  0.84289  0.38136  1.0000
  C   C875      1.0  0.11206  0.96096  0.50342  1.0000
  H   H1048     1.0  0.09667  0.99359  0.07439  1.0000
  N   N57       1.0  0.29276  0.95438  0.24638  1.0000
  C   C876      1.0  0.29608  0.89935  0.12862  1.0000
  N   N58       1.0  0.26356  0.89525  0.14502  1.0000
  H   H1049     1.0  0.48961  0.93541  0.29241  1.0000
  H   H1050     1.0  0.23954  0.89816  0.12411  1.0000
  H   H1051     1.0  0.44311  0.86073  0.10138  1.0000
  C   C877      1.0  0.06057  0.84170  0.35980  1.0000
  H   H1052     1.0  0.14124  0.81618  0.42687  1.0000
  H   H1053     1.0  0.26894  0.92505  0.14202  1.0000
  C   C878      1.0  0.03259  0.84767  0.40948  1.0000
  H   H1054     1.0  0.24638  0.92000  0.15352  1.0000
  H   H1055     1.0  0.04783  0.83428  0.15572  1.0000
  H   H1056     1.0  0.03906  0.87212  0.34909  1.0000
  H   H1057     1.0  0.25709  0.88026  0.11612  1.0000
  C   C879      1.0  0.31532  0.89448  0.12706  1.0000
  H   H1058     1.0  0.27987  0.96881  0.21821  1.0000
  C   C880      1.0  0.17352  0.99518  0.44611  1.0000
  C   C881      1.0  0.46177  0.91916  0.23781  1.0000
  H   H1059     1.0  0.34734  0.91697  0.22899  1.0000
  H   H1060     1.0  0.03152  0.82139  0.35264  1.0000
  C   C882      1.0  0.29293  0.97207  0.25881  1.0000
  C   C883      1.0  0.34604  0.94377  0.21168  1.0000
  C   C884      1.0  0.11049  0.81690  0.47052  1.0000
  C   C885      1.0  0.06871  0.90230  0.02644  1.0000
  C   C886      1.0  0.27795  0.95657  0.22978  1.0000
  C   C887      1.0  0.03132  0.82798  0.36915  1.0000
  H   H1061     1.0  0.03777  0.80887  0.17637  1.0000
  H   H1062     1.0  0.44762  0.84544  0.12511  1.0000
  N   N59       1.0  0.01202  0.82616  0.17415  1.0000
  C   C888      1.0  0.45592  0.99701  0.17347  1.0000
  H   H1063     1.0  0.27933  0.97498  0.26803  1.0000
  H   H1064     1.0  0.02880  0.86729  0.10013  1.0000
  C   C889      1.0  0.48810  0.90695  0.21575  1.0000
  H   H1065     1.0  0.45918  0.90345  0.20830  1.0000
  C   C890      1.0  0.42599  0.82073  0.17440  1.0000
  C   C891      1.0  0.49384  0.92538  0.24840  1.0000
  H   H1066     1.0  0.44399  0.99189  0.18306  1.0000
  C   C892      1.0  0.31123  0.95060  0.23499  1.0000
  S   S240      1.0  0.10546  0.91263  0.02517  1.0000
  C   C893      1.0  0.44741  0.84601  0.10669  1.0000
  C   C894      1.0  0.01607  0.81064  0.28977  1.0000
  H   H1067     1.0  0.40441  0.82917  0.10013  1.0000
  N   N60       1.0  0.04115  0.84599  0.36831  1.0000
  C   C895      1.0  0.43480  0.83351  0.07401  1.0000
  H   H1068     1.0  0.29492  0.98466  0.24779  1.0000
  H   H1069     1.0  0.49341  0.89938  0.20138  1.0000
  S   S241      1.0  0.01737  0.92895  0.03726  1.0000
  H   H1070     1.0  0.46750  0.93548  0.26512  1.0000
  C   C896      1.0  0.41519  0.83826  0.10643  1.0000
  C   C897      1.0  0.16820  0.98663  0.42705  1.0000
  H   H1071     1.0  0.12932  0.99606  0.07083  1.0000
  H   H1072     1.0  0.01809  0.97641  0.02536  1.0000
  H   H1073     1.0  0.42977  0.84780  0.06781  1.0000
  C   C898      1.0  0.05117  0.87198  0.39205  1.0000
  H   H1074     1.0  0.11754  0.99562  0.10792  1.0000
  H   H1075     1.0  0.06409  0.81665  0.43940  1.0000
  H   H1076     1.0  0.20636  0.99352  0.30924  1.0000
  H   H1077     1.0  0.35899  0.94084  0.20220  1.0000
  C   C899      1.0  0.02860  0.81864  0.18650  1.0000
  H   H1078     1.0  0.49957  0.00451  0.21150  1.0000
  H   H1079     1.0  0.03830  0.81737  0.38051  1.0000
  H   H1080     1.0  0.47590  0.99442  0.12207  1.0000
  H   H1081     1.0  0.44843  0.98350  0.14396  1.0000
  S   S242      1.0  0.50436  0.99592  0.29258  1.0000
  H   H1082     1.0  0.10593  0.82587  0.48407  1.0000
  C   C900      1.0  0.12486  0.82231  0.45592  1.0000
  H   H1083     1.0  0.02717  0.85039  0.44459  1.0000
  H   H1084     1.0  0.13153  0.83546  0.45828  1.0000
  C   C901      1.0  0.01703  0.83763  0.15416  1.0000
  H   H1085     1.0  0.02524  0.83475  0.40977  1.0000
  C   C902      1.0  0.46918  0.00747  0.18356  1.0000
  H   H1086     1.0  0.00690  0.85076  0.19377  1.0000
  H   H1087     1.0  0.02437  0.81028  0.20156  1.0000
  Fe  Fe121     1.0  0.04363  0.89133  0.53148  1.0000
  C   C903      1.0  0.48560  0.88721  0.86847  1.0000
  Fe  Fe122     1.0  0.08037  0.87165  0.54683  1.0000
  H   H1088     1.0  0.33796  0.93416  0.91371  1.0000
  S   S243      1.0  0.09907  0.86072  0.57481  1.0000
  N   N61       1.0  0.33428  0.92265  0.94710  1.0000
  C   C904      1.0  0.10842  0.84599  0.80930  1.0000
  H   H1089     1.0  0.14166  0.94363  0.57043  1.0000
  S   S244      1.0  0.06966  0.90192  0.54583  1.0000
  S   S245      1.0  0.05350  0.86074  0.53505  1.0000
  C   C905      1.0  0.09394  0.81620  0.81185  1.0000
  S   S246      1.0  0.18219  0.95167  0.98452  1.0000
  Fe  Fe123     1.0  0.20453  0.89999  0.82195  1.0000
  S   S247      1.0  0.19252  0.92993  0.82149  1.0000
  S   S248      1.0  0.19343  0.87402  0.80541  1.0000
  Fe  Fe124     1.0  0.23872  0.91041  0.84971  1.0000
  S   S249      1.0  0.22877  0.94106  0.85096  1.0000
  S   S250      1.0  0.26347  0.89605  0.86834  1.0000
  Fe  Fe125     1.0  0.19993  0.93008  0.85748  1.0000
  S   S251      1.0  0.17714  0.94279  0.88049  1.0000
  Fe  Fe126     1.0  0.22216  0.93858  0.81497  1.0000
  S   S252      1.0  0.23182  0.95858  0.78701  1.0000
  S   S253      1.0  0.20997  0.89960  0.85847  1.0000
  S   S254      1.0  0.23403  0.90853  0.81330  1.0000
  H   H1090     1.0  0.13902  0.87418  0.97650  1.0000
  S   S255      1.0  0.06824  0.82426  0.66544  1.0000
  C   C906      1.0  0.07558  0.86008  0.83325  1.0000
  S   S256      1.0  0.12529  0.85154  0.74595  1.0000
  S   S257      1.0  0.08043  0.83027  0.72865  1.0000
  Fe  Fe127     1.0  0.37657  0.89639  0.89317  1.0000
  S   S258      1.0  0.39267  0.91580  0.91361  1.0000
  S   S259      1.0  0.35103  0.91101  0.87639  1.0000
  Fe  Fe128     1.0  0.40548  0.86351  0.90016  1.0000
  S   S260      1.0  0.42303  0.88109  0.92138  1.0000
  S   S261      1.0  0.41853  0.83344  0.89550  1.0000
  Fe  Fe129     1.0  0.39593  0.89133  0.93826  1.0000
  S   S262      1.0  0.38748  0.89721  0.97501  1.0000
  Fe  Fe130     1.0  0.41866  0.90434  0.89534  1.0000
  S   S263      1.0  0.44486  0.92098  0.88493  1.0000
  S   S264      1.0  0.37843  0.87240  0.91851  1.0000
  S   S265      1.0  0.40255  0.88629  0.87344  1.0000
  H   H1091     1.0  0.47443  0.88228  0.81254  1.0000
  C   C907      1.0  0.08860  0.96786  0.54036  1.0000
  S   S266      1.0  0.47616  0.97447  0.80539  1.0000
  C   C908      1.0  0.45300  0.93606  0.86267  1.0000
  C   C909      1.0  0.47030  0.94463  0.86450  1.0000
  C   C910      1.0  0.47754  0.95650  0.84738  1.0000
  C   C911      1.0  0.46764  0.95991  0.82795  1.0000
  C   C912      1.0  0.45050  0.95108  0.82595  1.0000
  C   C913      1.0  0.44316  0.93938  0.84317  1.0000
  H   H1092     1.0  0.47808  0.94225  0.87945  1.0000
  H   H1093     1.0  0.49074  0.96306  0.84930  1.0000
  H   H1094     1.0  0.44278  0.95334  0.81094  1.0000
  H   H1095     1.0  0.42992  0.93287  0.84131  1.0000
  H   H1096     1.0  0.03017  0.86506  0.85253  1.0000
  C   C914      1.0  0.08714  0.95124  0.52867  1.0000
  H   H1097     1.0  0.44733  0.88253  0.86836  1.0000
  C   C915      1.0  0.19723  0.00610  0.78078  1.0000
  C   C916      1.0  0.02577  0.81548  0.76527  1.0000
  C   C917      1.0  0.22207  0.98130  0.77927  1.0000
  Fe  Fe131     1.0  0.08457  0.81595  0.69614  1.0000
  H   H1098     1.0  0.33688  0.94034  0.97511  1.0000
  C   C918      1.0  0.20429  0.98784  0.78697  1.0000
  S   S267      1.0  0.10400  0.00100  0.54984  1.0000
  H   H1099     1.0  0.19603  0.97882  0.79767  1.0000
  C   C919      1.0  0.28802  0.89996  0.86911  1.0000
  C   C920      1.0  0.29587  0.91608  0.85960  1.0000
  C   C921      1.0  0.31522  0.91896  0.86162  1.0000
  C   C922      1.0  0.32706  0.90575  0.87303  1.0000
  C   C923      1.0  0.31926  0.88951  0.88232  1.0000
  C   C924      1.0  0.29987  0.88673  0.88048  1.0000
  H   H1100     1.0  0.28701  0.92644  0.85089  1.0000
  H   H1101     1.0  0.32103  0.93161  0.85441  1.0000
  H   H1102     1.0  0.32808  0.87918  0.89113  1.0000
  H   H1103     1.0  0.29397  0.87422  0.88796  1.0000
  C   C925      1.0  0.17364  0.86802  0.79002  1.0000
  C   C926      1.0  0.15993  0.88145  0.78286  1.0000
  C   C927      1.0  0.14515  0.87605  0.76973  1.0000
  C   C928      1.0  0.14371  0.85716  0.76367  1.0000
  C   C929      1.0  0.15713  0.84364  0.77131  1.0000
  C   C930      1.0  0.17201  0.84908  0.78426  1.0000
  H   H1104     1.0  0.16082  0.89604  0.78714  1.0000
  H   H1105     1.0  0.13491  0.88667  0.76392  1.0000
  H   H1106     1.0  0.15633  0.82908  0.76682  1.0000
  H   H1107     1.0  0.18249  0.83852  0.78967  1.0000
  C   C931      1.0  0.18060  0.94953  0.95556  1.0000
  C   C932      1.0  0.16363  0.95310  0.94487  1.0000
  C   C933      1.0  0.16283  0.95093  0.92189  1.0000
  C   C934      1.0  0.17893  0.94514  0.90937  1.0000
  C   C935      1.0  0.19596  0.94175  0.91998  1.0000
  C   C936      1.0  0.19675  0.94392  0.94299  1.0000
  H   H1108     1.0  0.15119  0.95772  0.95428  1.0000
  H   H1109     1.0  0.14963  0.95371  0.91378  1.0000
  H   H1110     1.0  0.20847  0.93736  0.91051  1.0000
  H   H1111     1.0  0.20995  0.94117  0.95112  1.0000
  H   H1112     1.0  0.30804  0.92668  0.98288  1.0000
  H   H1113     1.0  0.11228  0.89477  0.55512  1.0000
  C   C937      1.0  0.08998  0.85196  0.60047  1.0000
  C   C938      1.0  0.10218  0.84847  0.61808  1.0000
  C   C939      1.0  0.09568  0.84046  0.63832  1.0000
  C   C940      1.0  0.07694  0.83557  0.64096  1.0000
  C   C941      1.0  0.06471  0.83929  0.62344  1.0000
  C   C942      1.0  0.07114  0.84756  0.60334  1.0000
  C   C943      1.0  0.08032  0.91864  0.60399  1.0000
  H   H1114     1.0  0.05019  0.83562  0.62535  1.0000
  H   H1115     1.0  0.06160  0.85014  0.58992  1.0000
  H   H1116     1.0  0.49812  0.84413  0.84705  1.0000
  H   H1117     1.0  0.25846  0.92190  0.94631  1.0000
  C   C944      1.0  0.19847  0.98816  0.87779  1.0000
  C   C945      1.0  0.10190  0.98098  0.53381  1.0000
  H   H1118     1.0  0.11153  0.91454  0.95147  1.0000
  H   H1119     1.0  0.33476  0.95140  0.93479  1.0000
  H   H1120     1.0  0.11677  0.85186  0.61601  1.0000
  C   C946      1.0  0.48410  0.91046  0.81091  1.0000
  C   C947      1.0  0.44893  0.00636  0.76213  1.0000
  H   H1121     1.0  0.15061  0.90243  0.57177  1.0000
  H   H1122     1.0  0.45403  0.83117  0.87323  1.0000
  H   H1123     1.0  0.27751  0.91787  0.91174  1.0000
  C   C948      1.0  0.31347  0.92284  0.94732  1.0000
  H   H1124     1.0  0.49988  0.94034  0.74941  1.0000
  C   C949      1.0  0.41454  0.81410  0.87824  1.0000
  H   H1125     1.0  0.50234  0.91155  0.86452  1.0000
  H   H1126     1.0  0.39074  0.82700  0.86162  1.0000
  C   C950      1.0  0.02651  0.99639  0.51858  1.0000
  N   N62       1.0  0.19011  0.99740  0.85778  1.0000
  H   H1127     1.0  0.40689  0.00170  0.76207  1.0000
  H   H1128     1.0  0.42293  0.88060  0.99357  1.0000
  H   H1129     1.0  0.49574  0.93727  0.80593  1.0000
  H   H1130     1.0  0.47900  0.82977  0.87379  1.0000
  C   C951      1.0  0.49638  0.92290  0.80048  1.0000
  H   H1131     1.0  0.07942  0.97051  0.55462  1.0000
  H   H1132     1.0  0.43881  0.99952  0.82224  1.0000
  H   H1133     1.0  0.19200  0.97140  0.84008  1.0000
  H   H1134     1.0  0.45053  0.86817  0.84448  1.0000
  H   H1135     1.0  0.45676  0.99377  0.76930  1.0000
  H   H1136     1.0  0.24622  0.98812  0.75874  1.0000
  C   C952      1.0  0.30212  0.92493  0.96694  1.0000
  C   C953      1.0  0.46686  0.83800  0.86657  1.0000
  Fe  Fe132     1.0  0.11181  0.82536  0.73253  1.0000
  N   N63       1.0  0.20809  0.90898  0.74800  1.0000
  C   C954      1.0  0.21539  0.92290  0.73148  1.0000
  C   C955      1.0  0.19838  0.91936  0.76625  1.0000
  C   C956      1.0  0.22458  0.89821  0.75729  1.0000
  C   C957      1.0  0.19460  0.89690  0.73778  1.0000
  C   C958      1.0  0.19625  0.87684  0.73906  1.0000
  C   C959      1.0  0.17871  0.90519  0.72691  1.0000
  C   C960      1.0  0.18299  0.86591  0.72964  1.0000
  C   C961      1.0  0.16547  0.89410  0.71770  1.0000
  C   C962      1.0  0.16763  0.87450  0.71903  1.0000
  H   H1137     1.0  0.20425  0.93310  0.72546  1.0000
  H   H1138     1.0  0.22612  0.93168  0.73866  1.0000
  H   H1139     1.0  0.22203  0.91569  0.71692  1.0000
  H   H1140     1.0  0.18655  0.92884  0.76050  1.0000
  H   H1141     1.0  0.20814  0.92841  0.77463  1.0000
  H   H1142     1.0  0.19253  0.90936  0.77889  1.0000
  H   H1143     1.0  0.23237  0.88974  0.74450  1.0000
  H   H1144     1.0  0.23478  0.90773  0.76414  1.0000
  H   H1145     1.0  0.22033  0.88860  0.77129  1.0000
  H   H1146     1.0  0.20729  0.86919  0.74787  1.0000
  H   H1147     1.0  0.17615  0.92031  0.72594  1.0000
  H   H1148     1.0  0.18421  0.85064  0.73135  1.0000
  H   H1149     1.0  0.15321  0.90067  0.70994  1.0000
  H   H1150     1.0  0.15702  0.86591  0.71254  1.0000
  H   H1151     1.0  0.09148  0.81614  0.57846  1.0000
  H   H1152     1.0  0.09824  0.83269  0.77190  1.0000
  H   H1153     1.0  0.07110  0.90821  0.61113  1.0000
  C   C963      1.0  0.05977  0.86733  0.84513  1.0000
  H   H1154     1.0  0.38947  0.96861  0.81842  1.0000
  C   C964      1.0  0.44969  0.86777  0.86284  1.0000
  C   C965      1.0  0.07609  0.93778  0.60700  1.0000
  C   C966      1.0  0.41434  0.98397  0.82234  1.0000
  H   H1155     1.0  0.05447  0.82479  0.80781  1.0000
  Fe  Fe133     1.0  0.08078  0.90310  0.51086  1.0000
  C   C967      1.0  0.40009  0.81457  0.86309  1.0000
  C   C968      1.0  0.49634  0.88553  0.78756  1.0000
  C   C969      1.0  0.22168  0.99626  0.83783  1.0000
  H   H1156     1.0  0.12821  0.93185  0.95673  1.0000
  C   C970      1.0  0.27365  0.92222  0.94663  1.0000
  C   C971      1.0  0.28249  0.92469  0.96646  1.0000
  H   H1157     1.0  0.06093  0.87933  0.85558  1.0000
  N   N64       1.0  0.09059  0.83655  0.80611  1.0000
  H   H1158     1.0  0.11796  0.88137  0.96230  1.0000
  H   H1159     1.0  0.15542  0.92303  0.98072  1.0000
  H   H1160     1.0  0.20677  0.99815  0.88681  1.0000
  C   C972      1.0  0.48359  0.86792  0.86398  1.0000
  H   H1161     1.0  0.10785  0.91622  0.53956  1.0000
  C   C973      1.0  0.11860  0.90807  0.54924  1.0000
  C   C974      1.0  0.46521  0.85915  0.89675  1.0000
  C   C975      1.0  0.08639  0.83854  0.78236  1.0000
  C   C976      1.0  0.09626  0.91281  0.59148  1.0000
  C   C977      1.0  0.39914  0.97834  0.81072  1.0000
  C   C978      1.0  0.41404  0.88582  0.00708  1.0000
  H   H1162     1.0  0.16462  0.00383  0.87702  1.0000
  C   C979      1.0  0.04078  0.84400  0.82996  1.0000
  C   C980      1.0  0.05649  0.83660  0.81816  1.0000
  H   H1163     1.0  0.22432  0.98182  0.84335  1.0000
  H   H1164     1.0  0.11415  0.92180  0.97889  1.0000
  C   C981      1.0  0.49833  0.85878  0.85127  1.0000
  H   H1165     1.0  0.07382  0.83090  0.77809  1.0000
  Fe  Fe134     1.0  0.50002  0.99367  0.79329  1.0000
  Fe  Fe135     1.0  0.15697  0.95708  0.00801  1.0000
  H   H1166     1.0  0.47813  0.85300  0.90453  1.0000
  H   H1167     1.0  0.09883  0.89782  0.58955  1.0000
  H   H1168     1.0  0.43677  0.86038  0.86799  1.0000
  H   H1169     1.0  0.17000  0.97604  0.85434  1.0000
  H   H1170     1.0  0.10643  0.80997  0.80262  1.0000
  H   H1171     1.0  0.46697  0.83620  0.84839  1.0000
  C   C982      1.0  0.34210  0.92639  0.96891  1.0000
  C   C983      1.0  0.07437  0.84442  0.81935  1.0000
  C   C984      1.0  0.42702  0.99633  0.81247  1.0000
  H   H1172     1.0  0.33855  0.90078  0.92302  1.0000
  H   H1173     1.0  0.35764  0.90288  0.94098  1.0000
  H   H1174     1.0  0.33883  0.91511  0.98142  1.0000
  H   H1175     1.0  0.08453  0.96603  0.59983  1.0000
  C   C985      1.0  0.34115  0.93718  0.93107  1.0000
  H   H1176     1.0  0.12035  0.88772  0.99027  1.0000
  H   H1177     1.0  0.10517  0.83790  0.65177  1.0000
  N   N65       1.0  0.46673  0.85823  0.87230  1.0000
  H   H1178     1.0  0.06360  0.94225  0.61650  1.0000
  H   H1179     1.0  0.47500  0.89507  0.87805  1.0000
  H   H1180     1.0  0.08388  0.85361  0.77714  1.0000
  S   S268      1.0  0.50097  0.99638  0.75601  1.0000
  H   H1181     1.0  0.18752  0.98267  0.88953  1.0000
  H   H1182     1.0  0.45310  0.85128  0.90369  1.0000
  C   C986      1.0  0.42462  0.00372  0.79058  1.0000
  H   H1183     1.0  0.15995  0.89860  0.98917  1.0000
  H   H1184     1.0  0.35776  0.92656  0.96797  1.0000
  H   H1185     1.0  0.43985  0.00130  0.74919  1.0000
  H   H1186     1.0  0.35673  0.93793  0.93123  1.0000
  H   H1187     1.0  0.11276  0.84476  0.82678  1.0000
  N   N66       1.0  0.13714  0.90356  0.96670  1.0000
  C   C987      1.0  0.14878  0.90948  0.98493  1.0000
  C   C988      1.0  0.23249  0.99307  0.76490  1.0000
  C   C989      1.0  0.12825  0.88593  0.97418  1.0000
  C   C990      1.0  0.14800  0.90038  0.94576  1.0000
  C   C991      1.0  0.13873  0.89534  0.92654  1.0000
  C   C992      1.0  0.16779  0.90209  0.94370  1.0000
  C   C993      1.0  0.14858  0.89259  0.90645  1.0000
  C   C994      1.0  0.17752  0.89902  0.92359  1.0000
  C   C995      1.0  0.16793  0.89449  0.90498  1.0000
  S   S269      1.0  0.01683  0.90426  0.54695  1.0000
  S   S270      1.0  0.12694  0.95734  0.99794  1.0000
  C   C996      1.0  0.12215  0.91855  0.96322  1.0000
  C   C997      1.0  0.34204  0.90388  0.94027  1.0000
  H   H1188     1.0  0.14022  0.91181  0.00039  1.0000
  C   C998      1.0  0.28438  0.92003  0.92717  1.0000
  H   H1189     1.0  0.31161  0.91858  0.91198  1.0000
  H   H1190     1.0  0.33661  0.89239  0.95125  1.0000
  C   C999      1.0  0.04242  0.85932  0.84346  1.0000
  H   H1191     1.0  0.12374  0.89369  0.92687  1.0000
  H   H1192     1.0  0.17610  0.90619  0.95720  1.0000
  H   H1193     1.0  0.14120  0.88918  0.89185  1.0000
  H   H1194     1.0  0.19256  0.90073  0.92223  1.0000
  H   H1195     1.0  0.17550  0.89272  0.88930  1.0000
  N   N67       1.0  0.12489  0.91934  0.56760  1.0000
  C   C1000     1.0  0.13579  0.93492  0.55760  1.0000
  C   C1001     1.0  0.13772  0.90720  0.58134  1.0000
  C   C1002     1.0  0.10839  0.92599  0.58130  1.0000
  C   C1003     1.0  0.10386  0.94541  0.58502  1.0000
  C   C1004     1.0  0.08789  0.95112  0.59764  1.0000
  H   H1196     1.0  0.14789  0.92952  0.54710  1.0000
  H   H1197     1.0  0.12693  0.94428  0.54658  1.0000
  H   H1198     1.0  0.14209  0.91485  0.59595  1.0000
  S   S271      1.0  0.09368  0.87356  0.51262  1.0000
  H   H1199     1.0  0.13102  0.89413  0.58758  1.0000
  H   H1200     1.0  0.13033  0.90391  0.53752  1.0000
  H   H1201     1.0  0.11213  0.95658  0.57797  1.0000
  H   H1202     1.0  0.12025  0.83958  0.79907  1.0000
  C   C1005     1.0  0.00712  0.82187  0.77048  1.0000
  H   H1203     1.0  0.47452  0.91538  0.82405  1.0000
  H   H1204     1.0  0.46284  0.87385  0.90247  1.0000
  C   C1006     1.0  0.18157  0.98289  0.84481  1.0000
  C   C1007     1.0  0.48405  0.89182  0.80444  1.0000
  C   C1008     1.0  0.40920  0.99737  0.77905  1.0000
  C   C1009     1.0  0.03103  0.96351  0.52925  1.0000
  H   H1205     1.0  0.07690  0.94121  0.53396  1.0000
  H   H1206     1.0  0.49617  0.87101  0.78251  1.0000
  H   H1207     1.0  0.10732  0.86115  0.80395  1.0000
  H   H1208     1.0  0.38491  0.98033  0.77999  1.0000
  C   C1010     1.0  0.30395  0.92040  0.92747  1.0000
  H   H1209     1.0  0.09625  0.81395  0.82984  1.0000
  H   H1210     1.0  0.08852  0.86706  0.83510  1.0000
  H   H1211     1.0  0.04025  0.95160  0.53426  1.0000
  H   H1212     1.0  0.02723  0.83787  0.82842  1.0000
  H   H1213     1.0  0.20775  0.97557  0.87392  1.0000
  H   H1214     1.0  0.41656  0.97838  0.83900  1.0000
  C   C1011     1.0  0.23524  0.00413  0.82366  1.0000
  H   H1215     1.0  0.24775  0.99574  0.81874  1.0000
  H   H1216     1.0  0.50094  0.95439  0.77340  1.0000
  H   H1217     1.0  0.27405  0.92632  0.98157  1.0000
  C   C1012     1.0  0.39637  0.89442  0.00258  1.0000
  C   C1013     1.0  0.11355  0.97759  0.51518  1.0000
  H   H1218     1.0  0.03264  0.82019  0.75004  1.0000
  S   S272      1.0  0.11591  0.81317  0.69848  1.0000
  C   C1014     1.0  0.39661  0.98497  0.78909  1.0000
  C   C1015     1.0  0.09897  0.94766  0.51025  1.0000
  C   C1016     1.0  0.20472  0.00648  0.84377  1.0000
  C   C1017     1.0  0.01185  0.96107  0.52702  1.0000
  C   C1018     1.0  0.50130  0.89677  0.86083  1.0000
  H   H1219     1.0  0.17564  0.98912  0.82929  1.0000
  H   H1220     1.0  0.00692  0.94710  0.53069  1.0000
  C   C1019     1.0  0.03837  0.98111  0.52493  1.0000
  C   C1020     1.0  0.00730  0.99411  0.51620  1.0000
  H   H1221     1.0  0.05327  0.98294  0.52650  1.0000
  H   H1222     1.0  0.12382  0.98767  0.50998  1.0000
  S   S273      1.0  0.91462  0.04923  0.04422  1.0000
  S   S274      1.0  0.93953  0.09645  0.04377  1.0000
  Fe  Fe136     1.0  0.88375  0.05701  0.04170  1.0000
  S   S275      1.0  0.86103  0.05287  0.06858  1.0000
  S   S276      1.0  0.97215  0.11185  0.48940  1.0000
  H   H1223     1.0  0.94008  0.11585  0.11352  1.0000
  S   S277      1.0  0.91292  0.19956  0.34705  1.0000
  S   S278      1.0  0.95693  0.16650  0.47958  1.0000
  Fe  Fe137     1.0  0.94313  0.18964  0.35164  1.0000
  C   C1021     1.0  0.99824  0.10379  0.01200  1.0000
  S   S279      1.0  0.95420  0.16591  0.37451  1.0000
  H   H1224     1.0  0.96053  0.18355  0.25334  1.0000
  Fe  Fe138     1.0  0.91941  0.19723  0.31038  1.0000
  S   S280      1.0  0.90250  0.18696  0.28134  1.0000
  S   S281      1.0  0.94906  0.18540  0.31525  1.0000
  Fe  Fe139     1.0  0.83114  0.10816  0.23585  1.0000
  S   S282      1.0  0.84435  0.08201  0.22033  1.0000
  S   S283      1.0  0.84374  0.12286  0.26514  1.0000
  Fe  Fe140     1.0  0.79536  0.10693  0.20779  1.0000
  S   S284      1.0  0.80654  0.08116  0.18994  1.0000
  S   S285      1.0  0.76641  0.12302  0.20584  1.0000
  Fe  Fe141     1.0  0.81592  0.06972  0.22332  1.0000
  S   S286      1.0  0.81056  0.03838  0.22937  1.0000
  Fe  Fe142     1.0  0.83438  0.09486  0.18805  1.0000
  S   S287      1.0  0.85709  0.09447  0.16059  1.0000
  S   S288      1.0  0.80308  0.09469  0.24136  1.0000
  S   S289      1.0  0.82272  0.12181  0.20341  1.0000
  Fe  Fe143     1.0  0.62991  0.15677  0.15169  1.0000
  S   S290      1.0  0.61004  0.13705  0.13681  1.0000
  S   S291      1.0  0.61518  0.18480  0.16278  1.0000
  Fe  Fe144     1.0  0.66392  0.12844  0.14483  1.0000
  S   S292      1.0  0.64580  0.10744  0.12953  1.0000
  S   S293      1.0  0.69521  0.11821  0.14373  1.0000
  Fe  Fe145     1.0  0.63271  0.13208  0.11006  1.0000
  S   S294      1.0  0.62933  0.13648  0.07203  1.0000
  Fe  Fe146     1.0  0.62456  0.11377  0.15734  1.0000
  S   S295      1.0  0.61492  0.08972  0.18147  1.0000
  S   S296      1.0  0.65177  0.15287  0.12419  1.0000
  S   S297      1.0  0.64341  0.13376  0.17344  1.0000
  C   C1022     1.0  0.83064  0.18554  0.27439  1.0000
  C   C1023     1.0  0.86328  0.02871  0.15518  1.0000
  S   S298      1.0  0.54317  0.04582  0.22095  1.0000
  C   C1024     1.0  0.59456  0.07816  0.19253  1.0000
  C   C1025     1.0  0.57662  0.08124  0.18390  1.0000
  C   C1026     1.0  0.56121  0.07131  0.19286  1.0000
  C   C1027     1.0  0.56329  0.05827  0.21080  1.0000
  C   C1028     1.0  0.58120  0.05532  0.21957  1.0000
  C   C1029     1.0  0.59666  0.06507  0.21043  1.0000
  H   H1225     1.0  0.57463  0.09116  0.17017  1.0000
  H   H1226     1.0  0.54753  0.07383  0.18584  1.0000
  H   H1227     1.0  0.58320  0.04537  0.23327  1.0000
  H   H1228     1.0  0.61036  0.06246  0.21735  1.0000
  C   C1030     1.0  0.62645  0.14210  0.02647  1.0000
  C   C1031     1.0  0.62889  0.12867  0.04395  1.0000
  C   C1032     1.0  0.63110  0.10959  0.03854  1.0000
  H   H1229     1.0  0.62467  0.15689  0.03025  1.0000
  H   H1230     1.0  0.63294  0.09898  0.05158  1.0000
  H   H1231     1.0  0.66109  0.10946  0.07886  1.0000
  Fe  Fe147     1.0  0.53281  0.02624  0.24984  1.0000
  H   H1232     1.0  0.66857  0.14300  0.07827  1.0000
  H   H1233     1.0  0.96888  0.04571  0.04429  1.0000
  C   C1033     1.0  0.77053  0.16856  0.24361  1.0000
  C   C1034     1.0  0.74674  0.12125  0.18841  1.0000
  C   C1035     1.0  0.74705  0.10908  0.17064  1.0000
  C   C1036     1.0  0.73116  0.10831  0.15733  1.0000
  C   C1037     1.0  0.71461  0.11948  0.16167  1.0000
  C   C1038     1.0  0.71418  0.13145  0.17966  1.0000
  C   C1039     1.0  0.73015  0.13238  0.19282  1.0000
  H   H1234     1.0  0.75960  0.10037  0.16698  1.0000
  H   H1235     1.0  0.73175  0.09898  0.14350  1.0000
  H   H1236     1.0  0.70168  0.14025  0.18322  1.0000
  H   H1237     1.0  0.72964  0.14185  0.20650  1.0000
  C   C1040     1.0  0.91723  0.11635  0.40547  1.0000
  C   C1041     1.0  0.88686  0.16837  0.27726  1.0000
  C   C1042     1.0  0.88162  0.16464  0.25560  1.0000
  C   C1043     1.0  0.86891  0.15053  0.25149  1.0000
  C   C1044     1.0  0.86095  0.14001  0.26904  1.0000
  C   C1045     1.0  0.86613  0.14380  0.29069  1.0000
  C   C1046     1.0  0.87905  0.15773  0.29478  1.0000
  H   H1238     1.0  0.88744  0.17276  0.24186  1.0000
  H   H1239     1.0  0.86511  0.14795  0.23474  1.0000
  H   H1240     1.0  0.86006  0.13590  0.30447  1.0000
  H   H1241     1.0  0.88274  0.16039  0.31154  1.0000
  C   C1047     1.0  0.95588  0.16586  0.45040  1.0000
  C   C1048     1.0  0.96481  0.15124  0.43848  1.0000
  C   C1049     1.0  0.96409  0.15144  0.41526  1.0000
  C   C1050     1.0  0.95466  0.16635  0.40371  1.0000
  C   C1051     1.0  0.94560  0.18091  0.41564  1.0000
  C   C1052     1.0  0.94609  0.18057  0.43889  1.0000
  H   H1242     1.0  0.97256  0.13995  0.44711  1.0000
  H   H1243     1.0  0.97108  0.14008  0.40615  1.0000
  C   C1053     1.0  0.77107  0.02894  0.27261  1.0000
  H   H1244     1.0  0.93902  0.19185  0.44802  1.0000
  C   C1054     1.0  0.85775  0.08241  0.13532  1.0000
  C   C1055     1.0  0.84155  0.07600  0.12616  1.0000
  C   C1056     1.0  0.84277  0.06692  0.10574  1.0000
  C   C1057     1.0  0.86007  0.06455  0.09407  1.0000
  C   C1058     1.0  0.87624  0.07091  0.10328  1.0000
  C   C1059     1.0  0.87508  0.07969  0.12383  1.0000
  H   H1245     1.0  0.82807  0.07820  0.13465  1.0000
  H   H1246     1.0  0.83021  0.06193  0.09877  1.0000
  H   H1247     1.0  0.88972  0.06878  0.09472  1.0000
  H   H1248     1.0  0.88775  0.08422  0.13093  1.0000
  C   C1060     1.0  0.96197  0.09941  0.03117  1.0000
  C   C1061     1.0  0.97601  0.10744  0.04309  1.0000
  H   H1249     1.0  0.79896  0.04623  0.31065  1.0000
  H   H1250     1.0  0.90723  0.09294  0.46648  1.0000
  H   H1251     1.0  0.97292  0.11190  0.05979  1.0000
  C   C1062     1.0  0.91277  0.14550  0.42521  1.0000
  H   H1252     1.0  0.63255  0.08935  0.01244  1.0000
  C   C1063     1.0  0.81761  0.02264  0.25134  1.0000
  C   C1064     1.0  0.82757  0.02851  0.26920  1.0000
  C   C1065     1.0  0.72866  0.06683  0.21657  1.0000
  H   H1253     1.0  0.83156  0.04299  0.26972  1.0000
  H   H1254     1.0  0.78916  0.14351  0.27167  1.0000
  C   C1066     1.0  0.68418  0.11986  0.04536  1.0000
  H   H1255     1.0  0.60129  0.17457  0.21356  1.0000
  H   H1256     1.0  0.97412  0.18626  0.21725  1.0000
  H   H1257     1.0  0.87992  0.09856  0.07247  1.0000
  H   H1258     1.0  0.88698  0.13179  0.04018  1.0000
  C   C1067     1.0  0.91688  0.12567  0.42593  1.0000
  H   H1259     1.0  0.86117  0.14517  0.09066  1.0000
  H   H1260     1.0  0.95035  0.11401  0.44137  1.0000
  Fe  Fe148     1.0  0.50804  0.02719  0.29311  1.0000
  H   H1261     1.0  0.90675  0.17043  0.40488  1.0000
  H   H1262     1.0  0.94221  0.09649  0.46098  1.0000
  H   H1263     1.0  0.55458  0.02012  0.35026  1.0000
  C   C1068     1.0  0.68789  0.10317  0.03326  1.0000
  C   C1069     1.0  0.70811  0.11479  0.07291  1.0000
  H   H1264     1.0  0.69225  0.14978  0.07137  1.0000
  H   H1265     1.0  0.92009  0.10130  0.40470  1.0000
  H   H1266     1.0  0.71210  0.10016  0.06797  1.0000
  H   H1267     1.0  0.71154  0.11552  0.09071  1.0000
  H   H1268     1.0  0.71736  0.12447  0.06332  1.0000
  N   N68       1.0  0.92035  0.11477  0.44677  1.0000
  H   H1269     1.0  0.89127  0.10838  0.45125  1.0000
  C   C1070     1.0  0.89509  0.12503  0.09589  1.0000
  H   H1270     1.0  0.92314  0.12087  0.07984  1.0000
  N   N69       1.0  0.67043  0.07663  0.19973  1.0000
  C   C1071     1.0  0.66037  0.05927  0.19569  1.0000
  C   C1072     1.0  0.65986  0.08683  0.21762  1.0000
  C   C1073     1.0  0.66978  0.08854  0.17923  1.0000
  C   C1074     1.0  0.69026  0.07291  0.20584  1.0000
  C   C1075     1.0  0.69901  0.05444  0.20697  1.0000
  C   C1076     1.0  0.70162  0.08811  0.21041  1.0000
  C   C1077     1.0  0.71795  0.05156  0.21222  1.0000
  H   H1271     1.0  0.00265  0.19708  0.33223  1.0000
  H   H1272     1.0  0.76614  0.03231  0.25614  1.0000
  H   H1273     1.0  0.65987  0.04980  0.21065  1.0000
  H   H1274     1.0  0.64546  0.06265  0.19130  1.0000
  H   H1275     1.0  0.66690  0.05141  0.18154  1.0000
  H   H1276     1.0  0.66062  0.07871  0.23360  1.0000
  H   H1277     1.0  0.64471  0.08928  0.21378  1.0000
  H   H1278     1.0  0.66520  0.10102  0.22014  1.0000
  H   H1279     1.0  0.67850  0.08202  0.16561  1.0000
  H   H1280     1.0  0.65518  0.09080  0.17340  1.0000
  H   H1281     1.0  0.67505  0.10279  0.18157  1.0000
  H   H1282     1.0  0.69160  0.04199  0.20365  1.0000
  H   H1283     1.0  0.92341  0.11635  0.15006  1.0000
  H   H1284     1.0  0.72443  0.03741  0.21273  1.0000
  H   H1285     1.0  0.82851  0.16187  0.25418  1.0000
  H   H1286     1.0  0.67876  0.10592  0.09942  1.0000
  H   H1287     1.0  0.90414  0.11604  0.05215  1.0000
  H   H1288     1.0  0.91492  0.11900  0.37005  1.0000
  H   H1289     1.0  0.88846  0.04103  0.16763  1.0000
  H   H1290     1.0  0.92332  0.11811  0.48183  1.0000
  C   C1078     1.0  0.67646  0.13589  0.03351  1.0000
  N   N70       1.0  0.88393  0.12805  0.07575  1.0000
  H   H1291     1.0  0.52095  0.01648  0.20700  1.0000
  C   C1079     1.0  0.92044  0.12669  0.46652  1.0000
  C   C1080     1.0  0.83435  0.04270  0.17086  1.0000
  S   S299      1.0  0.88831  0.08606  0.02789  1.0000
  H   H1292     1.0  0.93950  0.09344  0.43233  1.0000
  C   C1081     1.0  0.93735  0.20216  0.22414  1.0000
  C   C1082     1.0  0.78239  0.04139  0.28262  1.0000
  H   H1293     1.0  0.93162  0.13709  0.46496  1.0000
  H   H1294     1.0  0.69353  0.09036  0.04117  1.0000
  H   H1295     1.0  0.00488  0.19258  0.20050  1.0000
  C   C1083     1.0  0.89567  0.12937  0.05506  1.0000
  C   C1084     1.0  0.82071  0.17367  0.26154  1.0000
  H   H1296     1.0  0.53391  0.02496  0.38348  1.0000
  H   H1297     1.0  0.90555  0.09047  0.43746  1.0000
  N   N71       1.0  0.98853  0.03716  0.01797  1.0000
  H   H1298     1.0  0.69609  0.10257  0.20947  1.0000
  C   C1085     1.0  0.79216  0.19277  0.26865  1.0000
  H   H1299     1.0  0.78621  0.05431  0.27395  1.0000
  C   C1086     1.0  0.63084  0.10415  0.01621  1.0000
  H   H1300     1.0  0.77736  0.19639  0.26714  1.0000
  C   C1087     1.0  0.57855  0.19307  0.22549  1.0000
  H   H1301     1.0  0.79765  0.17903  0.21434  1.0000
  C   C1088     1.0  0.78558  0.01966  0.31404  1.0000
  C   C1089     1.0  0.95287  0.19674  0.25864  1.0000
  C   C1090     1.0  0.90545  0.10107  0.45059  1.0000
  H   H1302     1.0  0.90715  0.03828  0.13363  1.0000
  H   H1303     1.0  0.74339  0.06461  0.22036  1.0000
  H   H1304     1.0  0.90664  0.13435  0.46954  1.0000
  C   C1091     1.0  0.91495  0.12160  0.09517  1.0000
  H   H1305     1.0  0.56203  0.00922  0.38575  1.0000
  C   C1092     1.0  0.72048  0.08504  0.21580  1.0000
  H   H1306     1.0  0.82447  0.04340  0.18544  1.0000
  H   H1307     1.0  0.96119  0.20293  0.27155  1.0000
  Fe  Fe149     1.0  0.91910  0.07767  0.02814  1.0000
  H   H1308     1.0  0.83941  0.02049  0.30070  1.0000
  N   N72       1.0  0.68799  0.11999  0.06927  1.0000
  C   C1093     1.0  0.68375  0.13861  0.07937  1.0000
  H   H1309     1.0  0.99320  0.04454  0.05147  1.0000
  C   C1094     1.0  0.93886  0.10425  0.44521  1.0000
  H   H1310     1.0  0.86489  0.05267  0.19061  1.0000
  H   H1311     1.0  0.98385  0.06365  0.03441  1.0000
  H   H1312     1.0  0.68689  0.13822  0.09731  1.0000
  C   C1095     1.0  0.79344  0.14431  0.25385  1.0000
  C   C1096     1.0  0.79897  0.16450  0.22174  1.0000
  H   H1313     1.0  0.99042  0.18930  0.28047  1.0000
  H   H1314     1.0  0.80822  0.13863  0.25240  1.0000
  H   H1315     1.0  0.65079  0.20081  0.17479  1.0000
  H   H1316     1.0  0.52466  0.03965  0.17716  1.0000
  C   C1097     1.0  0.87213  0.14583  0.07722  1.0000
  H   H1317     1.0  0.90835  0.15350  0.36988  1.0000
  H   H1318     1.0  0.93815  0.19234  0.40693  1.0000
  H   H1319     1.0  0.91250  0.15392  0.43977  1.0000
  H   H1320     1.0  0.85094  0.03893  0.20935  1.0000
  H   H1321     1.0  0.51302  0.02627  0.36819  1.0000
  H   H1322     1.0  0.84557  0.18268  0.27672  1.0000
  H   H1323     1.0  0.94281  0.18807  0.21869  1.0000
  C   C1098     1.0  0.90938  0.15525  0.40519  1.0000
  H   H1324     1.0  0.87305  0.02905  0.19930  1.0000
  Fe  Fe150     1.0  0.96484  0.14085  0.50165  1.0000
  C   C1099     1.0  0.67635  0.10607  0.08133  1.0000
  C   C1100     1.0  0.91026  0.14573  0.38541  1.0000
  H   H1325     1.0  0.78497  0.13435  0.24499  1.0000
  H   H1326     1.0  0.82620  0.03797  0.15693  1.0000
  C   C1101     1.0  0.59739  0.18796  0.22104  1.0000
  H   H1327     1.0  0.90462  0.05179  0.49620  1.0000
  H   H1328     1.0  0.67254  0.14903  0.04133  1.0000
  C   C1102     1.0  0.91411  0.12631  0.38554  1.0000
  C   C1103     1.0  0.89304  0.03322  0.13443  1.0000
  H   H1329     1.0  0.95933  0.01631  0.03399  1.0000
  H   H1330     1.0  0.67944  0.09144  0.07583  1.0000
  C   C1104     1.0  0.76678  0.01188  0.28330  1.0000
  C   C1105     1.0  0.80115  0.17683  0.25833  1.0000
  H   H1331     1.0  0.93939  0.19257  0.26667  1.0000
  H   H1332     1.0  0.76760  0.18277  0.23586  1.0000
  H   H1333     1.0  0.86445  0.14906  0.06171  1.0000
  H   H1334     1.0  0.53392  0.02364  0.33454  1.0000
  N   N73       1.0  0.79106  0.16389  0.24469  1.0000
  C   C1106     1.0  0.50942  0.00995  0.19847  1.0000
  C   C1107     1.0  0.88602  0.12498  0.11713  1.0000
  C   C1108     1.0  0.78959  0.03679  0.30330  1.0000
  N   N74       1.0  0.85112  0.03018  0.17544  1.0000
  C   C1109     1.0  0.86052  0.03802  0.19443  1.0000
  C   C1110     1.0  0.87149  0.11212  0.07375  1.0000
  H   H1335     1.0  0.79167  0.15496  0.21089  1.0000
  H   H1336     1.0  0.56266  0.07221  0.02112  1.0000
  H   H1337     1.0  0.88881  0.12167  0.15236  1.0000
  H   H1338     1.0  0.56786  0.18340  0.22179  1.0000
  H   H1339     1.0  0.87089  0.12656  0.11906  1.0000
  H   H1340     1.0  0.76357  0.16788  0.26031  1.0000
  S   S300      1.0  0.53953  0.02392  0.28619  1.0000
  C   C1111     1.0  0.88204  0.03474  0.15394  1.0000
  H   H1341     1.0  0.86162  0.11055  0.08822  1.0000
  H   H1342     1.0  0.76348  0.15839  0.23331  1.0000
  H   H1343     1.0  0.81413  0.15995  0.22090  1.0000
  H   H1344     1.0  0.83847  0.05731  0.16672  1.0000
  C   C1112     1.0  0.91563  0.11891  0.13511  1.0000
  H   H1345     1.0  0.72891  0.09689  0.21907  1.0000
  C   C1113     1.0  0.00117  0.19818  0.27368  1.0000
  H   H1346     1.0  0.98960  0.20252  0.40486  1.0000
  H   H1347     1.0  0.50802  0.04162  0.15553  1.0000
  C   C1114     1.0  0.92497  0.11863  0.11454  1.0000
  C   C1115     1.0  0.98339  0.04819  0.03789  1.0000
  C   C1116     1.0  0.89619  0.12208  0.13639  1.0000
  C   C1117     1.0  0.82143  0.20098  0.28435  1.0000
  S   S301      1.0  0.92855  0.08211  0.50399  1.0000
  C   C1118     1.0  0.98517  0.20463  0.43996  1.0000
  H   H1348     1.0  0.86284  0.11367  0.05876  1.0000
  C   C1119     1.0  0.99412  0.10957  0.03357  1.0000
  C   C1120     1.0  0.62112  0.20727  0.17234  1.0000
  H   H1349     1.0  0.62582  0.19640  0.22168  1.0000
  H   H1350     1.0  0.88090  0.15798  0.08028  1.0000
  C   C1121     1.0  0.86738  0.01996  0.11628  1.0000
  C   C1122     1.0  0.84480  0.01126  0.18250  1.0000
  H   H1351     1.0  0.90546  0.14108  0.05544  1.0000
  C   C1123     1.0  0.83198  0.01570  0.28678  1.0000
  C   C1124     1.0  0.61121  0.20032  0.22563  1.0000
  C   C1125     1.0  0.88571  0.02589  0.11565  1.0000
  C   C1126     1.0  0.51443  0.03165  0.16801  1.0000
  H   H1352     1.0  0.83627  0.01181  0.19829  1.0000
  H   H1353     1.0  0.79225  0.01674  0.32960  1.0000
  H   H1354     1.0  0.99572  0.19359  0.44387  1.0000
  C   C1127     1.0  0.52333  0.01615  0.37635  1.0000
  H   H1355     1.0  0.89398  0.02539  0.10030  1.0000
  C   C1128     1.0  0.98904  0.01673  0.02390  1.0000
  C   C1129     1.0  0.67285  0.13513  0.01100  1.0000
  H   H1356     1.0  0.84212  0.01669  0.13519  1.0000
  C   C1130     1.0  0.68400  0.10253  0.01081  1.0000
  C   C1131     1.0  0.54287  0.01269  0.34332  1.0000
  C   C1132     1.0  0.97891  0.20040  0.21807  1.0000
  C   C1133     1.0  0.85633  0.02123  0.13572  1.0000
  C   C1134     1.0  0.91509  0.04657  0.50770  1.0000
  C   C1135     1.0  0.80225  0.20460  0.28146  1.0000
  H   H1357     1.0  0.86155  0.01495  0.10132  1.0000
  C   C1136     1.0  0.99652  0.20385  0.20836  1.0000
  H   H1358     1.0  0.52305  0.02042  0.15942  1.0000
  H   H1359     1.0  0.92309  0.19984  0.23162  1.0000
  H   H1360     1.0  0.97678  0.20860  0.47389  1.0000
  H   H1361     1.0  0.00490  0.11563  0.04291  1.0000
  H   H1362     1.0  0.51576  0.00884  0.39023  1.0000
  Fe  Fe151     1.0  0.88816  0.07338  0.99432  1.0000
  C   C1137     1.0  0.70623  0.17175  0.87154  1.0000
  S   S302      1.0  0.87206  0.09132  0.96870  1.0000
  C   C1138     1.0  0.88004  0.05381  0.57663  1.0000
  H   H1363     1.0  0.70700  0.14733  0.89451  1.0000
  H   H1364     1.0  0.90111  0.07628  0.87121  1.0000
  H   H1365     1.0  0.73961  0.13746  0.88641  1.0000
  C   C1139     1.0  0.62408  0.20234  0.87508  1.0000
  Fe  Fe152     1.0  0.92060  0.19420  0.72019  1.0000
  S   S303      1.0  0.95001  0.18236  0.71274  1.0000
  S   S304      1.0  0.89655  0.17401  0.72551  1.0000
  C   C1140     1.0  0.98413  0.09594  0.00006  1.0000
  H   H1366     1.0  0.56755  0.07676  0.90108  1.0000
  H   H1367     1.0  0.90399  0.01877  0.51096  1.0000
  C   C1141     1.0  0.92884  0.05855  0.51431  1.0000
  C   C1142     1.0  0.89302  0.11453  0.90392  1.0000
  Fe  Fe153     1.0  0.81968  0.07412  0.80225  1.0000
  S   S305      1.0  0.80996  0.10443  0.79558  1.0000
  S   S306      1.0  0.82363  0.05288  0.77467  1.0000
  Fe  Fe154     1.0  0.82738  0.08135  0.85057  1.0000
  S   S307      1.0  0.81752  0.11197  0.84769  1.0000
  S   S308      1.0  0.84213  0.06366  0.87754  1.0000
  Fe  Fe155     1.0  0.79367  0.10168  0.82819  1.0000
  S   S309      1.0  0.76315  0.11380  0.82668  1.0000
  Fe  Fe156     1.0  0.83433  0.11262  0.81527  1.0000
  S   S310      1.0  0.85551  0.13592  0.81039  1.0000
  S   S311      1.0  0.80227  0.07088  0.83352  1.0000
  S   S312      1.0  0.84527  0.08257  0.81944  1.0000
  Fe  Fe157     1.0  0.96360  0.12739  0.55038  1.0000
  S   S313      1.0  0.98662  0.13920  0.52828  1.0000
  S   S314      1.0  0.95430  0.13097  0.58655  1.0000
  H   H1368     1.0  0.58932  0.10301  0.96847  1.0000
  H   H1369     1.0  0.91330  0.01828  0.58213  1.0000
  C   C1143     1.0  0.89113  0.06924  0.57940  1.0000
  S   S315      1.0  0.97080  0.09722  0.54148  1.0000
  H   H1370     1.0  0.65923  0.16581  0.87147  1.0000
  Fe  Fe158     1.0  0.65853  0.11758  0.89320  1.0000
  S   S316      1.0  0.63749  0.09786  0.90853  1.0000
  S   S317      1.0  0.68919  0.10624  0.88890  1.0000
  Fe  Fe159     1.0  0.63078  0.15176  0.89710  1.0000
  S   S318      1.0  0.60820  0.13427  0.91314  1.0000
  S   S319      1.0  0.62768  0.18418  0.89577  1.0000
  Fe  Fe160     1.0  0.63097  0.12028  0.93399  1.0000
  S   S320      1.0  0.62868  0.10960  0.97068  1.0000
  Fe  Fe161     1.0  0.61599  0.11295  0.88678  1.0000
  S   S321      1.0  0.59084  0.10188  0.86808  1.0000
  S   S322      1.0  0.65303  0.13901  0.91961  1.0000
  S   S323      1.0  0.63756  0.13140  0.86970  1.0000
  Fe  Fe162     1.0  0.53237  0.02205  0.79668  1.0000
  S   S324      1.0  0.53448  0.02633  0.75950  1.0000
  S   S325      1.0  0.55431  0.03218  0.82087  1.0000
  C   C1144     1.0  0.58129  0.08228  0.85464  1.0000
  C   C1145     1.0  0.58921  0.06382  0.85622  1.0000
  C   C1146     1.0  0.58076  0.04884  0.84587  1.0000
  C   C1147     1.0  0.56437  0.05193  0.83349  1.0000
  C   C1148     1.0  0.55648  0.07041  0.83190  1.0000
  C   C1149     1.0  0.56478  0.08535  0.84249  1.0000
  H   H1371     1.0  0.60184  0.06104  0.86544  1.0000
  H   H1372     1.0  0.58709  0.03470  0.84733  1.0000
  H   H1373     1.0  0.54390  0.07318  0.82259  1.0000
  H   H1374     1.0  0.55839  0.09946  0.84110  1.0000
  H   H1375     1.0  0.69205  0.19009  0.90674  1.0000
  H   H1376     1.0  0.95963  0.04001  0.00776  1.0000
  H   H1377     1.0  0.67695  0.15956  0.85080  1.0000
  S   S326      1.0  0.98081  0.19922  0.76041  1.0000
  H   H1378     1.0  0.94899  0.07039  0.57493  1.0000
  C   C1150     1.0  0.62495  0.19882  0.85243  1.0000
  H   H1379     1.0  0.71213  0.19329  0.84573  1.0000
  H   H1380     1.0  0.98696  0.19039  0.68912  1.0000
  H   H1381     1.0  0.62758  0.18454  0.84695  1.0000
  H   H1382     1.0  0.59817  0.08420  0.91045  1.0000
  C   C1151     1.0  0.74258  0.11079  0.84374  1.0000
  C   C1152     1.0  0.72545  0.11984  0.83740  1.0000
  C   C1153     1.0  0.70889  0.11842  0.85073  1.0000
  C   C1154     1.0  0.70926  0.10792  0.87066  1.0000
  C   C1155     1.0  0.72632  0.09859  0.87677  1.0000
  C   C1156     1.0  0.74286  0.09999  0.86344  1.0000
  H   H1383     1.0  0.72504  0.12828  0.82223  1.0000
  H   H1384     1.0  0.69593  0.12561  0.84570  1.0000
  H   H1385     1.0  0.72679  0.09039  0.89211  1.0000
  H   H1386     1.0  0.75587  0.09295  0.86861  1.0000
  C   C1157     1.0  0.92797  0.02111  0.53121  1.0000
  C   C1158     1.0  0.97420  0.04148  0.00105  1.0000
  H   H1387     1.0  0.59990  0.06787  0.93361  1.0000
  C   C1159     1.0  0.96193  0.17997  0.63323  1.0000
  C   C1160     1.0  0.95065  0.16505  0.63958  1.0000
  C   C1161     1.0  0.94845  0.15024  0.62503  1.0000
  C   C1162     1.0  0.95733  0.15024  0.60393  1.0000
  C   C1163     1.0  0.96852  0.16521  0.59752  1.0000
  C   C1164     1.0  0.97088  0.17993  0.61216  1.0000
  H   H1388     1.0  0.94368  0.16489  0.65572  1.0000
  H   H1389     1.0  0.93977  0.13874  0.63018  1.0000
  H   H1390     1.0  0.97546  0.16538  0.58136  1.0000
  H   H1391     1.0  0.97963  0.19140  0.60710  1.0000
  C   C1165     1.0  0.86702  0.14596  0.78649  1.0000
  C   C1166     1.0  0.86290  0.14119  0.76500  1.0000
  C   C1167     1.0  0.87214  0.14986  0.74665  1.0000
  C   C1168     1.0  0.88574  0.16327  0.74945  1.0000
  C   C1169     1.0  0.89001  0.16788  0.77097  1.0000
  C   C1170     1.0  0.88065  0.15933  0.78932  1.0000
  H   H1392     1.0  0.85246  0.13100  0.76247  1.0000
  H   H1393     1.0  0.86868  0.14619  0.73011  1.0000
  H   H1394     1.0  0.90034  0.17819  0.77344  1.0000
  H   H1395     1.0  0.88393  0.16323  0.80582  1.0000
  C   C1171     1.0  0.86306  0.08296  0.94404  1.0000
  C   C1172     1.0  0.85154  0.09524  0.93108  1.0000
  C   C1173     1.0  0.84467  0.08944  0.91095  1.0000
  C   C1174     1.0  0.84962  0.07141  0.90331  1.0000
  C   C1175     1.0  0.86100  0.05907  0.91636  1.0000
  C   C1176     1.0  0.86763  0.06476  0.93667  1.0000
  H   H1396     1.0  0.84784  0.10929  0.93673  1.0000
  H   H1397     1.0  0.83551  0.09892  0.90143  1.0000
  H   H1398     1.0  0.86480  0.04504  0.91072  1.0000
  H   H1399     1.0  0.87649  0.05519  0.94649  1.0000
  S   S327      1.0  0.91950  0.06758  0.99343  1.0000
  H   H1400     1.0  0.88668  0.12864  0.90477  1.0000
  C   C1177     1.0  0.99842  0.16188  0.71446  1.0000
  H   H1401     1.0  0.87955  0.02355  0.57511  1.0000
  C   C1178     1.0  0.94178  0.03304  0.53771  1.0000
  C   C1179     1.0  0.94230  0.05166  0.52920  1.0000
  H   H1402     1.0  0.95209  0.02789  0.54944  1.0000
  H   H1403     1.0  0.95308  0.06067  0.53417  1.0000
  C   C1180     1.0  0.81545  0.02989  0.77132  1.0000
  C   C1181     1.0  0.56881  0.10548  0.92785  1.0000
  C   C1182     1.0  0.62640  0.13667  0.00409  1.0000
  C   C1183     1.0  0.75920  0.01434  0.74910  1.0000
  C   C1184     1.0  0.67448  0.16210  0.86873  1.0000
  C   C1185     1.0  0.90786  0.08802  0.92377  1.0000
  H   H1404     1.0  0.91484  0.08635  0.61970  1.0000
  H   H1405     1.0  0.83148  0.02607  0.74083  1.0000
  H   H1406     1.0  0.92617  0.08692  0.55009  1.0000
  H   H1407     1.0  0.88182  0.10842  0.82911  1.0000
  H   H1408     1.0  0.86521  0.05604  0.57343  1.0000
  C   C1186     1.0  0.57074  0.08181  0.95745  1.0000
  C   C1187     1.0  0.90812  0.07749  0.90472  1.0000
  H   H1409     1.0  0.93304  0.04446  0.58692  1.0000
  H   H1410     1.0  0.87496  0.02710  0.82195  1.0000
  C   C1188     1.0  0.55556  0.06455  0.98837  1.0000
  H   H1411     1.0  0.91285  0.08165  0.93914  1.0000
  C   C1189     1.0  0.82181  0.01976  0.75268  1.0000
  C   C1190     1.0  0.73352  0.14994  0.87805  1.0000
  N   N75       1.0  0.68618  0.17721  0.87615  1.0000
  H   H1412     1.0  0.98718  0.09160  0.98330  1.0000
  C   C1191     1.0  0.91834  0.04787  0.58437  1.0000
  C   C1192     1.0  0.57976  0.09218  0.97338  1.0000
  N   N76       1.0  0.57447  0.08558  0.93356  1.0000
  H   H1413     1.0  0.00449  0.16302  0.67169  1.0000
  H   H1414     1.0  0.97617  0.03184  0.98690  1.0000
  H   H1415     1.0  0.54880  0.07554  0.92121  1.0000
  H   H1416     1.0  0.60350  0.09238  0.93698  1.0000
  C   C1193     1.0  0.89316  0.10429  0.88413  1.0000
  H   H1417     1.0  0.67292  0.11779  0.98247  1.0000
  H   H1418     1.0  0.54618  0.05381  0.99430  1.0000
  C   C1194     1.0  0.73609  0.17503  0.85060  1.0000
  H   H1419     1.0  0.57203  0.18047  0.84627  1.0000
  H   H1420     1.0  0.90677  0.10091  0.56133  1.0000
  C   C1195     1.0  0.92121  0.09518  0.56462  1.0000
  H   H1421     1.0  0.99541  0.19978  0.71391  1.0000
  H   H1422     1.0  0.94429  0.06995  0.60459  1.0000
  C   C1196     1.0  0.89280  0.13153  0.85861  1.0000
  H   H1423     1.0  0.88878  0.14222  0.87114  1.0000
  H   H1424     1.0  0.90842  0.13018  0.85723  1.0000
  C   C1197     1.0  0.59485  0.08238  0.92846  1.0000
  H   H1425     1.0  0.88432  0.08316  0.57825  1.0000
  C   C1198     1.0  0.56430  0.07342  0.91890  1.0000
  H   H1426     1.0  0.56846  0.05822  0.92161  1.0000
  C   C1199     1.0  0.91497  0.09489  0.60399  1.0000
  H   H1427     1.0  0.93008  0.10759  0.56527  1.0000
  N   N77       1.0  0.75666  0.06632  0.78469  1.0000
  C   C1200     1.0  0.73845  0.07695  0.78152  1.0000
  C   C1201     1.0  0.75843  0.06141  0.80856  1.0000
  C   C1202     1.0  0.77184  0.07919  0.77827  1.0000
  C   C1203     1.0  0.75742  0.04885  0.77182  1.0000
  C   C1204     1.0  0.74444  0.03465  0.77672  1.0000
  C   C1205     1.0  0.77105  0.04518  0.75457  1.0000
  H   H1428     1.0  0.62457  0.14728  0.99104  1.0000
  H   H1429     1.0  0.82849  0.03768  0.84884  1.0000
  H   H1430     1.0  0.79727  0.02934  0.80040  1.0000
  H   H1431     1.0  0.72629  0.06882  0.78753  1.0000
  H   H1432     1.0  0.73765  0.09035  0.79080  1.0000
  H   H1433     1.0  0.73643  0.08068  0.76374  1.0000
  H   H1434     1.0  0.74623  0.05386  0.81557  1.0000
  H   H1435     1.0  0.75924  0.07423  0.81861  1.0000
  H   H1436     1.0  0.77131  0.05229  0.81145  1.0000
  H   H1437     1.0  0.77102  0.08412  0.76070  1.0000
  H   H1438     1.0  0.77094  0.09216  0.78821  1.0000
  H   H1439     1.0  0.78600  0.07226  0.78089  1.0000
  C   C1206     1.0  0.55396  0.19660  0.82408  1.0000
  H   H1440     1.0  0.78177  0.05489  0.74980  1.0000
  H   H1441     1.0  0.74435  0.18220  0.83786  1.0000
  H   H1442     1.0  0.89946  0.11430  0.93852  1.0000
  C   C1207     1.0  0.88805  0.03551  0.57764  1.0000
  C   C1208     1.0  0.71483  0.15584  0.88268  1.0000
  H   H1443     1.0  0.86102  0.04379  0.83792  1.0000
  S   S328      1.0  0.94163  0.13103  0.52457  1.0000
  H   H1444     1.0  0.99230  0.16794  0.73004  1.0000
  C   C1209     1.0  0.55844  0.06786  0.96563  1.0000
  H   H1445     1.0  0.78269  0.02541  0.73084  1.0000
  C   C1210     1.0  0.77178  0.02818  0.74341  1.0000
  C   C1211     1.0  0.80277  0.02160  0.78636  1.0000
  H   H1446     1.0  0.66650  0.14734  0.00240  1.0000
  C   C1212     1.0  0.99987  0.19294  0.69820  1.0000
  C   C1213     1.0  0.94239  0.07836  0.58895  1.0000
  N   N78       1.0  0.84747  0.01795  0.83195  1.0000
  C   C1214     1.0  0.90034  0.10649  0.92336  1.0000
  C   C1215     1.0  0.74546  0.01761  0.76561  1.0000
  C   C1216     1.0  0.91472  0.02785  0.51602  1.0000
  H   H1447     1.0  0.55095  0.05927  0.95482  1.0000
  H   H1448     1.0  0.73361  0.03649  0.78948  1.0000
  C   C1217     1.0  0.86038  0.03298  0.82502  1.0000
  H   H1449     1.0  0.57128  0.10881  0.90990  1.0000
  Fe  Fe163     1.0  0.95061  0.10182  0.51419  1.0000
  C   C1218     1.0  0.67646  0.11847  0.99972  1.0000
  H   H1450     1.0  0.90049  0.10090  0.60148  1.0000
  N   N79       1.0  0.92222  0.08338  0.58521  1.0000
  C   C1219     1.0  0.68267  0.17963  0.90024  1.0000
  C   C1220     1.0  0.74407  0.15938  0.86189  1.0000
  H   H1451     1.0  0.85554  0.04077  0.80980  1.0000
  N   N80       1.0  0.88476  0.11296  0.86395  1.0000
  H   H1452     1.0  0.92381  0.10719  0.60634  1.0000
  H   H1453     1.0  0.85745  0.12363  0.85378  1.0000
  H   H1454     1.0  0.88076  0.08766  0.84610  1.0000
  H   H1455     1.0  0.85744  0.10216  0.87001  1.0000
  H   H1456     1.0  0.66786  0.18461  0.90407  1.0000
  H   H1457     1.0  0.68022  0.19391  0.84649  1.0000
  C   C1221     1.0  0.90086  0.08539  0.88514  1.0000
  H   H1458     1.0  0.75832  0.15426  0.85776  1.0000
  H   H1459     1.0  0.81782  0.01689  0.84075  1.0000
  C   C1222     1.0  0.88785  0.10125  0.84411  1.0000
  C   C1223     1.0  0.82855  0.02711  0.83566  1.0000
  C   C1224     1.0  0.56481  0.07489  0.00352  1.0000
  C   C1225     1.0  0.86422  0.11588  0.86786  1.0000
  H   H1460     1.0  0.90309  0.09835  0.84038  1.0000
  H   H1461     1.0  0.55364  0.10855  0.93183  1.0000
  C   C1226     1.0  0.62865  0.11759  0.99870  1.0000
  H   H1462     1.0  0.66478  0.19914  0.86934  1.0000
  H   H1463     1.0  0.86059  0.12416  0.88281  1.0000
  H   H1464     1.0  0.57686  0.11565  0.93686  1.0000
  H   H1465     1.0  0.88763  0.13772  0.84262  1.0000
  C   C1227     1.0  0.91068  0.06676  0.58317  1.0000
  H   H1466     1.0  0.68482  0.16622  0.90997  1.0000
  C   C1228     1.0  0.71747  0.18124  0.85529  1.0000
  H   H1467     1.0  0.67755  0.14842  0.87768  1.0000
  H   H1468     1.0  0.91353  0.06295  0.90536  1.0000
  S   S329      1.0  0.96575  0.19860  0.65122  1.0000
  H   H1469     1.0  0.95067  0.09116  0.59035  1.0000
  C   C1229     1.0  0.90710  0.03256  0.58166  1.0000
  H   H1470     1.0  0.95532  0.08783  0.00015  1.0000
  C   C1230     1.0  0.67972  0.19513  0.86478  1.0000
  H   H1471     1.0  0.85590  0.02075  0.86561  1.0000
  H   H1472     1.0  0.54853  0.18418  0.81707  1.0000
  Fe  Fe164     1.0  0.95978  0.20576  0.73319  1.0000
  H   H1473     1.0  0.58426  0.09666  0.00776  1.0000
  H   H1474     1.0  0.82375  0.03465  0.82037  1.0000
  H   H1475     1.0  0.97469  0.05622  0.99438  1.0000
  H   H1476     1.0  0.86351  0.01587  0.78869  1.0000
  Fe  Fe165     1.0  0.99217  0.10912  0.51753  1.0000
  S   S330      1.0  0.93136  0.01539  0.99579  1.0000
  C   C1231     1.0  0.57690  0.08867  0.99603  1.0000
  C   C1232     1.0  0.85406  0.00964  0.85330  1.0000
  H   H1477     1.0  0.98622  0.15876  0.70434  1.0000
  C   C1233     1.0  0.00350  0.20748  0.76490  1.0000
  Fe  Fe166     1.0  0.91287  0.03946  0.00940  1.0000
  H   H1478     1.0  0.68653  0.08953  0.00199  1.0000
  Fe  Fe167     1.0  0.95046  0.20351  0.68439  1.0000
  C   C1234     1.0  0.56718  0.19444  0.84052  1.0000
  S   S331      1.0  0.88145  0.04459  0.00795  1.0000
  H   H1479     1.0  0.68819  0.20709  0.86936  1.0000
  H   H1480     1.0  0.00591  0.05925  0.00460  1.0000
  H   H1481     1.0  0.00592  0.14813  0.71843  1.0000
  H   H1482     1.0  0.58475  0.20859  0.86217  1.0000
  C   C1235     1.0  0.96608  0.09376  0.00958  1.0000
  S   S332      1.0  0.92863  0.22736  0.30733  1.0000
  S   S333      1.0  0.98339  0.22783  0.29680  1.0000
  Fe  Fe168     1.0  0.92441  0.22890  0.34422  1.0000
  S   S334      1.0  0.90929  0.25295  0.36361  1.0000
  C   C1236     1.0  0.54378  0.39997  0.50782  1.0000
  Fe  Fe169     1.0  0.59049  0.32347  0.19134  1.0000
  S   S335      1.0  0.62189  0.32074  0.19385  1.0000
  S   S336      1.0  0.57391  0.33322  0.16121  1.0000
  Fe  Fe170     1.0  0.58334  0.30683  0.23817  1.0000
  S   S337      1.0  0.61451  0.30269  0.24366  1.0000
  S   S338      1.0  0.56438  0.29720  0.26719  1.0000
  Fe  Fe171     1.0  0.61724  0.33182  0.22844  1.0000
  S   S339      1.0  0.62987  0.35757  0.24381  1.0000
  Fe  Fe172     1.0  0.61649  0.29179  0.20888  1.0000
  S   S340      1.0  0.63461  0.26546  0.19912  1.0000
  S   S341      1.0  0.58583  0.33640  0.22470  1.0000
  S   S342      1.0  0.58536  0.29405  0.20459  1.0000
  C   C1237     1.0  0.50837  0.30649  0.25548  1.0000
  C   C1238     1.0  0.93158  0.25546  0.44301  1.0000
  N   N81       1.0  0.65993  0.38045  0.35314  1.0000
  H   H1483     1.0  0.96454  0.34742  0.35153  1.0000
  C   C1239     1.0  0.65423  0.39976  0.36053  1.0000
  Fe  Fe173     1.0  0.58402  0.38223  0.04352  1.0000
  C   C1240     1.0  0.58623  0.29042  0.12311  1.0000
  S   S343      1.0  0.60354  0.36882  0.06936  1.0000
  S   S344      1.0  0.55937  0.40150  0.05316  1.0000
  H   H1484     1.0  0.75942  0.38437  0.37769  1.0000
  S   S345      1.0  0.56888  0.36806  0.01681  1.0000
  Fe  Fe174     1.0  0.91118  0.36535  0.39716  1.0000
  S   S346      1.0  0.90472  0.39228  0.37712  1.0000
  S   S347      1.0  0.92524  0.34002  0.37871  1.0000
  Fe  Fe175     1.0  0.90472  0.38540  0.44209  1.0000
  S   S348      1.0  0.90234  0.37784  0.47973  1.0000
  Fe  Fe176     1.0  0.88078  0.39780  0.40176  1.0000
  C   C1241     1.0  0.95618  0.23214  0.42971  1.0000
  H   H1485     1.0  0.64770  0.23178  0.13129  1.0000
  S   S349      1.0  0.88573  0.36986  0.42017  1.0000
  S   S350      1.0  0.93035  0.37944  0.41990  1.0000
  H   H1486     1.0  0.58300  0.25585  0.11511  1.0000
  H   H1487     1.0  0.74903  0.38300  0.43907  1.0000
  H   H1488     1.0  0.95215  0.23233  0.46590  1.0000
  C   C1242     1.0  0.94693  0.38188  0.34546  1.0000
  H   H1489     1.0  0.00001  0.24932  0.22253  1.0000
  C   C1243     1.0  0.62032  0.22519  0.12104  1.0000
  C   C1244     1.0  0.83200  0.39591  0.36543  1.0000
  C   C1245     1.0  0.81565  0.39370  0.35334  1.0000
  H   H1490     1.0  0.84351  0.38540  0.36462  1.0000
  H   H1491     1.0  0.81482  0.38146  0.34326  1.0000
  C   C1246     1.0  0.53949  0.30003  0.27025  1.0000
  C   C1247     1.0  0.52812  0.30536  0.25250  1.0000
  H   H1492     1.0  0.60523  0.30503  0.15341  1.0000
  C   C1248     1.0  0.53086  0.29607  0.29101  1.0000
  H   H1493     1.0  0.53452  0.30838  0.23643  1.0000
  H   H1494     1.0  0.92028  0.26598  0.43785  1.0000
  H   H1495     1.0  0.53951  0.29191  0.30485  1.0000
  C   C1249     1.0  0.62889  0.24330  0.18850  1.0000
  H   H1496     1.0  0.59236  0.26942  0.25476  1.0000
  C   C1250     1.0  0.61053  0.23925  0.18346  1.0000
  C   C1251     1.0  0.74608  0.39654  0.42979  1.0000
  H   H1497     1.0  0.59927  0.24985  0.18570  1.0000
  C   C1252     1.0  0.58253  0.34408  0.13638  1.0000
  C   C1253     1.0  0.60172  0.34630  0.13209  1.0000
  C   C1254     1.0  0.60796  0.35397  0.11153  1.0000
  C   C1255     1.0  0.59508  0.35968  0.09520  1.0000
  C   C1256     1.0  0.57591  0.35767  0.09963  1.0000
  C   C1257     1.0  0.56970  0.34981  0.12006  1.0000
  H   H1498     1.0  0.61175  0.34198  0.14451  1.0000
  H   H1499     1.0  0.62282  0.35548  0.10825  1.0000
  H   H1500     1.0  0.56585  0.36196  0.08722  1.0000
  H   H1501     1.0  0.55484  0.34810  0.12319  1.0000
  C   C1258     1.0  0.65049  0.36307  0.25782  1.0000
  C   C1259     1.0  0.66628  0.35060  0.25917  1.0000
  C   C1260     1.0  0.68248  0.35596  0.26978  1.0000
  C   C1261     1.0  0.68308  0.37370  0.27949  1.0000
  C   C1262     1.0  0.66713  0.38601  0.27864  1.0000
  C   C1263     1.0  0.65107  0.38079  0.26765  1.0000
  H   H1502     1.0  0.66614  0.33697  0.25169  1.0000
  H   H1503     1.0  0.69472  0.34632  0.27027  1.0000
  H   H1504     1.0  0.61776  0.22716  0.23630  1.0000
  H   H1505     1.0  0.63896  0.39057  0.26672  1.0000
  H   H1506     1.0  0.75416  0.36882  0.40117  1.0000
  Fe  Fe177     1.0  0.54517  0.38929  0.02470  1.0000
  H   H1507     1.0  0.66630  0.35336  0.36919  1.0000
  C   C1264     1.0  0.64721  0.37309  0.33693  1.0000
  C   C1265     1.0  0.51112  0.29749  0.29407  1.0000
  H   H1508     1.0  0.65761  0.23222  0.18896  1.0000
  N   N82       1.0  0.94973  0.21048  0.24011  1.0000
  C   C1266     1.0  0.69055  0.40717  0.23571  1.0000
  C   C1267     1.0  0.91380  0.27726  0.36706  1.0000
  C   C1268     1.0  0.92964  0.28562  0.35758  1.0000
  C   C1269     1.0  0.93284  0.30475  0.36138  1.0000
  C   C1270     1.0  0.92031  0.31588  0.37468  1.0000
  C   C1271     1.0  0.90454  0.30747  0.38428  1.0000
  C   C1272     1.0  0.90136  0.28832  0.38051  1.0000
  H   H1509     1.0  0.93941  0.27737  0.34726  1.0000
  H   H1510     1.0  0.94509  0.31100  0.35383  1.0000
  H   H1511     1.0  0.89475  0.31573  0.39454  1.0000
  H   H1512     1.0  0.88907  0.28208  0.38800  1.0000
  C   C1273     1.0  0.97866  0.39241  0.34235  1.0000
  N   N83       1.0  0.58130  0.24283  0.24658  1.0000
  C   C1274     1.0  0.56785  0.25249  0.23124  1.0000
  C   C1275     1.0  0.57192  0.24091  0.26870  1.0000
  C   C1276     1.0  0.59722  0.25532  0.24866  1.0000
  C   C1277     1.0  0.67917  0.38121  0.34319  1.0000
  H   H1513     1.0  0.56396  0.26718  0.23628  1.0000
  H   H1514     1.0  0.93672  0.23844  0.23614  1.0000
  H   H1515     1.0  0.68560  0.36709  0.33920  1.0000
  H   H1516     1.0  0.56764  0.25499  0.27551  1.0000
  S   S351      1.0  0.51480  0.38181  0.02347  1.0000
  H   H1517     1.0  0.60755  0.24946  0.26074  1.0000
  H   H1518     1.0  0.60464  0.25781  0.23244  1.0000
  H   H1519     1.0  0.67906  0.38973  0.32748  1.0000
  C   C1278     1.0  0.98170  0.20967  0.41802  1.0000
  C   C1279     1.0  0.63952  0.21141  0.17713  1.0000
  H   H1520     1.0  0.55890  0.23296  0.26828  1.0000
  C   C1280     1.0  0.96810  0.21468  0.22937  1.0000
  C   C1281     1.0  0.57347  0.21070  0.23421  1.0000
  N   N84       1.0  0.60615  0.28473  0.12751  1.0000
  H   H1521     1.0  0.62632  0.39698  0.33599  1.0000
  C   C1282     1.0  0.96017  0.22674  0.45196  1.0000
  C   C1283     1.0  0.60669  0.22136  0.17553  1.0000
  H   H1522     1.0  0.98097  0.37314  0.38265  1.0000
  H   H1523     1.0  0.94545  0.38238  0.32726  1.0000
  H   H1524     1.0  0.93565  0.27139  0.40457  1.0000
  C   C1284     1.0  0.96658  0.37632  0.37652  1.0000
  C   C1285     1.0  0.97622  0.23252  0.23066  1.0000
  H   H1525     1.0  0.52636  0.36504  0.43222  1.0000
  H   H1526     1.0  0.57396  0.25324  0.21412  1.0000
  H   H1527     1.0  0.63991  0.26544  0.13469  1.0000
  H   H1528     1.0  0.98671  0.40490  0.37328  1.0000
  C   C1286     1.0  0.90548  0.38681  0.50675  1.0000
  S   S352      1.0  0.52293  0.39747  0.49357  1.0000
  H   H1529     1.0  0.97387  0.38600  0.30798  1.0000
  H   H1530     1.0  0.58260  0.28752  0.10585  1.0000
  C   C1287     1.0  0.59734  0.25146  0.11857  1.0000
  C   C1288     1.0  0.99384  0.23581  0.22084  1.0000
  C   C1289     1.0  0.97447  0.21317  0.45687  1.0000
  H   H1531     1.0  0.61629  0.29170  0.09458  1.0000
  H   H1532     1.0  0.68894  0.38756  0.35450  1.0000
  C   C1290     1.0  0.65136  0.35521  0.32748  1.0000
  H   H1533     1.0  0.93058  0.22830  0.39797  1.0000
  H   H1534     1.0  0.63331  0.29372  0.11550  1.0000
  H   H1535     1.0  0.52876  0.38552  0.44765  1.0000
  C   C1291     1.0  0.96742  0.22318  0.41293  1.0000
  C   C1292     1.0  0.00133  0.21707  0.27962  1.0000
  H   H1536     1.0  0.82922  0.21012  0.29433  1.0000
  H   H1537     1.0  0.55438  0.24534  0.23070  1.0000
  S   S353      1.0  0.95410  0.21875  0.35107  1.0000
  C   C1293     1.0  0.60979  0.29006  0.15042  1.0000
  H   H1538     1.0  0.97129  0.35782  0.32562  1.0000
  H   H1539     1.0  0.96953  0.24403  0.23969  1.0000
  H   H1540     1.0  0.92543  0.22375  0.25672  1.0000
  Fe  Fe178     1.0  0.95778  0.21532  0.31431  1.0000
  H   H1541     1.0  0.58144  0.23346  0.28066  1.0000
  H   H1542     1.0  0.64361  0.33476  0.30417  1.0000
  H   H1543     1.0  0.94714  0.23350  0.26272  1.0000
  C   C1294     1.0  0.63375  0.23739  0.12732  1.0000
  H   H1544     1.0  0.52758  0.38794  0.41815  1.0000
  C   C1295     1.0  0.66057  0.36778  0.37304  1.0000
  H   H1545     1.0  0.62492  0.28855  0.15441  1.0000
  H   H1546     1.0  0.60213  0.28102  0.16262  1.0000
  S   S354      1.0  0.59682  0.40334  0.01950  1.0000
  Fe  Fe179     1.0  0.92268  0.40645  0.40077  1.0000
  C   C1296     1.0  0.97293  0.35886  0.34370  1.0000
  C   C1297     1.0  0.62380  0.35849  0.30512  1.0000
  H   H1547     1.0  0.94158  0.39573  0.35184  1.0000
  H   H1548     1.0  0.91300  0.24405  0.40973  1.0000
  C   C1298     1.0  0.64333  0.22927  0.18519  1.0000
  H   H1549     1.0  0.96482  0.22607  0.39569  1.0000
  C   C1299     1.0  0.61813  0.29577  0.11196  1.0000
  N   N85       1.0  0.94032  0.24544  0.42377  1.0000
  C   C1300     1.0  0.94674  0.26004  0.40749  1.0000
  C   C1301     1.0  0.92558  0.23476  0.41376  1.0000
  H   H1550     1.0  0.57639  0.28327  0.13489  1.0000
  H   H1551     1.0  0.61461  0.31121  0.11286  1.0000
  H   H1552     1.0  0.66974  0.37322  0.38578  1.0000
  H   H1553     1.0  0.68223  0.38002  0.22565  1.0000
  C   C1302     1.0  0.52182  0.38025  0.43294  1.0000
  H   H1554     1.0  0.95013  0.25427  0.39088  1.0000
  C   C1303     1.0  0.58715  0.22392  0.23835  1.0000
  H   H1555     1.0  0.59174  0.22252  0.11219  1.0000
  H   H1556     1.0  0.60683  0.38406  0.30862  1.0000
  S   S355      1.0  0.72857  0.39536  0.34333  1.0000
  N   N86       1.0  0.96658  0.37767  0.35199  1.0000
  C   C1304     1.0  0.61073  0.26430  0.12502  1.0000
  H   H1557     1.0  0.95763  0.36489  0.38320  1.0000
  H   H1558     1.0  0.61521  0.35315  0.29245  1.0000
  C   C1305     1.0  0.77820  0.39520  0.41479  1.0000
  H   H1559     1.0  0.65593  0.39314  0.20354  1.0000
  H   H1560     1.0  0.58327  0.30585  0.12516  1.0000
  C   C1306     1.0  0.93936  0.22735  0.24921  1.0000
  C   C1307     1.0  0.62909  0.25665  0.12931  1.0000
  C   C1308     1.0  0.00394  0.22153  0.20969  1.0000
  S   S356      1.0  0.78011  0.40327  0.33864  1.0000
  H   H1561     1.0  0.66377  0.34672  0.33183  1.0000
  H   H1562     1.0  0.59240  0.21837  0.17187  1.0000
  S   S357      1.0  0.70443  0.37998  0.29140  1.0000
  C   C1309     1.0  0.60217  0.23220  0.11669  1.0000
  H   H1563     1.0  0.94215  0.26330  0.45170  1.0000
  H   H1564     1.0  0.95936  0.26685  0.41323  1.0000
  H   H1565     1.0  0.93739  0.37100  0.35219  1.0000
  H   H1566     1.0  0.93562  0.21154  0.20921  1.0000
  C   C1310     1.0  0.61919  0.37598  0.31418  1.0000
  H   H1567     1.0  0.64628  0.36644  0.38073  1.0000
  C   C1311     1.0  0.63984  0.34813  0.31177  1.0000
  C   C1312     1.0  0.63064  0.38326  0.32988  1.0000
  H   H1568     1.0  0.62278  0.40319  0.09952  1.0000
  H   H1569     1.0  0.73665  0.38540  0.39079  1.0000
  H   H1570     1.0  0.92089  0.22314  0.42505  1.0000
  H   H1571     1.0  0.92468  0.24557  0.45497  1.0000
  N   N87       1.0  0.75810  0.39771  0.40933  1.0000
  C   C1313     1.0  0.98081  0.39484  0.31904  1.0000
  H   H1572     1.0  0.98798  0.35556  0.34729  1.0000
  H   H1573     1.0  0.62906  0.39825  0.06144  1.0000
  H   H1574     1.0  0.64023  0.40017  0.36924  1.0000
  H   H1575     1.0  0.68678  0.39996  0.43755  1.0000
  H   H1576     1.0  0.73082  0.39746  0.42604  1.0000
  H   H1577     1.0  0.66727  0.39970  0.28593  1.0000
  H   H1578     1.0  0.79517  0.21667  0.28925  1.0000
  H   H1579     1.0  0.96074  0.38959  0.38403  1.0000
  H   H1580     1.0  0.62382  0.21017  0.12015  1.0000
  C   C1314     1.0  0.80039  0.40711  0.35420  1.0000
  C   C1315     1.0  0.66474  0.40259  0.21181  1.0000
  H   H1581     1.0  0.70139  0.40060  0.24587  1.0000
  C   C1316     1.0  0.75191  0.38338  0.39412  1.0000
  C   C1317     1.0  0.67960  0.39520  0.22424  1.0000
  C   C1318     1.0  0.60629  0.21808  0.23404  1.0000
  H   H1582     1.0  0.66425  0.40495  0.37248  1.0000
  H   H1583     1.0  0.81885  0.36887  0.40266  1.0000
  C   C1319     1.0  0.79061  0.38124  0.40506  1.0000
  Fe  Fe180     1.0  0.71379  0.40410  0.31231  1.0000
  C   C1320     1.0  0.80951  0.37930  0.41066  1.0000
  H   H1584     1.0  0.55868  0.21403  0.23733  1.0000
  S   S358      1.0  0.70056  0.40833  0.39341  1.0000
  C   C1321     1.0  0.98799  0.40511  0.35546  1.0000
  C   C1322     1.0  0.81670  0.39130  0.42568  1.0000
  H   H1585     1.0  0.51511  0.36210  0.39853  1.0000
  H   H1586     1.0  0.83153  0.39015  0.42930  1.0000
  H   H1587     1.0  0.78625  0.37194  0.39263  1.0000
  C   C1323     1.0  0.80500  0.40527  0.43530  1.0000
  C   C1324     1.0  0.78602  0.40721  0.43003  1.0000
  H   H1588     1.0  0.74810  0.40827  0.44105  1.0000
  C   C1325     1.0  0.55890  0.40857  0.49684  1.0000
  Fe  Fe181     1.0  0.93240  0.23540  0.71232  1.0000
  S   S359      1.0  0.96242  0.22617  0.70440  1.0000
  S   S360      1.0  0.92340  0.26649  0.71764  1.0000
  C   C1326     1.0  0.87554  0.30090  0.67758  1.0000
  H   H1589     1.0  0.93448  0.26865  0.67056  1.0000
  H   H1590     1.0  0.57494  0.24017  0.84902  1.0000
  N   N88       1.0  0.63683  0.36954  0.85951  1.0000
  Fe  Fe182     1.0  0.57945  0.39088  0.99371  1.0000
  S   S361      1.0  0.58736  0.38981  0.95699  1.0000
  H   H1591     1.0  0.63801  0.34720  0.89907  1.0000
  Fe  Fe183     1.0  0.59997  0.31371  0.86146  1.0000
  S   S362      1.0  0.62561  0.30473  0.84077  1.0000
  S   S363      1.0  0.60189  0.31725  0.89850  1.0000
  Fe  Fe184     1.0  0.57326  0.30997  0.82293  1.0000
  S   S364      1.0  0.59695  0.30092  0.79964  1.0000
  S   S365      1.0  0.54172  0.31344  0.81690  1.0000
  Fe  Fe185     1.0  0.60744  0.28236  0.82839  1.0000
  S   S366      1.0  0.61564  0.25106  0.82307  1.0000
  Fe  Fe186     1.0  0.61321  0.32405  0.81400  1.0000
  S   S367      1.0  0.62555  0.34944  0.79485  1.0000
  S   S368      1.0  0.58272  0.29025  0.85062  1.0000
  S   S369      1.0  0.58857  0.33416  0.83583  1.0000
  C   C1327     1.0  0.83846  0.33623  0.67783  1.0000
  H   H1592     1.0  0.63292  0.39218  0.94400  1.0000
  S   S370      1.0  0.70278  0.37630  0.74927  1.0000
  Fe  Fe187     1.0  0.91301  0.36585  0.64804  1.0000
  S   S371      1.0  0.93125  0.38971  0.63694  1.0000
  S   S372      1.0  0.92369  0.33495  0.64624  1.0000
  Fe  Fe188     1.0  0.87723  0.39224  0.65048  1.0000
  H   H1593     1.0  0.66678  0.37128  0.85526  1.0000
  Fe  Fe189     1.0  0.90780  0.39883  0.61405  1.0000
  C   C1328     1.0  0.50903  0.31204  0.79431  1.0000
  H   H1594     1.0  0.84966  0.38999  0.58450  1.0000
  S   S373      1.0  0.89074  0.37421  0.62372  1.0000
  S   S374      1.0  0.89847  0.38204  0.67550  1.0000
  C   C1329     1.0  0.90272  0.38199  0.54725  1.0000
  C   C1330     1.0  0.90934  0.39991  0.55058  1.0000
  C   C1331     1.0  0.56848  0.22837  0.84193  1.0000
  C   C1332     1.0  0.51537  0.35159  0.67648  1.0000
  H   H1595     1.0  0.94678  0.28285  0.76167  1.0000
  H   H1596     1.0  0.53760  0.21528  0.80374  1.0000
  H   H1597     1.0  0.65356  0.39227  0.84660  1.0000
  C   C1333     1.0  0.61968  0.37750  0.84865  1.0000
  C   C1334     1.0  0.66640  0.39771  0.62941  1.0000
  C   C1335     1.0  0.52863  0.30844  0.79345  1.0000
  C   C1336     1.0  0.53707  0.30081  0.77431  1.0000
  C   C1337     1.0  0.53870  0.36546  0.97083  1.0000
  H   H1598     1.0  0.86577  0.39681  0.51003  1.0000
  H   H1599     1.0  0.55215  0.29819  0.77324  1.0000
  C   C1338     1.0  0.54243  0.35098  0.92559  1.0000
  H   H1600     1.0  0.52962  0.39781  0.92955  1.0000
  C   C1339     1.0  0.61889  0.23260  0.84350  1.0000
  C   C1340     1.0  0.97120  0.38270  0.59959  1.0000
  C   C1341     1.0  0.61794  0.23607  0.86614  1.0000
  C   C1342     1.0  0.86367  0.31419  0.68926  1.0000
  H   H1601     1.0  0.61527  0.25035  0.87164  1.0000
  C   C1343     1.0  0.64736  0.35654  0.78267  1.0000
  C   C1344     1.0  0.66334  0.34433  0.78103  1.0000
  C   C1345     1.0  0.68013  0.35065  0.77088  1.0000
  C   C1346     1.0  0.68130  0.36929  0.76243  1.0000
  C   C1347     1.0  0.66537  0.38158  0.76430  1.0000
  C   C1348     1.0  0.64852  0.37520  0.77424  1.0000
  H   H1602     1.0  0.66274  0.32994  0.78734  1.0000
  H   H1603     1.0  0.69233  0.34100  0.76953  1.0000
  H   H1604     1.0  0.66603  0.39599  0.75812  1.0000
  H   H1605     1.0  0.63630  0.38483  0.77547  1.0000
  C   C1349     1.0  0.59029  0.36930  0.94110  1.0000
  C   C1350     1.0  0.59391  0.35147  0.95089  1.0000
  C   C1351     1.0  0.59716  0.33565  0.93757  1.0000
  C   C1352     1.0  0.59642  0.33741  0.91443  1.0000
  C   C1353     1.0  0.59203  0.35512  0.90468  1.0000
  C   C1354     1.0  0.58928  0.37105  0.91795  1.0000
  H   H1606     1.0  0.59475  0.34994  0.96867  1.0000
  H   H1607     1.0  0.60049  0.32196  0.94523  1.0000
  H   H1608     1.0  0.59116  0.35656  0.88695  1.0000
  H   H1609     1.0  0.58648  0.38481  0.91026  1.0000
  H   H1610     1.0  0.52791  0.34237  0.68058  1.0000
  N   N89       1.0  0.95285  0.35871  0.57967  1.0000
  C   C1355     1.0  0.63728  0.34875  0.85724  1.0000
  C   C1356     1.0  0.56499  0.26014  0.80785  1.0000
  H   H1611     1.0  0.89880  0.37318  0.56134  1.0000
  C   C1357     1.0  0.52594  0.29664  0.75640  1.0000
  H   H1612     1.0  0.68376  0.39765  0.65698  1.0000
  H   H1613     1.0  0.61999  0.22402  0.89919  1.0000
  C   C1358     1.0  0.92423  0.28549  0.69775  1.0000
  C   C1359     1.0  0.91840  0.30385  0.70411  1.0000
  C   C1360     1.0  0.91825  0.31919  0.68868  1.0000
  C   C1361     1.0  0.92391  0.31632  0.66664  1.0000
  C   C1362     1.0  0.92984  0.29799  0.66034  1.0000
  C   C1363     1.0  0.93002  0.28267  0.67575  1.0000
  H   H1614     1.0  0.91380  0.30619  0.72104  1.0000
  H   H1615     1.0  0.91383  0.33321  0.69386  1.0000
  H   H1616     1.0  0.93427  0.29556  0.64337  1.0000
  C   C1364     1.0  0.80812  0.39396  0.66589  1.0000
  H   H1617     1.0  0.53570  0.27571  0.83211  1.0000
  H   H1618     1.0  0.83044  0.33507  0.69382  1.0000
  C   C1365     1.0  0.86834  0.33774  0.65874  1.0000
  H   H1619     1.0  0.94516  0.36751  0.54647  1.0000
  C   C1366     1.0  0.54121  0.26131  0.83718  1.0000
  H   H1620     1.0  0.00268  0.22965  0.82602  1.0000
  H   H1621     1.0  0.95474  0.33600  0.55662  1.0000
  H   H1622     1.0  0.83329  0.32555  0.66670  1.0000
  H   H1623     1.0  0.95837  0.33933  0.61914  1.0000
  H   H1624     1.0  0.86404  0.32812  0.64586  1.0000
  H   H1625     1.0  0.86455  0.35232  0.65263  1.0000
  H   H1626     1.0  0.84699  0.31737  0.71994  1.0000
  C   C1367     1.0  0.86502  0.34762  0.69614  1.0000
  C   C1368     1.0  0.66958  0.39570  0.65206  1.0000
  C   C1369     1.0  0.65468  0.39197  0.66756  1.0000
  C   C1370     1.0  0.98121  0.37623  0.63705  1.0000
  H   H1627     1.0  0.62315  0.21098  0.81933  1.0000
  C   C1371     1.0  0.87965  0.28280  0.68645  1.0000
  H   H1628     1.0  0.97384  0.34948  0.65158  1.0000
  H   H1629     1.0  0.88394  0.33669  0.65975  1.0000
  H   H1630     1.0  0.52927  0.26589  0.79654  1.0000
  H   H1631     1.0  0.56104  0.27489  0.80240  1.0000
  H   H1632     1.0  0.88909  0.27300  0.67755  1.0000
  S   S375      1.0  0.93031  0.21613  0.74265  1.0000
  H   H1633     1.0  0.97035  0.28974  0.76287  1.0000
  S   S376      1.0  0.92044  0.21426  0.69026  1.0000
  H   H1634     1.0  0.95730  0.28486  0.78813  1.0000
  H   H1635     1.0  0.52956  0.25398  0.84591  1.0000
  H   H1636     1.0  0.61957  0.39144  0.62995  1.0000
  C   C1372     1.0  0.56254  0.39548  0.54046  1.0000
  C   C1373     1.0  0.86059  0.29004  0.71896  1.0000
  H   H1637     1.0  0.97671  0.34159  0.56811  1.0000
  C   C1374     1.0  0.97345  0.35863  0.63689  1.0000
  C   C1375     1.0  0.96303  0.36484  0.59894  1.0000
  H   H1638     1.0  0.63731  0.34480  0.83958  1.0000
  C   C1376     1.0  0.00002  0.26719  0.77831  1.0000
  C   C1377     1.0  0.53377  0.25109  0.80134  1.0000
  H   H1639     1.0  0.52360  0.32546  0.88600  1.0000
  H   H1640     1.0  0.87346  0.39787  0.58503  1.0000
  C   C1378     1.0  0.57756  0.40436  0.52962  1.0000
  H   H1641     1.0  0.52094  0.24429  0.80793  1.0000
  C   C1379     1.0  0.65358  0.37661  0.84734  1.0000
  H   H1642     1.0  0.53267  0.35208  0.97710  1.0000
  C   C1380     1.0  0.87238  0.27745  0.70717  1.0000
  S   S377      1.0  0.84534  0.38870  0.65248  1.0000
  C   C1381     1.0  0.67725  0.39115  0.69788  1.0000
  H   H1643     1.0  0.52699  0.33284  0.71616  1.0000
  H   H1644     1.0  0.88225  0.30419  0.66178  1.0000
  H   H1645     1.0  0.97383  0.23442  0.80619  1.0000
  C   C1382     1.0  0.62064  0.22107  0.88175  1.0000
  H   H1646     1.0  0.53946  0.40127  0.95607  1.0000
  H   H1647     1.0  0.67788  0.40102  0.61795  1.0000
  C   C1383     1.0  0.52423  0.33503  0.89956  1.0000
  C   C1384     1.0  0.63667  0.37543  0.88278  1.0000
  H   H1648     1.0  0.93136  0.34528  0.59984  1.0000
  H   H1649     1.0  0.50747  0.31703  0.69299  1.0000
  C   C1385     1.0  0.63631  0.36842  0.92279  1.0000
  C   C1386     1.0  0.51676  0.34210  0.72450  1.0000
  C   C1387     1.0  0.85853  0.40132  0.58998  1.0000
  H   H1650     1.0  0.83456  0.35050  0.67063  1.0000
  H   H1651     1.0  0.62473  0.34253  0.86550  1.0000
  H   H1652     1.0  0.86220  0.36235  0.68970  1.0000
  H   H1653     1.0  0.77867  0.39773  0.67583  1.0000
  H   H1654     1.0  0.53258  0.29069  0.74170  1.0000
  H   H1655     1.0  0.55373  0.36249  0.96615  1.0000
  H   H1656     1.0  0.62450  0.38797  0.66969  1.0000
  C   C1388     1.0  0.63546  0.39488  0.88778  1.0000
  N   N90       1.0  0.65734  0.39035  0.69173  1.0000
  C   C1389     1.0  0.63736  0.36231  0.90103  1.0000
  C   C1390     1.0  0.64664  0.40611  0.70269  1.0000
  H   H1657     1.0  0.61910  0.39315  0.84748  1.0000
  H   H1658     1.0  0.67884  0.38975  0.71606  1.0000
  C   C1391     1.0  0.65050  0.37217  0.70077  1.0000
  H   H1659     1.0  0.95438  0.23327  0.77740  1.0000
  C   C1392     1.0  0.82651  0.39993  0.66813  1.0000
  H   H1660     1.0  0.57110  0.25248  0.79333  1.0000
  H   H1661     1.0  0.65018  0.34176  0.86423  1.0000
  C   C1393     1.0  0.96140  0.34050  0.57186  1.0000
  C   C1394     1.0  0.53752  0.39067  0.94324  1.0000
  H   H1662     1.0  0.92603  0.36947  0.59220  1.0000
  H   H1663     1.0  0.63128  0.40575  0.70035  1.0000
  H   H1664     1.0  0.93809  0.25154  0.76830  1.0000
  C   C1395     1.0  0.00172  0.24046  0.81301  1.0000
  H   H1665     1.0  0.51881  0.36646  0.67917  1.0000
  H   H1666     1.0  0.89573  0.36165  0.52329  1.0000
  N   N91       1.0  0.54871  0.25048  0.81795  1.0000
  C   C1396     1.0  0.95306  0.37242  0.56062  1.0000
  S   S378      1.0  0.59810  0.40772  0.54419  1.0000
  H   H1667     1.0  0.96764  0.37478  0.55439  1.0000
  C   C1397     1.0  0.85618  0.30811  0.71016  1.0000
  H   H1668     1.0  0.63609  0.35816  0.93645  1.0000
  H   H1669     1.0  0.92477  0.35135  0.57227  1.0000
  H   H1670     1.0  0.65339  0.37013  0.71872  1.0000
  C   C1398     1.0  0.57435  0.21030  0.84948  1.0000
  H   H1671     1.0  0.87617  0.26357  0.71418  1.0000
  H   H1672     1.0  0.94613  0.38626  0.56508  1.0000
  H   H1673     1.0  0.63509  0.40567  0.87481  1.0000
  H   H1674     1.0  0.64606  0.39809  0.60396  1.0000
  H   H1675     1.0  0.55616  0.35334  0.93159  1.0000
  H   H1676     1.0  0.65432  0.37198  0.82985  1.0000
  C   C1399     1.0  0.51939  0.34518  0.74686  1.0000
  C   C1400     1.0  0.91198  0.40477  0.51011  1.0000
  H   H1677     1.0  0.68626  0.37960  0.69043  1.0000
  H   H1678     1.0  0.56393  0.39029  0.55733  1.0000
  C   C1401     1.0  0.50783  0.34393  0.90820  1.0000
  C   C1402     1.0  0.54780  0.21464  0.81654  1.0000
  N   N92       1.0  0.85905  0.33354  0.68051  1.0000
  C   C1403     1.0  0.93292  0.35606  0.58628  1.0000
  H   H1679     1.0  0.53148  0.33866  0.75505  1.0000
  H   H1680     1.0  0.97052  0.39288  0.58600  1.0000
  H   H1681     1.0  0.65757  0.36004  0.69208  1.0000
  H   H1682     1.0  0.85747  0.34668  0.71243  1.0000
  C   C1404     1.0  0.79270  0.40247  0.67778  1.0000
  H   H1683     1.0  0.64879  0.40579  0.72085  1.0000
  C   C1405     1.0  0.96456  0.35295  0.61815  1.0000
  H   H1684     1.0  0.85498  0.28577  0.73510  1.0000
  H   H1685     1.0  0.55181  0.38664  0.93651  1.0000
  C   C1406     1.0  0.54150  0.33850  0.90831  1.0000
  N   N93       1.0  0.96666  0.26011  0.77048  1.0000
  C   C1407     1.0  0.97108  0.25507  0.74728  1.0000
  C   C1408     1.0  0.95075  0.24870  0.77849  1.0000
  C   C1409     1.0  0.96004  0.28026  0.77086  1.0000
  C   C1410     1.0  0.98377  0.25694  0.78362  1.0000
  H   H1686     1.0  0.95973  0.32880  0.58429  1.0000
  S   S379      1.0  0.72274  0.40794  0.69923  1.0000
  C   C1411     1.0  0.90091  0.37550  0.52556  1.0000
  H   H1687     1.0  0.61890  0.37266  0.83140  1.0000
  H   H1688     1.0  0.88036  0.34573  0.69911  1.0000
  H   H1689     1.0  0.97578  0.23994  0.74637  1.0000
  H   H1690     1.0  0.95859  0.25738  0.73680  1.0000
  H   H1691     1.0  0.98233  0.26350  0.73945  1.0000
  H   H1692     1.0  0.63509  0.37119  0.69938  1.0000
  C   C1412     1.0  0.63453  0.38759  0.92709  1.0000
  H   H1693     1.0  0.00023  0.27739  0.76472  1.0000
  C   C1413     1.0  0.63426  0.40081  0.90962  1.0000
  H   H1694     1.0  0.94645  0.25189  0.79585  1.0000
  C   C1414     1.0  0.52607  0.36038  0.93478  1.0000
  C   C1415     1.0  0.98016  0.38820  0.61842  1.0000
  C   C1416     1.0  0.55487  0.23114  0.82537  1.0000
  C   C1417     1.0  0.63354  0.39251  0.63621  1.0000
  C   C1418     1.0  0.98514  0.24338  0.80136  1.0000
  H   H1695     1.0  0.68299  0.40495  0.69286  1.0000
  H   H1696     1.0  0.60675  0.37311  0.85777  1.0000
  H   H1697     1.0  0.98773  0.38075  0.65179  1.0000
  C   C1419     1.0  0.63654  0.39046  0.65890  1.0000
  C   C1420     1.0  0.64844  0.39618  0.62151  1.0000
  H   H1698     1.0  0.55211  0.26345  0.84942  1.0000
  H   H1699     1.0  0.53880  0.37499  0.98505  1.0000
  N   N94       1.0  0.52768  0.37415  0.95245  1.0000
  H   H1700     1.0  0.53404  0.38676  0.53823  1.0000
  H   H1701     1.0  0.57654  0.26106  0.81953  1.0000
  H   H1702     1.0  0.51340  0.35008  0.65845  1.0000
  Fe  Fe190     1.0  0.71118  0.40501  0.73444  1.0000
  H   H1703     1.0  0.53876  0.24425  0.78578  1.0000
  C   C1421     1.0  0.54559  0.39350  0.52970  1.0000
  C   C1422     1.0  0.50633  0.30032  0.75724  1.0000
  H   H1704     1.0  0.80574  0.38270  0.65484  1.0000
  H   H1705     1.0  0.55431  0.33158  0.90160  1.0000
  H   H1706     1.0  0.86328  0.39260  0.54979  1.0000
  C   C1423     1.0  0.50863  0.35645  0.92556  1.0000
  H   H1707     1.0  0.85773  0.40070  0.60839  1.0000
  C   C1424     1.0  0.50927  0.38118  0.96210  1.0000
  H   H1708     1.0  0.51110  0.39112  0.97571  1.0000
  C   C1425     1.0  0.85936  0.40642  0.54305  1.0000
  H   H1709     1.0  0.98593  0.40203  0.61878  1.0000
  C   C1426     1.0  0.62244  0.21387  0.83679  1.0000
  Fe  Fe191     1.0  0.91556  0.40677  0.66322  1.0000
  C   C1427     1.0  0.86083  0.40862  0.52003  1.0000
  H   H1710     1.0  0.50789  0.35762  0.77655  1.0000
  C   C1428     1.0  0.50608  0.35588  0.75902  1.0000
  H   H1711     1.0  0.00522  0.22550  0.73569  1.0000
  S   S380      1.0  0.91249  0.40880  0.57763  1.0000
  Fe  Fe192     1.0  0.61900  0.56681  0.03783  1.0000
  S   S381      1.0  0.63297  0.54103  0.05416  1.0000
  S   S382      1.0  0.59106  0.57746  0.05298  1.0000
  Fe  Fe193     1.0  0.65936  0.55704  0.05123  1.0000
  S   S383      1.0  0.68311  0.55646  0.07551  1.0000
  S   S384      1.0  0.64501  0.58357  0.03757  1.0000
  H   H1712     1.0  0.65803  0.57908  0.22208  1.0000
  Fe  Fe194     1.0  0.70228  0.58518  0.19663  1.0000
  H   H1713     1.0  0.91899  0.54471  0.27187  1.0000
  Fe  Fe195     1.0  0.72936  0.56538  0.22916  1.0000
  S   S385      1.0  0.73956  0.59309  0.24047  1.0000
  S   S386      1.0  0.74222  0.53651  0.24024  1.0000
  H   H1714     1.0  0.63428  0.60349  0.42000  1.0000
  H   H1715     1.0  0.94133  0.49369  0.35591  1.0000
  H   H1716     1.0  0.54375  0.55977  0.01444  1.0000
  S   S387      1.0  0.69900  0.57509  0.23204  1.0000
  S   S388      1.0  0.73204  0.57346  0.19277  1.0000
  C   C1429     1.0  0.00052  0.42127  0.32282  1.0000
  S   S389      1.0  0.65169  0.45767  0.46275  1.0000
  H   H1717     1.0  0.88206  0.57982  0.17584  1.0000
  H   H1718     1.0  0.70888  0.58517  0.07696  1.0000
  C   C1430     1.0  0.68146  0.44103  0.40762  1.0000
  Fe  Fe196     1.0  0.71207  0.41893  0.35999  1.0000
  H   H1719     1.0  0.59821  0.41054  0.07154  1.0000
  Fe  Fe197     1.0  0.71946  0.44569  0.32049  1.0000
  H   H1720     1.0  0.88487  0.47654  0.38540  1.0000
  S   S390      1.0  0.70843  0.47464  0.30751  1.0000
  S   S391      1.0  0.69582  0.42638  0.32953  1.0000
  S   S392      1.0  0.73439  0.43984  0.35269  1.0000
  H   H1721     1.0  0.63128  0.41734  0.04195  1.0000
  S   S393      1.0  0.94468  0.42834  0.39084  1.0000
  C   C1431     1.0  0.51139  0.55024  0.04391  1.0000
  C   C1432     1.0  0.66101  0.42204  0.21043  1.0000
  H   H1722     1.0  0.59436  0.57290  0.44858  1.0000
  S   S394      1.0  0.94152  0.58696  0.15834  1.0000
  C   C1433     1.0  0.90484  0.55744  0.21950  1.0000
  C   C1434     1.0  0.67193  0.43419  0.22179  1.0000
  S   S395      1.0  0.98208  0.47137  0.30619  1.0000
  C   C1435     1.0  0.80178  0.42291  0.36722  1.0000
  S   S396      1.0  0.98138  0.54989  0.24448  1.0000
  S   S397      1.0  0.89852  0.41343  0.42476  1.0000
  C   C1436     1.0  0.95236  0.57687  0.18260  1.0000
  C   C1437     1.0  0.94834  0.58369  0.20378  1.0000
  C   C1438     1.0  0.95737  0.57530  0.22236  1.0000
  C   C1439     1.0  0.97061  0.55995  0.22018  1.0000
  C   C1440     1.0  0.97465  0.55314  0.19900  1.0000
  C   C1441     1.0  0.96559  0.56154  0.18042  1.0000
  H   H1723     1.0  0.67822  0.43679  0.27635  1.0000
  H   H1724     1.0  0.95412  0.58075  0.23860  1.0000
  H   H1725     1.0  0.98476  0.54139  0.19693  1.0000
  H   H1726     1.0  0.96893  0.55610  0.16418  1.0000
  C   C1442     1.0  0.97169  0.45990  0.33010  1.0000
  C   C1443     1.0  0.95774  0.44685  0.32717  1.0000
  C   C1444     1.0  0.94908  0.43736  0.34539  1.0000
  C   C1445     1.0  0.95444  0.44050  0.36698  1.0000
  C   C1446     1.0  0.96829  0.45364  0.36992  1.0000
  C   C1447     1.0  0.97680  0.46331  0.35170  1.0000
  H   H1727     1.0  0.95356  0.44412  0.31061  1.0000
  H   H1728     1.0  0.93831  0.42766  0.34258  1.0000
  H   H1729     1.0  0.97258  0.45632  0.38646  1.0000
  H   H1730     1.0  0.98742  0.47328  0.35437  1.0000
  H   H1731     1.0  0.64910  0.41232  0.06233  1.0000
  Fe  Fe198     1.0  0.00244  0.52691  0.25873  1.0000
  N   N95       1.0  0.60821  0.59822  0.45547  1.0000
  C   C1448     1.0  0.64292  0.45166  0.05706  1.0000
  H   H1732     1.0  0.79039  0.43354  0.36781  1.0000
  H   H1733     1.0  0.81894  0.43734  0.38940  1.0000
  C   C1449     1.0  0.66564  0.44369  0.44404  1.0000
  C   C1450     1.0  0.67162  0.42503  0.44915  1.0000
  C   C1451     1.0  0.62909  0.44564  0.07287  1.0000
  C   C1452     1.0  0.68733  0.42237  0.41268  1.0000
  C   C1453     1.0  0.67062  0.45159  0.42320  1.0000
  H   H1734     1.0  0.55761  0.41352  0.47987  1.0000
  C   C1454     1.0  0.57570  0.41089  0.50774  1.0000
  Fe  Fe199     1.0  0.57122  0.42179  0.02777  1.0000
  H   H1735     1.0  0.86614  0.43803  0.35515  1.0000
  C   C1455     1.0  0.57588  0.58949  0.01331  1.0000
  C   C1456     1.0  0.73251  0.51943  0.25890  1.0000
  C   C1457     1.0  0.74286  0.50236  0.26327  1.0000
  C   C1458     1.0  0.73580  0.48849  0.27811  1.0000
  C   C1459     1.0  0.71826  0.49158  0.28879  1.0000
  C   C1460     1.0  0.70783  0.50854  0.28423  1.0000
  C   C1461     1.0  0.71489  0.52240  0.26942  1.0000
  H   H1736     1.0  0.75652  0.49994  0.25524  1.0000
  H   H1737     1.0  0.74402  0.47555  0.28142  1.0000
  H   H1738     1.0  0.69424  0.51108  0.29238  1.0000
  H   H1739     1.0  0.70677  0.53544  0.26627  1.0000
  H   H1740     1.0  0.91682  0.47689  0.37609  1.0000
  C   C1462     1.0  0.62642  0.41829  0.09775  1.0000
  H   H1741     1.0  0.65400  0.41017  0.34640  1.0000
  H   H1742     1.0  0.88141  0.59933  0.20694  1.0000
  H   H1743     1.0  0.82453  0.58644  0.19827  1.0000
  H   H1744     1.0  0.78973  0.59001  0.20229  1.0000
  H   H1745     1.0  0.86566  0.46175  0.38223  1.0000
  H   H1746     1.0  0.64992  0.44225  0.04543  1.0000
  H   H1747     1.0  0.72343  0.42134  0.24958  1.0000
  H   H1748     1.0  0.82446  0.59876  0.07226  1.0000
  C   C1463     1.0  0.60605  0.49549  0.03101  1.0000
  C   C1464     1.0  0.59101  0.48421  0.03735  1.0000
  H   H1749     1.0  0.60669  0.50950  0.03741  1.0000
  H   H1750     1.0  0.58008  0.48963  0.04860  1.0000
  C   C1465     1.0  0.68078  0.56224  0.10373  1.0000
  C   C1466     1.0  0.66343  0.56797  0.11346  1.0000
  C   C1467     1.0  0.66244  0.57391  0.13547  1.0000
  C   C1468     1.0  0.67874  0.57416  0.14791  1.0000
  C   C1469     1.0  0.69604  0.56827  0.13825  1.0000
  C   C1470     1.0  0.69703  0.56234  0.11626  1.0000
  H   H1751     1.0  0.65083  0.56800  0.10395  1.0000
  H   H1752     1.0  0.80689  0.55924  0.14836  1.0000
  H   H1753     1.0  0.70867  0.56842  0.14765  1.0000
  H   H1754     1.0  0.71050  0.55794  0.10886  1.0000
  C   C1471     1.0  0.57270  0.58573  0.03587  1.0000
  C   C1472     1.0  0.55461  0.58914  0.04526  1.0000
  C   C1473     1.0  0.64778  0.47050  0.05534  1.0000
  H   H1755     1.0  0.00536  0.42912  0.35598  1.0000
  C   C1474     1.0  0.99960  0.59866  0.22191  1.0000
  C   C1475     1.0  0.54311  0.60057  0.00975  1.0000
  N   N96       1.0  0.88904  0.45640  0.35937  1.0000
  C   C1476     1.0  0.87665  0.44609  0.34514  1.0000
  C   C1477     1.0  0.89843  0.44225  0.37433  1.0000
  C   C1478     1.0  0.87685  0.46942  0.37290  1.0000
  C   C1479     1.0  0.90341  0.46713  0.34685  1.0000
  C   C1480     1.0  0.91679  0.47703  0.35824  1.0000
  C   C1481     1.0  0.90483  0.46789  0.32335  1.0000
  C   C1482     1.0  0.93083  0.48682  0.34687  1.0000
  C   C1483     1.0  0.91896  0.47775  0.31215  1.0000
  C   C1484     1.0  0.93194  0.48715  0.32388  1.0000
  H   H1756     1.0  0.85786  0.42763  0.49196  1.0000
  H   H1757     1.0  0.52138  0.56177  0.04393  1.0000
  N   N97       1.0  0.64353  0.60607  0.22782  1.0000
  H   H1758     1.0  0.90631  0.44873  0.38745  1.0000
  H   H1759     1.0  0.90869  0.43295  0.36500  1.0000
  H   H1760     1.0  0.88812  0.43317  0.38306  1.0000
  C   C1485     1.0  0.60417  0.45914  0.01454  1.0000
  H   H1761     1.0  0.61821  0.59651  0.21443  1.0000
  C   C1486     1.0  0.99156  0.40910  0.30950  1.0000
  N   N98       1.0  0.83558  0.60561  0.10345  1.0000
  H   H1762     1.0  0.89541  0.46077  0.31320  1.0000
  H   H1763     1.0  0.90679  0.57571  0.17841  1.0000
  H   H1764     1.0  0.92018  0.47778  0.29425  1.0000
  H   H1765     1.0  0.94328  0.49419  0.31515  1.0000
  C   C1487     1.0  0.83330  0.41161  0.37860  1.0000
  H   H1766     1.0  0.55212  0.58632  0.06273  1.0000
  C   C1488     1.0  0.58995  0.46608  0.02900  1.0000
  H   H1767     1.0  0.68516  0.44734  0.39169  1.0000
  C   C1489     1.0  0.82077  0.57957  0.12711  1.0000
  S   S398      1.0  0.61148  0.45320  0.50760  1.0000
  N   N99       1.0  0.69782  0.43924  0.24877  1.0000
  C   C1490     1.0  0.79745  0.60060  0.19314  1.0000
  C   C1491     1.0  0.69351  0.43462  0.27232  1.0000
  C   C1492     1.0  0.71832  0.43580  0.24436  1.0000
  C   C1493     1.0  0.51130  0.52235  0.49300  1.0000
  Fe  Fe200     1.0  0.63978  0.53234  0.01941  1.0000
  H   H1768     1.0  0.51460  0.43859  0.49991  1.0000
  H   H1769     1.0  0.61836  0.48909  0.09495  1.0000
  H   H1770     1.0  0.64137  0.41922  0.10218  1.0000
  C   C1494     1.0  0.60518  0.60660  0.43310  1.0000
  S   S399      1.0  0.85338  0.41514  0.39457  1.0000
  N   N100      1.0  0.62333  0.42587  0.07499  1.0000
  C   C1495     1.0  0.93261  0.53485  0.24202  1.0000
  C   C1496     1.0  0.68699  0.42705  0.23499  1.0000
  H   H1771     1.0  0.58727  0.41760  0.49920  1.0000
  H   H1772     1.0  0.70110  0.44364  0.28334  1.0000
  H   H1773     1.0  0.70249  0.59345  0.04992  1.0000
  C   C1497     1.0  0.69345  0.45978  0.24507  1.0000
  H   H1774     1.0  0.86405  0.59871  0.09175  1.0000
  H   H1775     1.0  0.76289  0.41773  0.38271  1.0000
  H   H1776     1.0  0.66785  0.41878  0.46509  1.0000
  H   H1777     1.0  0.63901  0.57838  0.24213  1.0000
  H   H1778     1.0  0.77749  0.57891  0.15265  1.0000
  H   H1779     1.0  0.63845  0.59896  0.45646  1.0000
  H   H1780     1.0  0.75831  0.42824  0.40902  1.0000
  C   C1498     1.0  0.65064  0.58707  0.23566  1.0000
  H   H1781     1.0  0.87026  0.54835  0.20899  1.0000
  S   S400      1.0  0.57052  0.45261  0.03663  1.0000
  H   H1782     1.0  0.81080  0.41486  0.44655  1.0000
  C   C1499     1.0  0.91876  0.54508  0.25397  1.0000
  H   H1783     1.0  0.89454  0.56378  0.25296  1.0000
  H   H1784     1.0  0.72673  0.44558  0.25367  1.0000
  C   C1500     1.0  0.62712  0.58873  0.45806  1.0000
  Fe  Fe201     1.0  0.64249  0.45117  0.49850  1.0000
  H   H1785     1.0  0.98205  0.60830  0.17159  1.0000
  S   S401      1.0  0.85263  0.60858  0.17636  1.0000
  C   C1501     1.0  0.62541  0.47851  0.08467  1.0000
  Fe  Fe202     1.0  0.75021  0.41640  0.33447  1.0000
  H   H1786     1.0  0.64251  0.49856  0.06712  1.0000
  C   C1502     1.0  0.68236  0.41441  0.43349  1.0000
  C   C1503     1.0  0.80238  0.60844  0.11899  1.0000
  H   H1787     1.0  0.86788  0.56396  0.23179  1.0000
  S   S402      1.0  0.89220  0.60343  0.13339  1.0000
  C   C1504     1.0  0.90495  0.55608  0.24295  1.0000
  H   H1788     1.0  0.59391  0.43359  0.08210  1.0000
  H   H1789     1.0  0.86983  0.48060  0.36233  1.0000
  H   H1790     1.0  0.72196  0.43784  0.22647  1.0000
  C   C1505     1.0  0.93256  0.53538  0.21903  1.0000
  S   S403      1.0  0.66750  0.54620  0.01754  1.0000
  C   C1506     1.0  0.52989  0.53302  0.01629  1.0000
  C   C1507     1.0  0.63904  0.48389  0.06906  1.0000
  H   H1791     1.0  0.60960  0.45628  0.09870  1.0000
  C   C1508     1.0  0.62049  0.45968  0.08663  1.0000
  H   H1792     1.0  0.94364  0.52768  0.20985  1.0000
  H   H1793     1.0  0.67863  0.46382  0.24989  1.0000
  H   H1794     1.0  0.52017  0.42012  0.03578  1.0000
  N   N101      1.0  0.51098  0.54148  0.02204  1.0000
  C   C1509     1.0  0.59410  0.58400  0.46118  1.0000
  C   C1510     1.0  0.81811  0.42510  0.37932  1.0000
  H   H1795     1.0  0.83331  0.57042  0.12640  1.0000
  H   H1796     1.0  0.59672  0.57694  0.47759  1.0000
  C   C1511     1.0  0.91903  0.54657  0.20781  1.0000
  C   C1512     1.0  0.53983  0.59647  0.03223  1.0000
  H   H1797     1.0  0.70219  0.46848  0.25540  1.0000
  Fe  Fe203     1.0  0.74061  0.60162  0.20421  1.0000
  Fe  Fe204     1.0  0.70890  0.60354  0.24079  1.0000
  H   H1798     1.0  0.00107  0.58449  0.19109  1.0000
  H   H1799     1.0  0.93844  0.59552  0.20587  1.0000
  H   H1800     1.0  0.86840  0.45590  0.33405  1.0000
  H   H1801     1.0  0.66606  0.46601  0.41910  1.0000
  H   H1802     1.0  0.66810  0.44907  0.22025  1.0000
  H   H1803     1.0  0.91552  0.41373  0.49598  1.0000
  H   H1804     1.0  0.84896  0.57928  0.09297  1.0000
  C   C1513     1.0  0.81724  0.59860  0.19075  1.0000
  N   N102      1.0  0.89052  0.56983  0.20826  1.0000
  C   C1514     1.0  0.87147  0.56323  0.21384  1.0000
  C   C1515     1.0  0.89150  0.58948  0.21571  1.0000
  C   C1516     1.0  0.89292  0.57031  0.18379  1.0000
  C   C1517     1.0  0.63374  0.41297  0.05949  1.0000
  H   H1805     1.0  0.85794  0.58834  0.11799  1.0000
  C   C1518     1.0  0.85229  0.59231  0.10150  1.0000
  H   H1806     1.0  0.63907  0.59789  0.27362  1.0000
  H   H1807     1.0  0.90580  0.59472  0.21256  1.0000
  H   H1808     1.0  0.94371  0.52683  0.25053  1.0000
  C   C1519     1.0  0.99592  0.59703  0.19964  1.0000
  C   C1520     1.0  0.60307  0.42522  0.07046  1.0000
  Fe  Fe205     1.0  0.00325  0.49315  0.29259  1.0000
  H   H1809     1.0  0.99267  0.41104  0.29169  1.0000
  H   H1810     1.0  0.92042  0.54686  0.19000  1.0000
  S   S404      1.0  0.00416  0.49521  0.25507  1.0000
  H   H1811     1.0  0.69766  0.41973  0.27685  1.0000
  S   S405      1.0  0.73672  0.42358  0.30164  1.0000
  H   H1812     1.0  0.50634  0.51104  0.48358  1.0000
  H   H1813     1.0  0.88486  0.43552  0.33504  1.0000
  C   C1521     1.0  0.63135  0.60330  0.20886  1.0000
  C   C1522     1.0  0.78898  0.58384  0.14214  1.0000
  C   C1523     1.0  0.62009  0.48867  0.01624  1.0000
  C   C1524     1.0  0.78734  0.60155  0.13169  1.0000
  H   H1814     1.0  0.89160  0.55613  0.17684  1.0000
  H   H1815     1.0  0.86039  0.57206  0.20520  1.0000
  H   H1816     1.0  0.64900  0.57843  0.14282  1.0000
  C   C1525     1.0  0.81962  0.59768  0.11632  1.0000
  H   H1817     1.0  0.65787  0.47499  0.04268  1.0000
  H   H1818     1.0  0.73948  0.41907  0.39474  1.0000
  H   H1819     1.0  0.77759  0.41844  0.43767  1.0000
  H   H1820     1.0  0.88797  0.59086  0.23359  1.0000
  S   S406      1.0  0.67692  0.58266  0.17510  1.0000
  H   H1821     1.0  0.64937  0.42770  0.20078  1.0000
  H   H1822     1.0  0.63863  0.59415  0.19622  1.0000
  C   C1526     1.0  0.80562  0.57286  0.13981  1.0000
  H   H1823     1.0  0.62982  0.57747  0.44580  1.0000
  C   C1527     1.0  0.53367  0.51321  0.01457  1.0000
  C   C1528     1.0  0.70897  0.59769  0.06542  1.0000
  H   H1824     1.0  0.62858  0.58191  0.47481  1.0000
  C   C1529     1.0  0.54539  0.54468  0.01288  1.0000
  H   H1825     1.0  0.72392  0.60037  0.06140  1.0000
  H   H1826     1.0  0.52607  0.59938  0.03970  1.0000
  C   C1530     1.0  0.99882  0.41921  0.34572  1.0000
  C   C1531     1.0  0.53013  0.52064  0.49910  1.0000
  H   H1827     1.0  0.67275  0.60857  0.05965  1.0000
  H   H1828     1.0  0.69628  0.46425  0.22755  1.0000
  H   H1829     1.0  0.60024  0.43102  0.05362  1.0000
  S   S407      1.0  0.00031  0.52483  0.29608  1.0000
  H   H1830     1.0  0.66113  0.58804  0.24879  1.0000
  C   C1532     1.0  0.75459  0.41651  0.39854  1.0000
  H   H1831     1.0  0.60938  0.60823  0.48856  1.0000
  H   H1832     1.0  0.51578  0.53964  0.05690  1.0000
  H   H1833     1.0  0.67559  0.59700  0.08558  1.0000
  H   H1834     1.0  0.57955  0.59034  0.46260  1.0000
  H   H1835     1.0  0.52296  0.50309  0.01735  1.0000
  H   H1836     1.0  0.53897  0.50851  0.49418  1.0000
  H   H1837     1.0  0.61755  0.42598  0.11029  1.0000
  C   C1533     1.0  0.62007  0.60867  0.41710  1.0000
  C   C1534     1.0  0.51588  0.44279  0.51684  1.0000
  C   C1535     1.0  0.85010  0.44125  0.52248  1.0000
  S   S408      1.0  0.66284  0.59119  0.97685  1.0000
  C   C1536     1.0  0.89488  0.60267  0.82262  1.0000
  C   C1537     1.0  0.61011  0.55824  0.52840  1.0000
  C   C1538     1.0  0.74732  0.59390  0.89470  1.0000
  Fe  Fe206     1.0  0.71270  0.57808  0.85778  1.0000
  H   H1838     1.0  0.89324  0.60439  0.80446  1.0000
  S   S409      1.0  0.70363  0.56123  0.88852  1.0000
  Fe  Fe207     1.0  0.72679  0.57254  0.80994  1.0000
  C   C1539     1.0  0.82577  0.60762  0.87536  1.0000
  S   S410      1.0  0.73310  0.55349  0.78063  1.0000
  H   H1839     1.0  0.87705  0.53095  0.79170  1.0000
  C   C1540     1.0  0.85338  0.42179  0.55656  1.0000
  C   C1541     1.0  0.86387  0.43429  0.59068  1.0000
  S   S411      1.0  0.74152  0.57194  0.84238  1.0000
  S   S412      1.0  0.69806  0.57593  0.82572  1.0000
  H   H1840     1.0  0.81941  0.57843  0.87246  1.0000
  H   H1841     1.0  0.56641  0.47972  0.57139  1.0000
  H   H1842     1.0  0.66556  0.50669  0.54592  1.0000
  H   H1843     1.0  0.65124  0.42001  0.69597  1.0000
  Fe  Fe208     1.0  0.61919  0.47263  0.53397  1.0000
  S   S413      1.0  0.62383  0.44951  0.55953  1.0000
  S   S414      1.0  0.59878  0.49636  0.54470  1.0000
  Fe  Fe209     1.0  0.61812  0.42995  0.53241  1.0000
  Fe  Fe210     1.0  0.65370  0.44775  0.54701  1.0000
  S   S415      1.0  0.67944  0.44588  0.56851  1.0000
  C   C1542     1.0  0.77338  0.59317  0.91950  1.0000
  Fe  Fe211     1.0  0.70417  0.43468  0.69763  1.0000
  S   S416      1.0  0.68058  0.44213  0.67375  1.0000
  Fe  Fe212     1.0  0.71579  0.44736  0.74309  1.0000
  C   C1543     1.0  0.55253  0.47556  0.56566  1.0000
  S   S417      1.0  0.71189  0.46764  0.77176  1.0000
  H   H1844     1.0  0.95705  0.44495  0.66561  1.0000
  H   H1845     1.0  0.91016  0.60230  0.82593  1.0000
  S   S418      1.0  0.72666  0.45336  0.70852  1.0000
  S   S419      1.0  0.69183  0.43075  0.73216  1.0000
  H   H1846     1.0  0.74681  0.58762  0.95053  1.0000
  H   H1847     1.0  0.57367  0.44462  0.57905  1.0000
  S   S420      1.0  0.89703  0.60011  0.91092  1.0000
  H   H1848     1.0  0.78911  0.56581  0.92278  1.0000
  H   H1849     1.0  0.57200  0.44313  0.53096  1.0000
  H   H1850     1.0  0.73909  0.60796  0.93423  1.0000
  H   H1851     1.0  0.65528  0.58577  0.83454  1.0000
  N   N103      1.0  0.75452  0.58614  0.91597  1.0000
  S   S421      1.0  0.97673  0.52977  0.81972  1.0000
  C   C1544     1.0  0.80713  0.58819  0.92618  1.0000
  C   C1545     1.0  0.56655  0.51774  0.00558  1.0000
  C   C1546     1.0  0.53337  0.44734  0.52443  1.0000
  C   C1547     1.0  0.94911  0.58413  0.85077  1.0000
  C   C1548     1.0  0.96157  0.58540  0.83225  1.0000
  C   C1549     1.0  0.97026  0.56908  0.82265  1.0000
  C   C1550     1.0  0.96661  0.55109  0.83139  1.0000
  C   C1551     1.0  0.95417  0.54980  0.84994  1.0000
  C   C1552     1.0  0.94555  0.56613  0.85960  1.0000
  N   N104      1.0  0.88560  0.58562  0.83153  1.0000
  H   H1852     1.0  0.97972  0.57045  0.80842  1.0000
  H   H1853     1.0  0.95111  0.53604  0.85688  1.0000
  H   H1854     1.0  0.93609  0.56476  0.87382  1.0000
  C   C1553     1.0  0.94588  0.43952  0.69845  1.0000
  C   C1554     1.0  0.94749  0.44393  0.72087  1.0000
  C   C1555     1.0  0.96088  0.45655  0.72765  1.0000
  C   C1556     1.0  0.97294  0.46515  0.71208  1.0000
  C   C1557     1.0  0.97133  0.46074  0.68965  1.0000
  C   C1558     1.0  0.95802  0.44804  0.68289  1.0000
  H   H1855     1.0  0.93828  0.43752  0.73316  1.0000
  H   H1856     1.0  0.96179  0.45967  0.74494  1.0000
  H   H1857     1.0  0.98045  0.46723  0.67734  1.0000
  H   H1858     1.0  0.51986  0.45534  0.57815  1.0000
  H   H1859     1.0  0.63041  0.59494  0.73109  1.0000
  S   S422      1.0  0.64868  0.42616  0.52149  1.0000
  S   S423      1.0  0.64961  0.47259  0.52330  1.0000
  H   H1860     1.0  0.81623  0.43440  0.70529  1.0000
  C   C1559     1.0  0.99468  0.50144  0.87739  1.0000
  C   C1560     1.0  0.83230  0.42374  0.58878  1.0000
  C   C1561     1.0  0.68058  0.44198  0.64449  1.0000
  C   C1562     1.0  0.69706  0.43900  0.63166  1.0000
  C   C1563     1.0  0.69642  0.44000  0.60840  1.0000
  C   C1564     1.0  0.67930  0.44365  0.59777  1.0000
  C   C1565     1.0  0.66275  0.44611  0.61064  1.0000
  C   C1566     1.0  0.66343  0.44543  0.63386  1.0000
  H   H1861     1.0  0.71034  0.43635  0.63962  1.0000
  S   S424      1.0  0.62394  0.55693  0.00309  1.0000
  H   H1862     1.0  0.83071  0.42186  0.60712  1.0000
  C   C1567     1.0  0.60336  0.52002  0.53784  1.0000
  C   C1568     1.0  0.58992  0.53426  0.54371  1.0000
  C   C1569     1.0  0.59321  0.55331  0.53889  1.0000
  H   H1863     1.0  0.57691  0.53057  0.55210  1.0000
  H   H1864     1.0  0.58278  0.56420  0.54354  1.0000
  C   C1570     1.0  0.72574  0.53009  0.77811  1.0000
  C   C1571     1.0  0.72804  0.52140  0.75756  1.0000
  C   C1572     1.0  0.72342  0.50249  0.75512  1.0000
  C   C1573     1.0  0.71682  0.49191  0.77338  1.0000
  C   C1574     1.0  0.71427  0.50070  0.79385  1.0000
  C   C1575     1.0  0.71859  0.51971  0.79621  1.0000
  H   H1865     1.0  0.73350  0.52933  0.74345  1.0000
  H   H1866     1.0  0.72498  0.49616  0.73912  1.0000
  H   H1867     1.0  0.70908  0.49270  0.80805  1.0000
  H   H1868     1.0  0.71679  0.52617  0.81213  1.0000
  H   H1869     1.0  0.64845  0.55353  0.88146  1.0000
  C   C1576     1.0  0.74140  0.59236  0.93414  1.0000
  H   H1870     1.0  0.69623  0.59944  0.90527  1.0000
  H   H1871     1.0  0.92208  0.57297  0.82300  1.0000
  H   H1872     1.0  0.78768  0.58527  0.85733  1.0000
  S   S425      1.0  0.93785  0.60539  0.86130  1.0000
  C   C1577     1.0  0.63308  0.58645  0.92922  1.0000
  C   C1578     1.0  0.65161  0.52460  0.58068  1.0000
  H   H1873     1.0  0.99412  0.46170  0.88981  1.0000
  H   H1874     1.0  0.73988  0.56049  0.91224  1.0000
  Fe  Fe213     1.0  0.99798  0.51980  0.79206  1.0000
  Fe  Fe214     1.0  0.65130  0.57152  0.00392  1.0000
  C   C1579     1.0  0.67503  0.58264  0.95292  1.0000
  C   C1580     1.0  0.67765  0.56332  0.94924  1.0000
  C   C1581     1.0  0.68655  0.55705  0.92950  1.0000
  C   C1582     1.0  0.69298  0.56998  0.91329  1.0000
  C   C1583     1.0  0.69089  0.58931  0.91727  1.0000
  C   C1584     1.0  0.68185  0.59559  0.93693  1.0000
  H   H1875     1.0  0.67250  0.55320  0.96142  1.0000
  H   H1876     1.0  0.68821  0.54207  0.92667  1.0000
  H   H1877     1.0  0.81946  0.57875  0.92804  1.0000
  H   H1878     1.0  0.67779  0.59212  0.87459  1.0000
  C   C1585     1.0  0.90603  0.53634  0.79617  1.0000
  H   H1879     1.0  0.85902  0.44905  0.58659  1.0000
  H   H1880     1.0  0.66388  0.56849  0.85407  1.0000
  C   C1586     1.0  0.62017  0.52490  0.52709  1.0000
  C   C1587     1.0  0.81432  0.59292  0.86990  1.0000
  H   H1881     1.0  0.63053  0.51401  0.52230  1.0000
  H   H1882     1.0  0.68843  0.48474  0.66000  1.0000
  S   S426      1.0  0.73447  0.42112  0.74797  1.0000
  H   H1883     1.0  0.67730  0.48734  0.55990  1.0000
  H   H1884     1.0  0.72730  0.58649  0.93272  1.0000
  H   H1885     1.0  0.65598  0.49844  0.65812  1.0000
  H   H1886     1.0  0.75738  0.59043  0.88080  1.0000
  H   H1887     1.0  0.70767  0.48018  0.62580  1.0000
  C   C1588     1.0  0.63912  0.55540  0.91480  1.0000
  C   C1589     1.0  0.64313  0.58323  0.89023  1.0000
  H   H1888     1.0  0.70929  0.43806  0.59858  1.0000
  H   H1889     1.0  0.77383  0.48728  0.72489  1.0000
  C   C1590     1.0  0.80914  0.60760  0.92619  1.0000
  H   H1890     1.0  0.68468  0.51114  0.56318  1.0000
  H   H1891     1.0  0.63194  0.49390  0.59084  1.0000
  H   H1892     1.0  0.78590  0.45083  0.78068  1.0000
  H   H1893     1.0  0.55224  0.53317  0.51621  1.0000
  C   C1591     1.0  0.78955  0.58097  0.92292  1.0000
  C   C1592     1.0  0.67343  0.59970  0.75152  1.0000
  C   C1593     1.0  0.68280  0.48929  0.64416  1.0000
  H   H1894     1.0  0.63640  0.49549  0.56180  1.0000
  C   C1594     1.0  0.67229  0.50238  0.56176  1.0000
  Fe  Fe215     1.0  0.70114  0.60729  0.82136  1.0000
  Fe  Fe216     1.0  0.74215  0.60346  0.83784  1.0000
  H   H1895     1.0  0.69511  0.48846  0.58999  1.0000
  H   H1896     1.0  0.55447  0.49062  0.00830  1.0000
  C   C1595     1.0  0.64321  0.49230  0.57784  1.0000
  H   H1897     1.0  0.54498  0.44649  0.51256  1.0000
  C   C1596     1.0  0.88673  0.54035  0.79855  1.0000
  C   C1597     1.0  0.61918  0.47042  0.00818  1.0000
  C   C1598     1.0  0.65676  0.59156  0.74656  1.0000
  H   H1898     1.0  0.00222  0.50851  0.89040  1.0000
  C   C1599     1.0  0.53558  0.45223  0.54678  1.0000
  S   S427      1.0  0.99007  0.48158  0.71942  1.0000
  H   H1899     1.0  0.86476  0.55846  0.81133  1.0000
  H   H1900     1.0  0.91134  0.52392  0.78753  1.0000
  C   C1600     1.0  0.75923  0.46217  0.75290  1.0000
  H   H1901     1.0  0.56022  0.42790  0.56577  1.0000
  C   C1601     1.0  0.51924  0.45216  0.56088  1.0000
  C   C1602     1.0  0.99720  0.48040  0.84680  1.0000
  H   H1902     1.0  0.82690  0.43832  0.58459  1.0000
  H   H1903     1.0  0.58978  0.58699  0.00596  1.0000
  H   H1904     1.0  0.54273  0.47612  0.58027  1.0000
  C   C1603     1.0  0.89049  0.58249  0.85498  1.0000
  S   S428      1.0  0.92843  0.42346  0.69100  1.0000
  H   H1905     1.0  0.58293  0.46035  0.54576  1.0000
  H   H1906     1.0  0.76379  0.46991  0.79877  1.0000
  H   H1907     1.0  0.64250  0.50755  0.62253  1.0000
  H   H1908     1.0  0.78641  0.46512  0.72226  1.0000
  H   H1909     1.0  0.64593  0.52903  0.56427  1.0000
  C   C1604     1.0  0.77384  0.48735  0.77092  1.0000
  C   C1605     1.0  0.63370  0.56693  0.93231  1.0000
  C   C1606     1.0  0.79101  0.45742  0.76488  1.0000
  H   H1910     1.0  0.73357  0.58815  0.89101  1.0000
  C   C1607     1.0  0.55950  0.44229  0.57269  1.0000
  C   C1608     1.0  0.81387  0.42308  0.69430  1.0000
  H   H1911     1.0  0.84330  0.41932  0.68443  1.0000
  C   C1609     1.0  0.65691  0.50207  0.62257  1.0000
  C   C1610     1.0  0.56113  0.59694  0.00032  1.0000
  H   H1912     1.0  0.64828  0.47720  0.57806  1.0000
  S   S429      1.0  0.61474  0.58206  0.52262  1.0000
  N   N105      1.0  0.65898  0.50465  0.58102  1.0000
  H   H1913     1.0  0.63661  0.54775  0.51426  1.0000
  C   C1611     1.0  0.85637  0.42601  0.50979  1.0000
  H   H1914     1.0  0.63064  0.56076  0.94856  1.0000
  C   C1612     1.0  0.76333  0.49869  0.80746  1.0000
  C   C1613     1.0  0.77697  0.50643  0.76453  1.0000
  C   C1614     1.0  0.79622  0.59675  0.86144  1.0000
  H   H1915     1.0  0.66283  0.53430  0.58436  1.0000
  C   C1615     1.0  0.91394  0.41119  0.53181  1.0000
  Fe  Fe217     1.0  0.74462  0.42624  0.71268  1.0000
  H   H1916     1.0  0.77495  0.53561  0.77388  1.0000
  N   N106      1.0  0.55394  0.45671  0.55559  1.0000
  H   H1917     1.0  0.64017  0.54022  0.91754  1.0000
  H   H1918     1.0  0.54948  0.44212  0.58711  1.0000
  H   H1919     1.0  0.76293  0.52872  0.81164  1.0000
  H   H1920     1.0  0.63909  0.57031  0.84818  1.0000
  H   H1921     1.0  0.79409  0.44558  0.75337  1.0000
  C   C1616     1.0  0.78415  0.47740  0.73327  1.0000
  C   C1617     1.0  0.69363  0.48673  0.62485  1.0000
  S   S430      1.0  0.84814  0.60174  0.88698  1.0000
  H   H1922     1.0  0.86374  0.43302  0.60906  1.0000
  Fe  Fe218     1.0  0.59057  0.60323  0.52941  1.0000
  C   C1618     1.0  0.91855  0.54827  0.80506  1.0000
  C   C1619     1.0  0.76650  0.51720  0.80066  1.0000
  N   N107      1.0  0.64836  0.59219  0.86861  1.0000
  H   H1923     1.0  0.74832  0.47220  0.74609  1.0000
  H   H1924     1.0  0.78174  0.51055  0.74809  1.0000
  C   C1620     1.0  0.89227  0.56886  0.81897  1.0000
  H   H1925     1.0  0.76109  0.45033  0.74137  1.0000
  H   H1926     1.0  0.58053  0.51192  0.00139  1.0000
  H   H1927     1.0  0.56375  0.60008  0.98293  1.0000
  H   H1928     1.0  0.79788  0.48411  0.73393  1.0000
  C   C1621     1.0  0.86495  0.58970  0.83087  1.0000
  S   S431      1.0  0.89315  0.41774  0.63954  1.0000
  C   C1622     1.0  0.55178  0.50579  0.00927  1.0000
  C   C1623     1.0  0.66755  0.49965  0.60251  1.0000
  C   C1624     1.0  0.66587  0.60225  0.87080  1.0000
  H   H1929     1.0  0.80449  0.46400  0.76799  1.0000
  C   C1625     1.0  0.82929  0.41455  0.68247  1.0000
  C   C1626     1.0  0.56937  0.45707  0.53854  1.0000
  S   S432      1.0  0.52680  0.59132  0.56123  1.0000
  H   H1930     1.0  0.98656  0.47124  0.85463  1.0000
  C   C1627     1.0  0.66447  0.49692  0.64303  1.0000
  H   H1931     1.0  0.65061  0.44765  0.64367  1.0000
  C   C1628     1.0  0.68618  0.49165  0.60426  1.0000
  H   H1932     1.0  0.86020  0.59182  0.81362  1.0000
  H   H1933     1.0  0.96450  0.59917  0.82519  1.0000
  H   H1934     1.0  0.63005  0.46508  0.99679  1.0000
  H   H1935     1.0  0.63977  0.52711  0.59278  1.0000
  C   C1629     1.0  0.64385  0.56333  0.89404  1.0000
  H   H1936     1.0  0.84361  0.45143  0.55463  1.0000
  H   H1937     1.0  0.64946  0.44874  0.60274  1.0000
  H   H1938     1.0  0.75862  0.55833  0.93110  1.0000
  C   C1630     1.0  0.56341  0.53713  0.00761  1.0000
  H   H1939     1.0  0.75333  0.45616  0.76864  1.0000
  N   N108      1.0  0.77708  0.47152  0.75566  1.0000
  H   H1940     1.0  0.75741  0.49584  0.82386  1.0000
  C   C1631     1.0  0.87984  0.55631  0.80986  1.0000
  C   C1632     1.0  0.77332  0.52105  0.77928  1.0000
  C   C1633     1.0  0.76695  0.48395  0.79288  1.0000
  C   C1634     1.0  0.62357  0.54400  0.52249  1.0000
  H   H1941     1.0  0.54765  0.48665  0.55344  1.0000
  C   C1635     1.0  0.84852  0.43920  0.54551  1.0000
  C   C1636     1.0  0.75426  0.56524  0.91521  1.0000
  C   C1637     1.0  0.64316  0.60182  0.73436  1.0000
  S   S433      1.0  0.77663  0.42874  0.70738  1.0000
  H   H1942     1.0  0.85697  0.57834  0.83937  1.0000
  H   H1943     1.0  0.91906  0.42508  0.53402  1.0000
  H   H1944     1.0  0.88414  0.56961  0.86225  1.0000
  H   H1945     1.0  0.84660  0.45476  0.51442  1.0000
  S   S434      1.0  0.72945  0.60391  0.80392  1.0000
  H   H1946     1.0  0.62131  0.60725  0.69762  1.0000
  C   C1638     1.0  0.91181  0.56428  0.81626  1.0000
  H   H1947     1.0  0.98387  0.49276  0.88573  1.0000
  S   S435      1.0  0.00089  0.52640  0.75519  1.0000
  S   S436      1.0  0.99731  0.48836  0.78680  1.0000
  H   H1948     1.0  0.62965  0.59533  0.94322  1.0000
  H   H1949     1.0  0.51441  0.56870  0.00534  1.0000
  C   C1639     1.0  0.63329  0.60604  0.86144  1.0000
  C   C1640     1.0  0.63778  0.59454  0.90857  1.0000
  H   H1950     1.0  0.93359  0.54504  0.80343  1.0000
  S   S437      1.0  0.57651  0.60804  0.56260  1.0000
  H   H1951     1.0  0.63278  0.41571  0.91310  1.0000
  H   H1952     1.0  0.68386  0.59186  0.76129  1.0000
  C   C1641     1.0  0.65171  0.57852  0.85063  1.0000
  H   H1953     1.0  0.88527  0.59452  0.86518  1.0000
  C   C1642     1.0  0.52635  0.55004  0.51804  1.0000
  S   S438      1.0  0.56380  0.60076  0.51156  1.0000
  H   H1954     1.0  0.90592  0.58090  0.85712  1.0000
  S   S439      1.0  0.63906  0.50245  0.00769  1.0000
  H   H1955     1.0  0.76349  0.55967  0.90145  1.0000
  S   S440      1.0  0.55482  0.41121  0.00024  1.0000
  H   H1956     1.0  0.53213  0.56076  0.52791  1.0000
  H   H1957     1.0  0.61954  0.59930  0.86104  1.0000
  H   H1958     1.0  0.65436  0.57726  0.75239  1.0000
  H   H1959     1.0  0.56650  0.46798  0.52533  1.0000
  C   C1643     1.0  0.53765  0.53449  0.51152  1.0000
  H   H1960     1.0  0.60341  0.44524  0.00790  1.0000
  H   H1961     1.0  0.86054  0.60280  0.83981  1.0000
  H   H1962     1.0  0.98939  0.49069  0.83576  1.0000
  Fe  Fe219     1.0  0.00210  0.49465  0.75049  1.0000
  N   N109      1.0  0.85209  0.42017  0.58102  1.0000
  Fe  Fe220     1.0  0.54965  0.60791  0.54408  1.0000
  H   H1963     1.0  0.82290  0.41380  0.58127  1.0000
  H   H1964     1.0  0.87878  0.43245  0.58464  1.0000
  C   C1644     1.0  0.79546  0.41714  0.69207  1.0000
  H   H1965     1.0  0.57506  0.54636  0.00532  1.0000
  H   H1966     1.0  0.98687  0.51266  0.86755  1.0000
  C   C1645     1.0  0.50756  0.55186  0.51202  1.0000
  H   H1967     1.0  0.50627  0.55066  0.98837  1.0000
  C   C1646     1.0  0.67821  0.68080  0.35559  1.0000
  S   S441      1.0  0.55613  0.64470  0.47189  1.0000
  Fe  Fe221     1.0  0.57385  0.71201  0.32718  1.0000
  S   S442      1.0  0.59765  0.72470  0.30768  1.0000
  S   S443      1.0  0.54306  0.71955  0.31919  1.0000
  Fe  Fe222     1.0  0.60012  0.69532  0.36236  1.0000
  S   S444      1.0  0.62561  0.70716  0.34492  1.0000
  S   S445      1.0  0.60773  0.67899  0.39413  1.0000
  Fe  Fe223     1.0  0.60789  0.73406  0.34022  1.0000
  S   S446      1.0  0.62119  0.76303  0.33982  1.0000
  Fe  Fe224     1.0  0.61384  0.69692  0.31382  1.0000
  S   S447      1.0  0.63181  0.68616  0.28406  1.0000
  S   S448      1.0  0.58321  0.72294  0.35969  1.0000
  S   S449      1.0  0.58916  0.68345  0.33127  1.0000
  H   H1968     1.0  0.59583  0.65402  0.46948  1.0000
  Fe  Fe225     1.0  0.91873  0.61022  0.15024  1.0000
  H   H1969     1.0  0.61564  0.66642  0.43836  1.0000
  Fe  Fe226     1.0  0.92964  0.78416  0.21047  1.0000
  S   S450      1.0  0.95583  0.79307  0.19175  1.0000
  S   S451      1.0  0.91089  0.75901  0.20630  1.0000
  C   C1647     1.0  0.53127  0.64637  0.03482  1.0000
  H   H1970     1.0  0.51581  0.63874  0.13088  1.0000
  H   H1971     1.0  0.74738  0.62958  0.12050  1.0000
  S   S452      1.0  0.94098  0.78975  0.24401  1.0000
  C   C1648     1.0  0.58242  0.78072  0.30372  1.0000
  Fe  Fe227     1.0  0.87706  0.62277  0.15763  1.0000
  Fe  Fe228     1.0  0.90719  0.65255  0.15111  1.0000
  S   S453      1.0  0.92361  0.63459  0.12611  1.0000
  S   S454      1.0  0.92310  0.67895  0.15918  1.0000
  Fe  Fe229     1.0  0.89579  0.62922  0.11119  1.0000
  S   S455      1.0  0.88536  0.63114  0.07503  1.0000
  S   S456      1.0  0.87946  0.64855  0.13502  1.0000
  S   S457      1.0  0.90359  0.62818  0.17558  1.0000
  N   N110      1.0  0.96500  0.64187  0.18885  1.0000
  C   C1649     1.0  0.94647  0.64306  0.20076  1.0000
  C   C1650     1.0  0.89234  0.62700  0.04661  1.0000
  S   S458      1.0  0.71064  0.61410  0.20544  1.0000
  H   H1972     1.0  0.94747  0.64764  0.21803  1.0000
  H   H1973     1.0  0.50640  0.80199  0.28974  1.0000
  C   C1651     1.0  0.91463  0.73684  0.19299  1.0000
  C   C1652     1.0  0.89976  0.72446  0.19279  1.0000
  C   C1653     1.0  0.90198  0.70678  0.18254  1.0000
  C   C1654     1.0  0.91918  0.70117  0.17230  1.0000
  C   C1655     1.0  0.93406  0.71352  0.17257  1.0000
  C   C1656     1.0  0.93183  0.73121  0.18277  1.0000
  H   H1974     1.0  0.88638  0.72857  0.20059  1.0000
  H   H1975     1.0  0.89038  0.69754  0.18254  1.0000
  H   H1976     1.0  0.94743  0.70945  0.16470  1.0000
  H   H1977     1.0  0.94342  0.74048  0.18272  1.0000
  C   C1657     1.0  0.69611  0.61421  0.11754  1.0000
  H   H1978     1.0  0.97499  0.66526  0.20659  1.0000
  C   C1658     1.0  0.79805  0.62976  0.17161  1.0000
  C   C1659     1.0  0.81786  0.62776  0.16924  1.0000
  H   H1979     1.0  0.79069  0.64191  0.16415  1.0000
  H   H1980     1.0  0.82554  0.63845  0.16027  1.0000
  C   C1660     1.0  0.52974  0.71449  0.29587  1.0000
  C   C1661     1.0  0.53725  0.70359  0.27856  1.0000
  C   C1662     1.0  0.52015  0.64737  0.05423  1.0000
  N   N111      1.0  0.51543  0.64322  0.09543  1.0000
  H   H1981     1.0  0.55158  0.69784  0.27921  1.0000
  H   H1982     1.0  0.85782  0.79464  0.22454  1.0000
  H   H1983     1.0  0.56745  0.75124  0.32562  1.0000
  C   C1663     1.0  0.61869  0.78354  0.35643  1.0000
  C   C1664     1.0  0.60598  0.78496  0.37451  1.0000
  C   C1665     1.0  0.90851  0.67645  0.02901  1.0000
  C   C1666     1.0  0.52537  0.63760  0.11598  1.0000
  H   H1984     1.0  0.62867  0.62027  0.38521  1.0000
  H   H1985     1.0  0.59746  0.77321  0.37912  1.0000
  H   H1986     1.0  0.72876  0.62393  0.15491  1.0000
  H   H1987     1.0  0.86596  0.63842  0.03428  1.0000
  C   C1667     1.0  0.64908  0.66723  0.28093  1.0000
  C   C1668     1.0  0.65332  0.65414  0.29800  1.0000
  C   C1669     1.0  0.66688  0.63921  0.29446  1.0000
  C   C1670     1.0  0.67642  0.63711  0.27386  1.0000
  C   C1671     1.0  0.67241  0.65044  0.25692  1.0000
  C   C1672     1.0  0.65878  0.66529  0.26042  1.0000
  H   H1988     1.0  0.64605  0.65542  0.31389  1.0000
  C   C1673     1.0  0.61320  0.63879  0.27770  1.0000
  H   H1989     1.0  0.67990  0.64938  0.24116  1.0000
  H   H1990     1.0  0.65571  0.67533  0.24708  1.0000
  C   C1674     1.0  0.57032  0.65619  0.45141  1.0000
  C   C1675     1.0  0.56221  0.66266  0.43151  1.0000
  C   C1676     1.0  0.57329  0.67042  0.41410  1.0000
  C   C1677     1.0  0.59269  0.67148  0.41630  1.0000
  C   C1678     1.0  0.60069  0.66545  0.43640  1.0000
  C   C1679     1.0  0.58953  0.65818  0.45400  1.0000
  H   H1991     1.0  0.54732  0.66137  0.42941  1.0000
  H   H1992     1.0  0.56693  0.67503  0.39876  1.0000
  H   H1993     1.0  0.52513  0.64976  0.01893  1.0000
  H   H1994     1.0  0.88126  0.78558  0.21992  1.0000
  C   C1680     1.0  0.51106  0.72188  0.29462  1.0000
  H   H1995     1.0  0.98769  0.66007  0.18123  1.0000
  C   C1681     1.0  0.56591  0.76500  0.33386  1.0000
  H   H1996     1.0  0.90287  0.69911  0.05137  1.0000
  C   C1682     1.0  0.52763  0.64225  0.07516  1.0000
  H   H1997     1.0  0.62474  0.64071  0.22319  1.0000
  H   H1998     1.0  0.51891  0.67289  0.09929  1.0000
  H   H1999     1.0  0.95833  0.79458  0.02248  1.0000
  H   H2000     1.0  0.90767  0.66552  0.04192  1.0000
  H   H2001     1.0  0.59459  0.80247  0.40082  1.0000
  N   N112      1.0  0.56496  0.78117  0.31779  1.0000
  H   H2002     1.0  0.59711  0.63396  0.37667  1.0000
  C   C1683     1.0  0.56452  0.79872  0.33062  1.0000
  C   C1684     1.0  0.52617  0.70000  0.26040  1.0000
  H   H2003     1.0  0.53284  0.80583  0.31317  1.0000
  H   H2004     1.0  0.88454  0.80812  0.29072  1.0000
  C   C1685     1.0  0.84152  0.62268  0.11431  1.0000
  Fe  Fe230     1.0  0.96633  0.80040  0.22522  1.0000
  H   H2005     1.0  0.66990  0.62910  0.30775  1.0000
  C   C1686     1.0  0.61416  0.64538  0.25584  1.0000
  C   C1687     1.0  0.70643  0.61729  0.09735  1.0000
  H   H2006     1.0  0.60614  0.64745  0.29021  1.0000
  C   C1688     1.0  0.70093  0.63099  0.06059  1.0000
  H   H2007     1.0  0.59155  0.61988  0.47239  1.0000
  H   H2008     1.0  0.67009  0.61776  0.23319  1.0000
  C   C1689     1.0  0.54729  0.76391  0.29004  1.0000
  C   C1690     1.0  0.67998  0.68930  0.31657  1.0000
  H   H2009     1.0  0.95433  0.62475  0.16367  1.0000
  H   H2010     1.0  0.68271  0.74604  0.32219  1.0000
  H   H2011     1.0  0.55854  0.63903  0.02044  1.0000
  H   H2012     1.0  0.59499  0.78338  0.31339  1.0000
  S   S459      1.0  0.99769  0.79387  0.23033  1.0000
  C   C1691     1.0  0.96157  0.63815  0.16535  1.0000
  H   H2013     1.0  0.66800  0.72751  0.34807  1.0000
  H   H2014     1.0  0.53214  0.69145  0.24719  1.0000
  C   C1692     1.0  0.59924  0.62588  0.39195  1.0000
  H   H2015     1.0  0.68238  0.68421  0.30005  1.0000
  H   H2016     1.0  0.69614  0.61394  0.15317  1.0000
  H   H2017     1.0  0.64311  0.72067  0.30178  1.0000
  H   H2018     1.0  0.86503  0.76333  0.27372  1.0000
  Fe  Fe231     1.0  0.56506  0.63218  0.50532  1.0000
  C   C1693     1.0  0.54692  0.63597  0.07537  1.0000
  H   H2019     1.0  0.58542  0.76679  0.29612  1.0000
  H   H2020     1.0  0.68552  0.74936  0.29307  1.0000
  C   C1694     1.0  0.53194  0.76209  0.27662  1.0000
  H   H2021     1.0  0.70082  0.73253  0.30751  1.0000
  H   H2022     1.0  0.71588  0.63369  0.05662  1.0000
  H   H2023     1.0  0.65597  0.63114  0.21378  1.0000
  H   H2024     1.0  0.64971  0.73855  0.31981  1.0000
  H   H2025     1.0  0.97488  0.63747  0.15521  1.0000
  H   H2026     1.0  0.73416  0.62470  0.08447  1.0000
  C   C1695     1.0  0.98490  0.61095  0.18860  1.0000
  H   H2027     1.0  0.83012  0.63390  0.11544  1.0000
  C   C1696     1.0  0.67832  0.61038  0.07639  1.0000
  H   H2028     1.0  0.53088  0.62264  0.11561  1.0000
  H   H2029     1.0  0.97659  0.64051  0.23176  1.0000
  H   H2030     1.0  0.69140  0.70996  0.27871  1.0000
  C   C1697     1.0  0.90648  0.70933  0.01769  1.0000
  H   H2031     1.0  0.53720  0.64685  0.11865  1.0000
  H   H2032     1.0  0.67504  0.72750  0.26772  1.0000
  H   H2033     1.0  0.61575  0.62499  0.46727  1.0000
  C   C1698     1.0  0.55792  0.63510  0.05582  1.0000
  H   H2034     1.0  0.93994  0.62915  0.20132  1.0000
  H   H2035     1.0  0.62188  0.61682  0.30080  1.0000
  C   C1699     1.0  0.00431  0.80721  0.27215  1.0000
  H   H2036     1.0  0.87330  0.75844  0.24595  1.0000
  H   H2037     1.0  0.89494  0.77952  0.27710  1.0000
  H   H2038     1.0  0.96465  0.67175  0.18091  1.0000
  H   H2039     1.0  0.95237  0.64951  0.15763  1.0000
  C   C1700     1.0  0.87218  0.79462  0.23109  1.0000
  C   C1701     1.0  0.55013  0.64035  0.03563  1.0000
  C   C1702     1.0  0.67506  0.70854  0.32093  1.0000
  C   C1703     1.0  0.68608  0.73843  0.30665  1.0000
  H   H2040     1.0  0.57813  0.76560  0.34480  1.0000
  C   C1704     1.0  0.97349  0.66050  0.18947  1.0000
  H   H2041     1.0  0.69430  0.62929  0.04439  1.0000
  C   C1705     1.0  0.86198  0.80107  0.26883  1.0000
  C   C1706     1.0  0.70414  0.61671  0.13797  1.0000
  H   H2042     1.0  0.66682  0.70519  0.27669  1.0000
  C   C1707     1.0  0.62972  0.79904  0.35096  1.0000
  C   C1708     1.0  0.87961  0.63208  0.02979  1.0000
  H   H2043     1.0  0.63960  0.79821  0.33703  1.0000
  C   C1709     1.0  0.90574  0.69534  0.03432  1.0000
  H   H2044     1.0  0.57059  0.63017  0.40342  1.0000
  H   H2045     1.0  0.93651  0.65346  0.19262  1.0000
  H   H2046     1.0  0.90105  0.77545  0.24883  1.0000
  C   C1710     1.0  0.67354  0.69953  0.36045  1.0000
  C   C1711     1.0  0.62212  0.62156  0.28362  1.0000
  C   C1712     1.0  0.63200  0.61078  0.26770  1.0000
  H   H2047     1.0  0.65112  0.74266  0.29068  1.0000
  H   H2048     1.0  0.67903  0.67015  0.36878  1.0000
  C   C1713     1.0  0.98179  0.62860  0.22225  1.0000
  H   H2049     1.0  0.57243  0.62968  0.05618  1.0000
  C   C1714     1.0  0.50755  0.66281  0.09809  1.0000
  H   H2050     1.0  0.66976  0.62204  0.08424  1.0000
  H   H2051     1.0  0.58155  0.79164  0.29017  1.0000
  C   C1715     1.0  0.78767  0.61618  0.18351  1.0000
  H   H2052     1.0  0.55288  0.76455  0.34449  1.0000
  H   H2053     1.0  0.92839  0.60971  0.01314  1.0000
  N   N113      1.0  0.87298  0.78775  0.25445  1.0000
  H   H2054     1.0  0.62743  0.61674  0.19996  1.0000
  H   H2055     1.0  0.90410  0.72401  0.02190  1.0000
  H   H2056     1.0  0.67059  0.70338  0.37746  1.0000
  C   C1716     1.0  0.86501  0.76885  0.25631  1.0000
  H   H2057     1.0  0.55384  0.63134  0.09030  1.0000
  C   C1717     1.0  0.60444  0.80162  0.38687  1.0000
  C   C1718     1.0  0.68155  0.67573  0.33373  1.0000
  H   H2058     1.0  0.84600  0.61921  0.13143  1.0000
  C   C1719     1.0  0.89312  0.78541  0.26003  1.0000
  C   C1720     1.0  0.72254  0.62225  0.13899  1.0000
  H   H2059     1.0  0.68505  0.66109  0.32996  1.0000
  C   C1721     1.0  0.51794  0.79143  0.28980  1.0000
  H   H2060     1.0  0.83562  0.79897  0.25187  1.0000
  C   C1722     1.0  0.62393  0.63470  0.23976  1.0000
  C   C1723     1.0  0.96964  0.80474  0.02013  1.0000
  H   H2061     1.0  0.55805  0.75260  0.28991  1.0000
  N   N114      1.0  0.69866  0.61415  0.07542  1.0000
  H   H2062     1.0  0.57723  0.79933  0.34084  1.0000
  C   C1724     1.0  0.61705  0.61826  0.39689  1.0000
  H   H2063     1.0  0.90014  0.79906  0.25839  1.0000
  C   C1725     1.0  0.54848  0.77965  0.30376  1.0000
  C   C1726     1.0  0.97736  0.62718  0.19967  1.0000
  S   S460      1.0  0.76257  0.61891  0.18476  1.0000
  H   H2064     1.0  0.57541  0.61447  0.43913  1.0000
  H   H2065     1.0  0.85354  0.62907  0.10515  1.0000
  C   C1727     1.0  0.67208  0.71325  0.34345  1.0000
  C   C1728     1.0  0.72524  0.62273  0.09902  1.0000
  N   N115      1.0  0.67293  0.72330  0.30322  1.0000
  C   C1729     1.0  0.67679  0.71612  0.28064  1.0000
  C   C1730     1.0  0.65343  0.73166  0.30392  1.0000
  S   S461      1.0  0.69320  0.61773  0.27039  1.0000
  H   H2066     1.0  0.99813  0.80036  0.18216  1.0000
  C   C1731     1.0  0.58432  0.62377  0.40706  1.0000
  H   H2067     1.0  0.69429  0.64386  0.06822  1.0000
  H   H2068     1.0  0.60785  0.65918  0.25156  1.0000
  H   H2069     1.0  0.85032  0.76903  0.25070  1.0000
  C   C1732     1.0  0.90998  0.61894  0.04026  1.0000
  C   C1733     1.0  0.73304  0.62534  0.11955  1.0000
  H   H2070     1.0  0.98262  0.79671  0.01440  1.0000
  C   C1734     1.0  0.82987  0.61102  0.08068  1.0000
  C   C1735     1.0  0.99265  0.61447  0.23316  1.0000
  C   C1736     1.0  0.51726  0.77578  0.27654  1.0000
  C   C1737     1.0  0.84268  0.80548  0.26495  1.0000
  H   H2071     1.0  0.99550  0.61558  0.25055  1.0000
  C   C1738     1.0  0.53329  0.79344  0.30325  1.0000
  H   H2072     1.0  0.80062  0.62253  0.11190  1.0000
  C   C1739     1.0  0.91469  0.61596  0.01764  1.0000
  H   H2073     1.0  0.81880  0.62259  0.08040  1.0000
  C   C1740     1.0  0.58721  0.61451  0.42744  1.0000
  C   C1741     1.0  0.63303  0.61695  0.24514  1.0000
  H   H2074     1.0  0.53127  0.74976  0.26654  1.0000
  C   C1742     1.0  0.65995  0.61662  0.21983  1.0000
  H   H2075     1.0  0.55221  0.79956  0.34241  1.0000
  C   C1743     1.0  0.50749  0.70734  0.25913  1.0000
  C   C1744     1.0  0.60612  0.61347  0.47161  1.0000
  H   H2076     1.0  0.92002  0.61492  0.05277  1.0000
  C   C1745     1.0  0.82761  0.61210  0.17875  1.0000
  H   H2077     1.0  0.84194  0.61626  0.07041  1.0000
  H   H2078     1.0  0.77462  0.61028  0.13445  1.0000
  H   H2079     1.0  0.66772  0.60942  0.20606  1.0000
  H   H2080     1.0  0.68197  0.60939  0.11812  1.0000
  H   H2081     1.0  0.95531  0.73636  0.80322  1.0000
  Fe  Fe232     1.0  0.58149  0.71080  0.73913  1.0000
  S   S462      1.0  0.60790  0.72722  0.73690  1.0000
  S   S463      1.0  0.56136  0.71776  0.76814  1.0000
  Fe  Fe233     1.0  0.59357  0.68729  0.69921  1.0000
  S   S464      1.0  0.62048  0.70203  0.69405  1.0000
  S   S465      1.0  0.58732  0.66135  0.68006  1.0000
  Fe  Fe234     1.0  0.62312  0.69905  0.73097  1.0000
  S   S466      1.0  0.65248  0.69061  0.74320  1.0000
  Fe  Fe235     1.0  0.60331  0.72900  0.70037  1.0000
  S   S467      1.0  0.60634  0.75437  0.67628  1.0000
  S   S468      1.0  0.59720  0.68263  0.73588  1.0000
  S   S469      1.0  0.57585  0.71426  0.70283  1.0000
  Fe  Fe236     1.0  0.57620  0.63883  0.55302  1.0000
  S   S470      1.0  0.54831  0.63909  0.53651  1.0000
  S   S471      1.0  0.58197  0.66310  0.57516  1.0000
  H   H2082     1.0  0.87436  0.63329  0.99462  1.0000
  H   H2083     1.0  0.61644  0.62937  0.68382  1.0000
  C   C1746     1.0  0.91318  0.68531  0.98971  1.0000
  C   C1747     1.0  0.57320  0.77012  0.75023  1.0000
  C   C1748     1.0  0.98733  0.77481  0.75582  1.0000
  N   N116      1.0  0.97075  0.75957  0.78927  1.0000
  Fe  Fe237     1.0  0.92605  0.78542  0.83910  1.0000
  S   S472      1.0  0.92565  0.75307  0.83624  1.0000
  S   S473      1.0  0.95169  0.79864  0.85169  1.0000
  Fe  Fe238     1.0  0.89563  0.65458  0.90035  1.0000
  S   S474      1.0  0.92091  0.63777  0.91289  1.0000
  S   S475      1.0  0.89484  0.68709  0.90093  1.0000
  H   H2084     1.0  0.95282  0.78290  0.77742  1.0000
  Fe  Fe239     1.0  0.90040  0.62283  0.93589  1.0000
  H   H2085     1.0  0.63723  0.74649  0.70730  1.0000
  S   S476      1.0  0.87513  0.64019  0.92410  1.0000
  S   S477      1.0  0.89138  0.63444  0.87305  1.0000
  H   H2086     1.0  0.55450  0.74155  0.73040  1.0000
  H   H2087     1.0  0.54156  0.66069  0.57775  1.0000
  S   S478      1.0  0.76636  0.62126  0.84809  1.0000
  C   C1749     1.0  0.91004  0.70448  0.99565  1.0000
  C   C1750     1.0  0.91717  0.73497  0.85471  1.0000
  C   C1751     1.0  0.91978  0.71595  0.84873  1.0000
  C   C1752     1.0  0.91319  0.70112  0.86261  1.0000
  C   C1753     1.0  0.90378  0.70511  0.88271  1.0000
  C   C1754     1.0  0.90126  0.72413  0.88874  1.0000
  C   C1755     1.0  0.90792  0.73894  0.87491  1.0000
  H   H2088     1.0  0.92687  0.71262  0.83317  1.0000
  H   H2089     1.0  0.91527  0.68664  0.85765  1.0000
  H   H2090     1.0  0.89395  0.72748  0.90416  1.0000
  H   H2091     1.0  0.90570  0.75345  0.87977  1.0000
  C   C1756     1.0  0.66940  0.80176  0.67705  1.0000
  C   C1757     1.0  0.68356  0.73396  0.70028  1.0000
  C   C1758     1.0  0.53671  0.71510  0.76980  1.0000
  C   C1759     1.0  0.52677  0.71928  0.78965  1.0000
  C   C1760     1.0  0.64587  0.62067  0.72679  1.0000
  C   C1761     1.0  0.52679  0.70941  0.75181  1.0000
  H   H2092     1.0  0.53431  0.72374  0.80364  1.0000
  H   H2093     1.0  0.53424  0.70610  0.73646  1.0000
  C   C1762     1.0  0.61271  0.77820  0.67877  1.0000
  C   C1763     1.0  0.61176  0.79047  0.66008  1.0000
  H   H2094     1.0  0.66472  0.61271  0.88411  1.0000
  C   C1764     1.0  0.77597  0.61288  0.91967  1.0000
  C   C1765     1.0  0.61903  0.78508  0.69846  1.0000
  H   H2095     1.0  0.60692  0.78535  0.64472  1.0000
  H   H2096     1.0  0.52435  0.65047  0.63349  1.0000
  H   H2097     1.0  0.61968  0.77599  0.71308  1.0000
  C   C1766     1.0  0.58626  0.66194  0.65084  1.0000
  C   C1767     1.0  0.58803  0.67873  0.63844  1.0000
  C   C1768     1.0  0.58691  0.67875  0.61527  1.0000
  C   C1769     1.0  0.58413  0.66202  0.60424  1.0000
  C   C1770     1.0  0.58248  0.64519  0.61662  1.0000
  C   C1771     1.0  0.58347  0.64518  0.63984  1.0000
  H   H2098     1.0  0.59017  0.69172  0.64668  1.0000
  H   H2099     1.0  0.58817  0.69183  0.60581  1.0000
  H   H2100     1.0  0.58051  0.63220  0.60830  1.0000
  H   H2101     1.0  0.58213  0.63212  0.64930  1.0000
  C   C1772     1.0  0.95413  0.79805  0.94036  1.0000
  H   H2102     1.0  0.94551  0.67171  0.97200  1.0000
  H   H2103     1.0  0.63158  0.61829  0.87242  1.0000
  H   H2104     1.0  0.82294  0.61308  0.92796  1.0000
  C   C1773     1.0  0.66796  0.64130  0.79212  1.0000
  C   C1774     1.0  0.68190  0.65210  0.78199  1.0000
  C   C1775     1.0  0.67694  0.66715  0.76716  1.0000
  C   C1776     1.0  0.65802  0.67165  0.76229  1.0000
  C   C1777     1.0  0.64409  0.66083  0.77241  1.0000
  C   C1778     1.0  0.64905  0.64579  0.78721  1.0000
  H   H2105     1.0  0.69650  0.64889  0.78563  1.0000
  H   H2106     1.0  0.68786  0.67540  0.75948  1.0000
  H   H2107     1.0  0.62948  0.66419  0.76905  1.0000
  H   H2108     1.0  0.98568  0.76394  0.81909  1.0000
  H   H2109     1.0  0.95086  0.79327  0.92414  1.0000
  H   H2110     1.0  0.93041  0.65210  0.97294  1.0000
  S   S479      1.0  0.90565  0.80625  0.85536  1.0000
  H   H2111     1.0  0.90130  0.66583  0.94200  1.0000
  C   C1779     1.0  0.94636  0.80054  0.97940  1.0000
  C   C1780     1.0  0.00368  0.77787  0.74309  1.0000
  H   H2112     1.0  0.68955  0.62438  0.74833  1.0000
  H   H2113     1.0  0.63813  0.63761  0.79499  1.0000
  H   H2114     1.0  0.91010  0.71595  0.98354  1.0000
  C   C1781     1.0  0.50714  0.71770  0.79160  1.0000
  H   H2115     1.0  0.64971  0.72539  0.71704  1.0000
  H   H2116     1.0  0.79562  0.64459  0.86125  1.0000
  H   H2117     1.0  0.65480  0.76257  0.65421  1.0000
  C   C1782     1.0  0.66249  0.78993  0.66165  1.0000
  H   H2118     1.0  0.66639  0.64281  0.72745  1.0000
  H   H2119     1.0  0.63772  0.60975  0.90731  1.0000
  C   C1783     1.0  0.98768  0.76277  0.77504  1.0000
  H   H2120     1.0  0.52556  0.67595  0.59369  1.0000
  H   H2121     1.0  0.82744  0.63776  0.87615  1.0000
  H   H2122     1.0  0.96067  0.76609  0.82219  1.0000
  H   H2123     1.0  0.64903  0.65061  0.69660  1.0000
  C   C1784     1.0  0.81890  0.62627  0.87203  1.0000
  H   H2124     1.0  0.63649  0.61215  0.84461  1.0000
  H   H2125     1.0  0.56853  0.80296  0.70802  1.0000
  H   H2126     1.0  0.63828  0.65946  0.72198  1.0000
  C   C1785     1.0  0.97268  0.76886  0.81058  1.0000
  C   C1786     1.0  0.94267  0.79365  0.95866  1.0000
  H   H2127     1.0  0.67981  0.80379  0.70965  1.0000
  C   C1787     1.0  0.66670  0.76265  0.68730  1.0000
  H   H2128     1.0  0.53780  0.79687  0.70624  1.0000
  H   H2129     1.0  0.62479  0.65827  0.69788  1.0000
  H   H2130     1.0  0.93659  0.66265  0.94718  1.0000
  S   S480      1.0  0.67321  0.62219  0.81111  1.0000
  Fe  Fe240     1.0  0.91548  0.61639  0.88712  1.0000
  C   C1788     1.0  0.61355  0.63303  0.72825  1.0000
  N   N117      1.0  0.66512  0.74238  0.69332  1.0000
  H   H2131     1.0  0.98001  0.73259  0.80402  1.0000
  N   N118      1.0  0.55045  0.77037  0.71853  1.0000
  C   C1789     1.0  0.54329  0.75297  0.72936  1.0000
  C   C1790     1.0  0.53422  0.78416  0.71636  1.0000
  C   C1791     1.0  0.55780  0.76543  0.69615  1.0000
  C   C1792     1.0  0.56550  0.77873  0.73080  1.0000
  C   C1793     1.0  0.93293  0.66600  0.96470  1.0000
  C   C1794     1.0  0.65885  0.73104  0.67494  1.0000
  N   N119      1.0  0.52144  0.64614  0.59863  1.0000
  H   H2132     1.0  0.53180  0.74710  0.72006  1.0000
  H   H2133     1.0  0.88894  0.61578  0.83036  1.0000
  C   C1795     1.0  0.88436  0.62919  0.00716  1.0000
  H   H2134     1.0  0.51482  0.66740  0.55914  1.0000
  H   H2135     1.0  0.68290  0.71852  0.70409  1.0000
  H   H2136     1.0  0.61610  0.64010  0.74398  1.0000
  C   C1796     1.0  0.59458  0.79533  0.75331  1.0000
  H   H2137     1.0  0.57037  0.75555  0.69723  1.0000
  H   H2138     1.0  0.54721  0.75848  0.68649  1.0000
  H   H2139     1.0  0.56230  0.77792  0.68619  1.0000
  H   H2140     1.0  0.53969  0.62610  0.58151  1.0000
  C   C1797     1.0  0.91215  0.67148  0.00708  1.0000
  C   C1798     1.0  0.80078  0.63010  0.86362  1.0000
  H   H2141     1.0  0.64433  0.73557  0.67000  1.0000
  C   C1799     1.0  0.57317  0.79590  0.72308  1.0000
  H   H2142     1.0  0.54531  0.62889  0.60981  1.0000
  C   C1800     1.0  0.53348  0.62850  0.59831  1.0000
  C   C1801     1.0  0.67360  0.77515  0.70265  1.0000
  H   H2143     1.0  0.52556  0.61579  0.60291  1.0000
  H   H2144     1.0  0.95086  0.76106  0.76311  1.0000
  H   H2145     1.0  0.93709  0.79671  0.99308  1.0000
  H   H2146     1.0  0.52230  0.77796  0.70814  1.0000
  H   H2147     1.0  0.94050  0.76412  0.79025  1.0000
  H   H2148     1.0  0.69461  0.73594  0.68711  1.0000
  H   H2149     1.0  0.96854  0.73131  0.77806  1.0000
  C   C1802     1.0  0.53372  0.66218  0.59385  1.0000
  H   H2150     1.0  0.91390  0.65664  0.00379  1.0000
  C   C1803     1.0  0.67491  0.79440  0.69753  1.0000
  N   N120      1.0  0.63104  0.63134  0.71432  1.0000
  H   H2151     1.0  0.52897  0.78893  0.73290  1.0000
  H   H2152     1.0  0.64006  0.61913  0.68344  1.0000
  C   C1804     1.0  0.62466  0.80384  0.69925  1.0000
  C   C1805     1.0  0.78927  0.61542  0.85830  1.0000
  C   C1806     1.0  0.95302  0.76723  0.77944  1.0000
  C   C1807     1.0  0.90197  0.62103  0.00082  1.0000
  C   C1808     1.0  0.62708  0.62128  0.69398  1.0000
  H   H2153     1.0  0.60775  0.61914  0.73260  1.0000
  H   H2154     1.0  0.89673  0.65733  0.96962  1.0000
  H   H2155     1.0  0.66852  0.73205  0.66020  1.0000
  C   C1809     1.0  0.58756  0.77835  0.76119  1.0000
  H   H2156     1.0  0.93187  0.70370  0.95567  1.0000
  H   H2157     1.0  0.65540  0.74771  0.72692  1.0000
  H   H2158     1.0  0.97472  0.78247  0.75055  1.0000
  H   H2159     1.0  0.60221  0.64148  0.71964  1.0000
  S   S481      1.0  0.59288  0.63426  0.52116  1.0000
  C   C1810     1.0  0.63612  0.65073  0.70743  1.0000
  H   H2160     1.0  0.93066  0.78516  0.95659  1.0000
  C   C1811     1.0  0.66310  0.62850  0.73205  1.0000
  H   H2161     1.0  0.59333  0.77138  0.77584  1.0000
  H   H2162     1.0  0.65838  0.71579  0.67976  1.0000
  H   H2163     1.0  0.67998  0.61055  0.93974  1.0000
  C   C1812     1.0  0.96866  0.73907  0.79374  1.0000
  H   H2164     1.0  0.88678  0.67986  0.96044  1.0000
  H   H2165     1.0  0.53755  0.75556  0.74640  1.0000
  C   C1813     1.0  0.66100  0.77068  0.66662  1.0000
  Fe  Fe241     1.0  0.87295  0.61874  0.89753  1.0000
  N   N121      1.0  0.91639  0.67955  0.96654  1.0000
  C   C1814     1.0  0.91981  0.69558  0.95076  1.0000
  S   S482      1.0  0.90927  0.61765  0.97236  1.0000
  C   C1815     1.0  0.89957  0.67023  0.95942  1.0000
  H   H2166     1.0  0.54468  0.66302  0.60642  1.0000
  H   H2167     1.0  0.56854  0.75692  0.75726  1.0000
  H   H2168     1.0  0.67767  0.77021  0.71893  1.0000
  H   H2169     1.0  0.65756  0.79590  0.64606  1.0000
  H   H2170     1.0  0.00079  0.79903  0.82008  1.0000
  C   C1816     1.0  0.65130  0.74045  0.71196  1.0000
  H   H2171     1.0  0.90710  0.70524  0.94905  1.0000
  C   C1817     1.0  0.51326  0.64849  0.62130  1.0000
  H   H2172     1.0  0.92314  0.69063  0.93370  1.0000
  H   H2173     1.0  0.97306  0.78442  0.80808  1.0000
  H   H2174     1.0  0.00322  0.78752  0.72886  1.0000
  H   H2175     1.0  0.68838  0.74013  0.71562  1.0000
  H   H2176     1.0  0.79539  0.63501  0.92216  1.0000
  H   H2177     1.0  0.51216  0.68335  0.81896  1.0000
  C   C1818     1.0  0.79361  0.61992  0.92287  1.0000
  C   C1819     1.0  0.67664  0.61805  0.74414  1.0000
  C   C1820     1.0  0.50714  0.70797  0.75371  1.0000
  S   S483      1.0  0.92606  0.80279  0.80713  1.0000
  H   H2178     1.0  0.60581  0.80157  0.76174  1.0000
  C   C1821     1.0  0.58733  0.80413  0.73435  1.0000
  H   H2179     1.0  0.76442  0.62304  0.91687  1.0000
  S   S484      1.0  0.71382  0.60953  0.85486  1.0000
  H   H2180     1.0  0.74508  0.60951  0.89438  1.0000
  H   H2181     1.0  0.51146  0.61188  0.52332  1.0000
  S   S485      1.0  0.52524  0.61069  0.99307  1.0000
  C   C1822     1.0  0.50623  0.64497  0.58268  1.0000
  C   C1823     1.0  0.00545  0.75446  0.78088  1.0000
  H   H2182     1.0  0.66979  0.61005  0.85527  1.0000
  C   C1824     1.0  0.64585  0.87815  0.50728  1.0000
  S   S486      1.0  0.97187  0.90425  0.05514  1.0000
  H   H2183     1.0  0.63399  0.85660  0.46426  1.0000
  C   C1825     1.0  0.97776  0.90447  0.49947  1.0000
  N   N122      1.0  0.53186  0.00236  0.36051  1.0000
  C   C1826     1.0  0.97256  0.98895  0.03787  1.0000
  Fe  Fe242     1.0  0.97265  0.87422  0.04432  1.0000
  S   S487      1.0  0.97115  0.84716  0.06546  1.0000
  C   C1827     1.0  0.56976  0.96220  0.39366  1.0000
  Fe  Fe243     1.0  0.88468  0.96142  0.49335  1.0000
  S   S488      1.0  0.86959  0.97041  0.46175  1.0000
  C   C1828     1.0  0.74888  0.98664  0.31743  1.0000
  S   S489      1.0  0.91567  0.96601  0.49428  1.0000
  S   S490      1.0  0.95430  0.83012  0.22336  1.0000
  S   S491      1.0  0.91412  0.83647  0.26783  1.0000
  S   S492      1.0  0.94286  0.84692  0.16632  1.0000
  Fe  Fe244     1.0  0.82994  0.92247  0.35755  1.0000
  S   S493      1.0  0.81215  0.90134  0.34201  1.0000
  S   S494      1.0  0.84021  0.91412  0.39185  1.0000
  Fe  Fe245     1.0  0.82521  0.95106  0.31868  1.0000
  S   S495      1.0  0.80718  0.93191  0.30073  1.0000
  S   S496      1.0  0.83185  0.98170  0.30992  1.0000
  Fe  Fe246     1.0  0.79248  0.92619  0.33376  1.0000
  S   S497      1.0  0.76075  0.93207  0.34018  1.0000
  Fe  Fe247     1.0  0.82850  0.90853  0.31046  1.0000
  S   S498      1.0  0.83788  0.88687  0.28425  1.0000
  S   S499      1.0  0.80949  0.94674  0.35112  1.0000
  S   S500      1.0  0.84746  0.92816  0.32660  1.0000
  Fe  Fe248     1.0  0.62814  0.86581  0.39798  1.0000
  S   S501      1.0  0.61109  0.89025  0.41314  1.0000
  S   S502      1.0  0.61299  0.83770  0.39792  1.0000
  Fe  Fe249     1.0  0.66380  0.88885  0.39467  1.0000
  S   S503      1.0  0.64886  0.91416  0.41020  1.0000
  S   S504      1.0  0.69547  0.88394  0.38626  1.0000
  Fe  Fe250     1.0  0.63580  0.89367  0.43498  1.0000
  S   S505      1.0  0.62954  0.89985  0.47227  1.0000
  Fe  Fe251     1.0  0.62504  0.90895  0.38737  1.0000
  S   S506      1.0  0.61126  0.93567  0.36999  1.0000
  S   S507      1.0  0.65216  0.86868  0.42080  1.0000
  S   S508      1.0  0.64070  0.88432  0.37078  1.0000
  Fe  Fe252     1.0  0.53535  0.99257  0.28423  1.0000
  S   S509      1.0  0.54824  0.96535  0.30100  1.0000
  S   S510      1.0  0.53083  0.99453  0.24727  1.0000
  C   C1829     1.0  0.59417  0.94333  0.34997  1.0000
  C   C1830     1.0  0.59260  0.96260  0.34343  1.0000
  C   C1831     1.0  0.57890  0.96959  0.32842  1.0000
  C   C1832     1.0  0.56632  0.95742  0.31970  1.0000
  C   C1833     1.0  0.56794  0.93814  0.32613  1.0000
  C   C1834     1.0  0.58172  0.93113  0.34105  1.0000
  H   H2184     1.0  0.60208  0.97223  0.35013  1.0000
  H   H2185     1.0  0.57820  0.98436  0.32356  1.0000
  H   H2186     1.0  0.55843  0.92848  0.31955  1.0000
  H   H2187     1.0  0.58263  0.91631  0.34581  1.0000
  H   H2188     1.0  0.74836  0.92014  0.40652  1.0000
  H   H2189     1.0  0.52155  0.98423  0.33614  1.0000
  H   H2190     1.0  0.53222  0.96246  0.36123  1.0000
  H   H2191     1.0  0.88130  0.93753  0.19356  1.0000
  C   C1835     1.0  0.82666  0.99687  0.28668  1.0000
  C   C1836     1.0  0.81720  0.99086  0.26847  1.0000
  H   H2192     1.0  0.91106  0.90584  0.46944  1.0000
  H   H2193     1.0  0.81338  0.97635  0.26782  1.0000
  H   H2194     1.0  0.74223  0.99857  0.32686  1.0000
  C   C1837     1.0  0.74273  0.91830  0.35267  1.0000
  C   C1838     1.0  0.74558  0.89904  0.35784  1.0000
  C   C1839     1.0  0.73092  0.88883  0.36795  1.0000
  C   C1840     1.0  0.71316  0.89761  0.37290  1.0000
  C   C1841     1.0  0.71029  0.91685  0.36759  1.0000
  C   C1842     1.0  0.72498  0.92709  0.35757  1.0000
  H   H2195     1.0  0.75899  0.89193  0.35386  1.0000
  H   H2196     1.0  0.73329  0.87393  0.37182  1.0000
  H   H2197     1.0  0.69675  0.92383  0.37125  1.0000
  H   H2198     1.0  0.72250  0.94193  0.35356  1.0000
  C   C1843     1.0  0.89276  0.85037  0.27188  1.0000
  C   C1844     1.0  0.89074  0.86187  0.29045  1.0000
  C   C1845     1.0  0.87416  0.87319  0.29447  1.0000
  C   C1846     1.0  0.85925  0.87305  0.28001  1.0000
  C   C1847     1.0  0.86125  0.86153  0.26145  1.0000
  C   C1848     1.0  0.87785  0.85026  0.25740  1.0000
  H   H2199     1.0  0.90211  0.86206  0.30184  1.0000
  H   H2200     1.0  0.87287  0.88193  0.30881  1.0000
  H   H2201     1.0  0.84980  0.86123  0.25020  1.0000
  H   H2202     1.0  0.87898  0.84137  0.24321  1.0000
  C   C1849     1.0  0.86094  0.95467  0.44273  1.0000
  C   C1850     1.0  0.85498  0.96169  0.42201  1.0000
  C   C1851     1.0  0.84851  0.94951  0.40627  1.0000
  C   C1852     1.0  0.84808  0.93013  0.41108  1.0000
  C   C1853     1.0  0.85373  0.92316  0.43193  1.0000
  C   C1854     1.0  0.86001  0.93538  0.44772  1.0000
  H   H2203     1.0  0.85551  0.97663  0.41806  1.0000
  H   H2204     1.0  0.84404  0.95509  0.39037  1.0000
  H   H2205     1.0  0.85320  0.90824  0.43590  1.0000
  H   H2206     1.0  0.86404  0.92992  0.46383  1.0000
  C   C1855     1.0  0.96256  0.84713  0.09324  1.0000
  C   C1856     1.0  0.96244  0.83002  0.10559  1.0000
  C   C1857     1.0  0.95607  0.82958  0.12788  1.0000
  C   C1858     1.0  0.94988  0.84632  0.13802  1.0000
  C   C1859     1.0  0.94995  0.86339  0.12565  1.0000
  C   C1860     1.0  0.95619  0.86381  0.10336  1.0000
  C   C1861     1.0  0.92857  0.95384  0.02046  1.0000
  H   H2207     1.0  0.86654  0.90897  0.25457  1.0000
  H   H2208     1.0  0.94523  0.87641  0.13334  1.0000
  H   H2209     1.0  0.95619  0.87706  0.09405  1.0000
  H   H2210     1.0  0.97227  0.81023  0.03678  1.0000
  N   N123      1.0  0.50729  0.93398  0.26280  1.0000
  H   H2211     1.0  0.88992  0.90830  0.45416  1.0000
  Fe  Fe253     1.0  0.94222  0.82236  0.19128  1.0000
  H   H2212     1.0  0.93609  0.89566  0.42807  1.0000
  H   H2213     1.0  0.89296  0.88634  0.24945  1.0000
  H   H2214     1.0  0.86052  0.93474  0.22699  1.0000
  H   H2215     1.0  0.90907  0.88603  0.41173  1.0000
  H   H2216     1.0  0.90777  0.91527  0.18746  1.0000
  H   H2217     1.0  0.63696  0.82733  0.35898  1.0000
  C   C1862     1.0  0.55517  0.95574  0.38165  1.0000
  H   H2218     1.0  0.81749  0.95231  0.44868  1.0000
  H   H2219     1.0  0.77209  0.97354  0.28420  1.0000
  C   C1863     1.0  0.59716  0.85843  0.45654  1.0000
  C   C1864     1.0  0.88750  0.91443  0.37354  1.0000
  C   C1865     1.0  0.77745  0.97280  0.30122  1.0000
  H   H2220     1.0  0.95330  0.98707  0.50645  1.0000
  H   H2221     1.0  0.99687  0.82978  0.20533  1.0000
  N   N124      1.0  0.91456  0.91719  0.43608  1.0000
  H   H2222     1.0  0.59924  0.82329  0.44558  1.0000
  C   C1866     1.0  0.88902  0.93184  0.38313  1.0000
  C   C1867     1.0  0.54272  0.96853  0.37089  1.0000
  C   C1868     1.0  0.52005  0.91908  0.27264  1.0000
  H   H2223     1.0  0.74205  0.98641  0.30123  1.0000
  H   H2224     1.0  0.79302  0.97311  0.29984  1.0000
  H   H2225     1.0  0.75200  0.90412  0.43013  1.0000
  H   H2226     1.0  0.77398  0.95873  0.30837  1.0000
  H   H2227     1.0  0.53001  0.92510  0.28409  1.0000
  H   H2228     1.0  0.79870  0.92158  0.38958  1.0000
  H   H2229     1.0  0.88286  0.94446  0.37514  1.0000
  H   H2230     1.0  0.94218  0.91120  0.44893  1.0000
  C   C1869     1.0  0.62826  0.81564  0.36340  1.0000
  C   C1870     1.0  0.86993  0.81025  0.28662  1.0000
  H   H2231     1.0  0.98403  0.96183  0.48473  1.0000
  H   H2232     1.0  0.80501  0.99898  0.23721  1.0000
  H   H2233     1.0  0.59757  0.85579  0.43847  1.0000
  S   S511      1.0  0.99806  0.87742  0.02144  1.0000
  H   H2234     1.0  0.94195  0.91938  0.42053  1.0000
  C   C1871     1.0  0.76988  0.95350  0.45442  1.0000
  N   N125      1.0  0.76953  0.98829  0.31507  1.0000
  H   H2235     1.0  0.83257  0.83841  0.30388  1.0000
  C   C1872     1.0  0.77737  0.98537  0.33741  1.0000
  H   H2236     1.0  0.62863  0.84095  0.44269  1.0000
  H   H2237     1.0  0.98774  0.81426  0.16032  1.0000
  H   H2238     1.0  0.50957  0.95857  0.24160  1.0000
  H   H2239     1.0  0.98888  0.96259  0.03944  1.0000
  C   C1873     1.0  0.98894  0.97759  0.03533  1.0000
  H   H2240     1.0  0.95604  0.81634  0.13720  1.0000
  H   H2241     1.0  0.52885  0.95423  0.25996  1.0000
  Fe  Fe254     1.0  0.99565  0.90797  0.03025  1.0000
  H   H2242     1.0  0.88022  0.91357  0.35819  1.0000
  H   H2243     1.0  0.98805  0.84483  0.14543  1.0000
  C   C1874     1.0  0.62754  0.84304  0.46086  1.0000
  H   H2244     1.0  0.77362  0.97152  0.34506  1.0000
  H   H2245     1.0  0.95968  0.98271  0.04380  1.0000
  S   S512      1.0  0.88762  0.93166  0.50662  1.0000
  C   C1875     1.0  0.54446  0.98836  0.37211  1.0000
  H   H2246     1.0  0.74524  0.97323  0.32633  1.0000
  H   H2247     1.0  0.58362  0.98637  0.40402  1.0000
  C   C1876     1.0  0.83221  0.81871  0.27757  1.0000
  C   C1877     1.0  0.00143  0.80983  0.16766  1.0000
  C   C1878     1.0  0.96830  0.99007  0.50881  1.0000
  H   H2248     1.0  0.75844  0.96117  0.46299  1.0000
  H   H2249     1.0  0.89332  0.88455  0.37663  1.0000
  C   C1879     1.0  0.63413  0.89369  0.50083  1.0000
  H   H2250     1.0  0.55403  0.94068  0.37996  1.0000
  H   H2251     1.0  0.50863  0.95096  0.29171  1.0000
  C   C1880     1.0  0.76607  0.93899  0.44030  1.0000
  H   H2252     1.0  0.79304  0.98524  0.33670  1.0000
  Fe  Fe255     1.0  0.95332  0.91062  0.02630  1.0000
  C   C1881     1.0  0.00271  0.84628  0.14101  1.0000
  H   H2253     1.0  0.57982  0.95217  0.40121  1.0000
  S   S513      1.0  0.94112  0.91740  0.49546  1.0000
  C   C1882     1.0  0.99996  0.83771  0.18955  1.0000
  C   C1883     1.0  0.60706  0.84590  0.49329  1.0000
  S   S514      1.0  0.92716  0.92998  0.02936  1.0000
  H   H2254     1.0  0.90288  0.96284  0.03770  1.0000
  H   H2255     1.0  0.52728  0.94031  0.23620  1.0000
  H   H2256     1.0  0.75146  0.93620  0.43848  1.0000
  H   H2257     1.0  0.78570  0.88379  0.40994  1.0000
  C   C1884     1.0  0.84053  0.82771  0.29457  1.0000
  C   C1885     1.0  0.61551  0.83200  0.50768  1.0000
  H   H2258     1.0  0.65284  0.86954  0.49478  1.0000
  H   H2259     1.0  0.97712  0.90064  0.48237  1.0000
  C   C1886     1.0  0.91420  0.93638  0.44527  1.0000
  Fe  Fe256     1.0  0.92793  0.81932  0.23953  1.0000
  H   H2260     1.0  0.60335  0.87239  0.45828  1.0000
  H   H2261     1.0  0.92167  0.94648  0.43416  1.0000
  C   C1887     1.0  0.51874  0.94731  0.24953  1.0000
  H   H2262     1.0  0.77190  0.99646  0.34886  1.0000
  C   C1888     1.0  0.75750  0.90832  0.41339  1.0000
  H   H2263     1.0  0.89762  0.94690  0.41025  1.0000
  H   H2264     1.0  0.80417  0.89761  0.41808  1.0000
  S   S515      1.0  0.91509  0.81326  0.20740  1.0000
  C   C1889     1.0  0.90518  0.91657  0.41467  1.0000
  H   H2265     1.0  0.96735  0.81705  0.09789  1.0000
  C   C1890     1.0  0.78876  0.89592  0.42027  1.0000
  H   H2266     1.0  0.58211  0.85952  0.46199  1.0000
  H   H2267     1.0  0.51193  0.90839  0.28218  1.0000
  H   H2268     1.0  0.92125  0.93634  0.46135  1.0000
  C   C1891     1.0  0.79943  0.93405  0.43232  1.0000
  C   C1892     1.0  0.78341  0.91914  0.39103  1.0000
  H   H2269     1.0  0.94925  0.83751  0.02832  1.0000
  H   H2270     1.0  0.98151  0.83970  0.02052  1.0000
  H   H2271     1.0  0.90704  0.88953  0.44867  1.0000
  H   H2272     1.0  0.54910  0.00286  0.33076  1.0000
  C   C1893     1.0  0.57193  0.98149  0.39509  1.0000
  H   H2273     1.0  0.78582  0.89182  0.43788  1.0000
  C   C1894     1.0  0.55950  0.99443  0.38453  1.0000
  C   C1895     1.0  0.90524  0.90466  0.45270  1.0000
  C   C1896     1.0  0.90364  0.89909  0.40422  1.0000
  C   C1897     1.0  0.61561  0.81707  0.38152  1.0000
  C   C1898     1.0  0.89481  0.89809  0.38404  1.0000
  N   N126      1.0  0.91922  0.88440  0.21513  1.0000
  C   C1899     1.0  0.93258  0.88934  0.19673  1.0000
  C   C1900     1.0  0.93023  0.88187  0.23554  1.0000
  C   C1901     1.0  0.91134  0.86617  0.21012  1.0000
  C   C1902     1.0  0.90354  0.89867  0.21829  1.0000
  C   C1903     1.0  0.89946  0.91346  0.20253  1.0000
  C   C1904     1.0  0.89114  0.89745  0.23706  1.0000
  C   C1905     1.0  0.88417  0.92636  0.20578  1.0000
  C   C1906     1.0  0.87588  0.91035  0.24012  1.0000
  C   C1907     1.0  0.87243  0.92482  0.22455  1.0000
  H   H2274     1.0  0.93837  0.90340  0.19894  1.0000
  H   H2275     1.0  0.94474  0.87887  0.19555  1.0000
  H   H2276     1.0  0.92594  0.88912  0.18034  1.0000
  H   H2277     1.0  0.93489  0.89562  0.24114  1.0000
  H   H2278     1.0  0.94294  0.87229  0.23304  1.0000
  H   H2279     1.0  0.92220  0.87516  0.24945  1.0000
  H   H2280     1.0  0.90295  0.86735  0.19491  1.0000
  H   H2281     1.0  0.92261  0.85503  0.20739  1.0000
  H   H2282     1.0  0.90211  0.86095  0.22383  1.0000
  H   H2283     1.0  0.59278  0.87412  0.49363  1.0000
  N   N127      1.0  0.60773  0.84327  0.46909  1.0000
  H   H2284     1.0  0.77570  0.93244  0.38564  1.0000
  C   C1908     1.0  0.91440  0.96720  0.02697  1.0000
  C   C1909     1.0  0.93454  0.91056  0.43322  1.0000
  C   C1910     1.0  0.59970  0.82510  0.46382  1.0000
  S   S516      1.0  0.95184  0.88014  0.01744  1.0000
  H   H2285     1.0  0.98940  0.81077  0.27355  1.0000
  C   C1911     1.0  0.51620  0.99380  0.34943  1.0000
  H   H2286     1.0  0.79128  0.96945  0.46846  1.0000
  C   C1912     1.0  0.80310  0.94855  0.44642  1.0000
  N   N128      1.0  0.77751  0.91328  0.41378  1.0000
  C   C1913     1.0  0.78835  0.95822  0.45752  1.0000
  H   H2287     1.0  0.81130  0.92713  0.42391  1.0000
  C   C1914     1.0  0.59883  0.86239  0.50320  1.0000
  C   C1915     1.0  0.89759  0.93300  0.40346  1.0000
  H   H2288     1.0  0.62246  0.81933  0.50132  1.0000
  H   H2289     1.0  0.78068  0.90823  0.37887  1.0000
  H   H2290     1.0  0.75560  0.89616  0.40262  1.0000
  C   C1916     1.0  0.78086  0.92866  0.42896  1.0000
  H   H2291     1.0  0.89956  0.94206  0.44848  1.0000
  H   H2292     1.0  0.52889  0.91153  0.25995  1.0000
  H   H2293     1.0  0.85703  0.00115  0.18513  1.0000
  H   H2294     1.0  0.87704  0.80925  0.22924  1.0000
  H   H2295     1.0  0.50727  0.98579  0.36143  1.0000
  H   H2296     1.0  0.51565  0.99755  0.18954  1.0000
  H   H2297     1.0  0.98605  0.84195  0.18264  1.0000
  H   H2298     1.0  0.93545  0.82076  0.01621  1.0000
  C   C1917     1.0  0.91513  0.98622  0.01979  1.0000
  H   H2299     1.0  0.90422  0.99645  0.02497  1.0000
  C   C1918     1.0  0.97739  0.95801  0.50103  1.0000
  C   C1919     1.0  0.81262  0.00371  0.25100  1.0000
  H   H2300     1.0  0.99575  0.86310  0.11187  1.0000
  C   C1920     1.0  0.85927  0.82333  0.29923  1.0000
  H   H2301     1.0  0.63636  0.83150  0.46864  1.0000
  H   H2302     1.0  0.81763  0.82227  0.27395  1.0000
  H   H2303     1.0  0.86580  0.83067  0.31219  1.0000
  C   C1921     1.0  0.77390  0.00669  0.30438  1.0000
  H   H2304     1.0  0.75826  0.00253  0.27465  1.0000
  H   H2305     1.0  0.56428  0.81152  0.31955  1.0000
  H   H2306     1.0  0.58510  0.82428  0.47078  1.0000
  C   C1922     1.0  0.94704  0.83035  0.01255  1.0000
  H   H2307     1.0  0.51535  0.91283  0.22604  1.0000
  H   H2308     1.0  0.60815  0.81268  0.47025  1.0000
  C   C1923     1.0  0.97253  0.00820  0.03219  1.0000
  H   H2309     1.0  0.98418  0.94435  0.50659  1.0000
  H   H2310     1.0  0.97397  0.99527  0.49254  1.0000
  H   H2311     1.0  0.96239  0.95518  0.49842  1.0000
  H   H2312     1.0  0.83575  0.00524  0.17019  1.0000
  H   H2313     1.0  0.50677  0.00477  0.34130  1.0000
  C   C1924     1.0  0.00542  0.98546  0.02732  1.0000
  C   C1925     1.0  0.00560  0.00474  0.02170  1.0000
  Fe  Fe257     1.0  0.97703  0.88526  0.99529  1.0000
  S   S517      1.0  0.98189  0.87625  0.95971  1.0000
  C   C1926     1.0  0.99940  0.97623  0.52009  1.0000
  C   C1927     1.0  0.62531  0.90462  0.51767  1.0000
  H   H2314     1.0  0.94196  0.84129  0.00033  1.0000
  H   H2315     1.0  0.69239  0.90434  0.55342  1.0000
  S   S518      1.0  0.88006  0.83981  0.81279  1.0000
  S   S519      1.0  0.93212  0.84021  0.83632  1.0000
  Fe  Fe258     1.0  0.82996  0.91433  0.72373  1.0000
  S   S520      1.0  0.83401  0.94548  0.71949  1.0000
  S   S521      1.0  0.85582  0.89481  0.73143  1.0000
  Fe  Fe259     1.0  0.78945  0.91863  0.70584  1.0000
  S   S522      1.0  0.79097  0.95010  0.70022  1.0000
  S   S523      1.0  0.76556  0.89890  0.69965  1.0000
  Fe  Fe260     1.0  0.82042  0.94338  0.68665  1.0000
  S   S524      1.0  0.83475  0.95973  0.65851  1.0000
  Fe  Fe261     1.0  0.80460  0.94996  0.73335  1.0000
  S   S525      1.0  0.79548  0.97002  0.76098  1.0000
  S   S526      1.0  0.81805  0.91205  0.68986  1.0000
  S   S527      1.0  0.80132  0.91875  0.74003  1.0000
  C   C1928     1.0  0.61804  0.98253  0.73457  1.0000
  S   S528      1.0  0.91452  0.94705  0.54454  1.0000
  H   H2316     1.0  0.85673  0.81495  0.78146  1.0000
  S   S529      1.0  0.87846  0.97409  0.52685  1.0000
  Fe  Fe262     1.0  0.90988  0.97594  0.52867  1.0000
  Fe  Fe263     1.0  0.88355  0.94438  0.54035  1.0000
  S   S530      1.0  0.86538  0.92870  0.56576  1.0000
  H   H2317     1.0  0.98476  0.82550  0.96365  1.0000
  Fe  Fe264     1.0  0.63339  0.86535  0.65884  1.0000
  S   S531      1.0  0.61191  0.87763  0.63507  1.0000
  S   S532      1.0  0.63181  0.83940  0.68252  1.0000
  Fe  Fe265     1.0  0.65906  0.89895  0.65139  1.0000
  S   S533      1.0  0.63906  0.91321  0.62719  1.0000
  S   S534      1.0  0.68443  0.91657  0.65813  1.0000
  Fe  Fe266     1.0  0.61579  0.90547  0.65163  1.0000
  S   S535      1.0  0.59202  0.92799  0.65953  1.0000
  Fe  Fe267     1.0  0.63678  0.88472  0.61232  1.0000
  S   S536      1.0  0.64283  0.87736  0.57540  1.0000
  S   S537      1.0  0.63590  0.89285  0.67636  1.0000
  S   S538      1.0  0.65808  0.87077  0.63554  1.0000
  Fe  Fe268     1.0  0.53270  0.99453  0.75764  1.0000
  S   S539      1.0  0.55418  0.97233  0.74259  1.0000
  S   S540      1.0  0.53150  0.99023  0.79473  1.0000
  C   C1929     1.0  0.58142  0.93967  0.68309  1.0000
  C   C1930     1.0  0.56679  0.95352  0.67980  1.0000
  C   C1931     1.0  0.55818  0.96348  0.69767  1.0000
  C   C1932     1.0  0.56417  0.95989  0.71925  1.0000
  C   C1933     1.0  0.57869  0.94593  0.72260  1.0000
  C   C1934     1.0  0.58719  0.93585  0.70474  1.0000
  H   H2318     1.0  0.56210  0.95662  0.66321  1.0000
  H   H2319     1.0  0.54706  0.97409  0.69467  1.0000
  H   H2320     1.0  0.58354  0.94298  0.73914  1.0000
  H   H2321     1.0  0.59822  0.92517  0.70773  1.0000
  C   C1935     1.0  0.63944  0.88441  0.54683  1.0000
  C   C1936     1.0  0.64841  0.87357  0.53000  1.0000
  H   H2322     1.0  0.95527  0.96448  0.53698  1.0000
  C   C1937     1.0  0.62796  0.90011  0.54040  1.0000
  H   H2323     1.0  0.65728  0.86135  0.53455  1.0000
  H   H2324     1.0  0.62089  0.90867  0.55291  1.0000
  C   C1938     1.0  0.80335  0.99309  0.76440  1.0000
  C   C1939     1.0  0.94382  0.97846  0.99889  1.0000
  H   H2325     1.0  0.78464  0.88025  0.74368  1.0000
  C   C1940     1.0  0.51404  0.86848  0.84372  1.0000
  Fe  Fe269     1.0  0.95064  0.81703  0.82066  1.0000
  C   C1941     1.0  0.85401  0.98974  0.77907  1.0000
  H   H2326     1.0  0.82083  0.99387  0.73479  1.0000
  C   C1942     1.0  0.74288  0.90424  0.68854  1.0000
  C   C1943     1.0  0.73692  0.92252  0.68167  1.0000
  C   C1944     1.0  0.71902  0.92596  0.67254  1.0000
  C   C1945     1.0  0.70676  0.91124  0.67010  1.0000
  C   C1946     1.0  0.71266  0.89296  0.67705  1.0000
  C   C1947     1.0  0.73058  0.88952  0.68618  1.0000
  H   H2327     1.0  0.74616  0.93401  0.68329  1.0000
  H   H2328     1.0  0.71471  0.94015  0.66719  1.0000
  H   H2329     1.0  0.70348  0.88146  0.67532  1.0000
  H   H2330     1.0  0.73497  0.87532  0.69139  1.0000
  C   C1948     1.0  0.84218  0.95119  0.63227  1.0000
  C   C1949     1.0  0.83798  0.93325  0.62552  1.0000
  C   C1950     1.0  0.84504  0.92667  0.60500  1.0000
  C   C1951     1.0  0.85627  0.93795  0.59099  1.0000
  C   C1952     1.0  0.86031  0.95595  0.59766  1.0000
  C   C1953     1.0  0.85327  0.96253  0.61818  1.0000
  H   H2331     1.0  0.82938  0.92442  0.63612  1.0000
  H   H2332     1.0  0.84184  0.91273  0.59994  1.0000
  H   H2333     1.0  0.86894  0.96476  0.58704  1.0000
  H   H2334     1.0  0.85656  0.97644  0.62325  1.0000
  C   C1954     1.0  0.87439  0.85642  0.79094  1.0000
  C   C1955     1.0  0.88655  0.85950  0.77270  1.0000
  C   C1956     1.0  0.88073  0.87153  0.75490  1.0000
  C   C1957     1.0  0.86280  0.88088  0.75516  1.0000
  C   C1958     1.0  0.85083  0.87822  0.77365  1.0000
  C   C1959     1.0  0.85655  0.86597  0.79129  1.0000
  H   H2335     1.0  0.90027  0.85225  0.77208  1.0000
  H   H2336     1.0  0.89015  0.87342  0.74074  1.0000
  H   H2337     1.0  0.83707  0.88533  0.77425  1.0000
  H   H2338     1.0  0.84698  0.86367  0.80524  1.0000
  C   C1960     1.0  0.96659  0.86363  0.94378  1.0000
  C   C1961     1.0  0.97236  0.85863  0.92222  1.0000
  C   C1962     1.0  0.96076  0.84833  0.90912  1.0000
  C   C1963     1.0  0.94329  0.84288  0.91756  1.0000
  C   C1964     1.0  0.93750  0.84797  0.93909  1.0000
  C   C1965     1.0  0.94905  0.85836  0.95212  1.0000
  H   H2339     1.0  0.98591  0.86269  0.91564  1.0000
  H   H2340     1.0  0.96536  0.84447  0.89260  1.0000
  H   H2341     1.0  0.92401  0.84379  0.94571  1.0000
  H   H2342     1.0  0.94438  0.86220  0.96858  1.0000
  C   C1966     1.0  0.70394  0.90582  0.56515  1.0000
  C   C1967     1.0  0.83754  0.84314  0.74079  1.0000
  C   C1968     1.0  0.78902  0.84433  0.72941  1.0000
  C   C1969     1.0  0.84643  0.00302  0.81550  1.0000
  C   C1970     1.0  0.59894  0.86459  0.52606  1.0000
  C   C1971     1.0  0.81844  0.84464  0.74842  1.0000
  N   N129      1.0  0.97924  0.97309  0.51713  1.0000
  C   C1972     1.0  0.97960  0.91440  0.54353  1.0000
  H   H2343     1.0  0.86563  0.83181  0.74681  1.0000
  H   H2344     1.0  0.97127  0.97827  0.55106  1.0000
  H   H2345     1.0  0.71885  0.86829  0.61183  1.0000
  H   H2346     1.0  0.86063  0.99100  0.76276  1.0000
  H   H2347     1.0  0.74313  0.93136  0.62304  1.0000
  H   H2348     1.0  0.97664  0.84610  0.99245  1.0000
  H   H2349     1.0  0.52518  0.86124  0.83418  1.0000
  C   C1973     1.0  0.97044  0.96717  0.53859  1.0000
  C   C1974     1.0  0.97310  0.81638  0.96332  1.0000
  H   H2350     1.0  0.58768  0.99125  0.69316  1.0000
  C   C1975     1.0  0.97973  0.83387  0.00392  1.0000
  S   S541      1.0  0.97410  0.82412  0.79532  1.0000
  H   H2351     1.0  0.99981  0.83153  0.75915  1.0000
  H   H2352     1.0  0.74487  0.87177  0.63597  1.0000
  C   C1976     1.0  0.83556  0.98707  0.82030  1.0000
  H   H2353     1.0  0.70632  0.86878  0.57639  1.0000
  H   H2354     1.0  0.96800  0.00171  0.52077  1.0000
  C   C1977     1.0  0.96945  0.80913  0.94277  1.0000
  H   H2355     1.0  0.66982  0.81680  0.67339  1.0000
  N   N130      1.0  0.88579  0.92356  0.67635  1.0000
  C   C1978     1.0  0.89413  0.91746  0.69774  1.0000
  C   C1979     1.0  0.88286  0.94442  0.67635  1.0000
  C   C1980     1.0  0.86723  0.91513  0.67561  1.0000
  C   C1981     1.0  0.89745  0.91794  0.65671  1.0000
  C   C1982     1.0  0.91495  0.90747  0.65820  1.0000
  C   C1983     1.0  0.89129  0.92286  0.63515  1.0000
  C   C1984     1.0  0.92549  0.90241  0.63918  1.0000
  C   C1985     1.0  0.90187  0.91769  0.61627  1.0000
  C   C1986     1.0  0.91897  0.90751  0.61827  1.0000
  H   H2356     1.0  0.90797  0.92366  0.69982  1.0000
  H   H2357     1.0  0.88493  0.92194  0.71210  1.0000
  H   H2358     1.0  0.89578  0.90179  0.69940  1.0000
  H   H2359     1.0  0.89650  0.95139  0.67635  1.0000
  H   H2360     1.0  0.87419  0.94918  0.69098  1.0000
  H   H2361     1.0  0.87518  0.95009  0.66171  1.0000
  H   H2362     1.0  0.85835  0.91856  0.69051  1.0000
  H   H2363     1.0  0.85907  0.92046  0.66123  1.0000
  H   H2364     1.0  0.86874  0.89948  0.67482  1.0000
  H   H2365     1.0  0.92078  0.90297  0.67383  1.0000
  H   H2366     1.0  0.87814  0.93072  0.63268  1.0000
  H   H2367     1.0  0.93881  0.89443  0.64061  1.0000
  H   H2368     1.0  0.89669  0.92157  0.59998  1.0000
  H   H2369     1.0  0.92713  0.90353  0.60356  1.0000
  C   C1987     1.0  0.73789  0.91764  0.61993  1.0000
  H   H2370     1.0  0.60804  0.85286  0.55729  1.0000
  N   N131      1.0  0.93497  0.91998  0.95129  1.0000
  C   C1988     1.0  0.92171  0.93676  0.95240  1.0000
  C   C1989     1.0  0.93409  0.90948  0.97277  1.0000
  C   C1990     1.0  0.95426  0.92690  0.94828  1.0000
  C   C1991     1.0  0.92971  0.90751  0.93354  1.0000
  C   C1992     1.0  0.91155  0.90010  0.93384  1.0000
  C   C1993     1.0  0.94237  0.90189  0.91602  1.0000
  C   C1994     1.0  0.90643  0.88779  0.91771  1.0000
  C   C1995     1.0  0.93700  0.88975  0.89985  1.0000
  C   C1996     1.0  0.91914  0.88262  0.90076  1.0000
  H   H2371     1.0  0.90715  0.93300  0.95714  1.0000
  H   H2372     1.0  0.92576  0.94674  0.96512  1.0000
  H   H2373     1.0  0.92129  0.94461  0.93622  1.0000
  H   H2374     1.0  0.91977  0.90486  0.97726  1.0000
  H   H2375     1.0  0.93812  0.91833  0.98651  1.0000
  H   H2376     1.0  0.94380  0.89671  0.97250  1.0000
  H   H2377     1.0  0.95766  0.93645  0.96171  1.0000
  H   H2378     1.0  0.96513  0.91503  0.94879  1.0000
  H   H2379     1.0  0.95596  0.93506  0.93243  1.0000
  H   H2380     1.0  0.90129  0.90346  0.94683  1.0000
  H   H2381     1.0  0.95667  0.90622  0.91471  1.0000
  H   H2382     1.0  0.89267  0.88190  0.91853  1.0000
  H   H2383     1.0  0.94697  0.88524  0.88692  1.0000
  H   H2384     1.0  0.91534  0.87262  0.88864  1.0000
  C   C1997     1.0  0.60224  0.98972  0.72364  1.0000
  C   C1998     1.0  0.84602  0.82266  0.77199  1.0000
  H   H2385     1.0  0.79513  0.83325  0.71829  1.0000
  H   H2386     1.0  0.71675  0.92897  0.59871  1.0000
  C   C1999     1.0  0.71546  0.89831  0.60194  1.0000
  C   C2000     1.0  0.74594  0.90165  0.63043  1.0000
  H   H2387     1.0  0.84267  0.85077  0.72630  1.0000
  N   N132      1.0  0.52137  0.93079  0.77190  1.0000
  H   H2388     1.0  0.78164  0.83710  0.74345  1.0000
  S   S542      1.0  0.92753  0.99806  0.54291  1.0000
  H   H2389     1.0  0.84153  0.96363  0.77223  1.0000
  H   H2390     1.0  0.61623  0.91668  0.51310  1.0000
  H   H2391     1.0  0.80593  0.87924  0.75902  1.0000
  C   C2001     1.0  0.51551  0.88743  0.84849  1.0000
  H   H2392     1.0  0.82204  0.87674  0.72175  1.0000
  H   H2393     1.0  0.82778  0.98557  0.83580  1.0000
  H   H2394     1.0  0.54158  0.92809  0.79760  1.0000
  C   C2002     1.0  0.72382  0.88229  0.61323  1.0000
  H   H2395     1.0  0.68264  0.87695  0.57165  1.0000
  H   H2396     1.0  0.95041  0.92359  0.54093  1.0000
  H   H2397     1.0  0.71702  0.89909  0.55772  1.0000
  N   N133      1.0  0.69943  0.89709  0.58715  1.0000
  H   H2398     1.0  0.99361  0.82711  0.99906  1.0000
  H   H2399     1.0  0.61945  0.98543  0.75190  1.0000
  C   C2003     1.0  0.72282  0.91608  0.60598  1.0000
  C   C2004     1.0  0.50866  0.89790  0.77694  1.0000
  C   C2005     1.0  0.79506  0.87051  0.75217  1.0000
  C   C2006     1.0  0.60021  0.98593  0.70145  1.0000
  H   H2400     1.0  0.97808  0.81282  0.92835  1.0000
  C   C2007     1.0  0.50963  0.94608  0.76120  1.0000
  H   H2401     1.0  0.54338  0.93313  0.74670  1.0000
  N   N134      1.0  0.64457  0.95468  0.68961  1.0000
  C   C2008     1.0  0.64561  0.93589  0.70101  1.0000
  C   C2009     1.0  0.64078  0.95170  0.66602  1.0000
  C   C2010     1.0  0.66323  0.96300  0.69035  1.0000
  C   C2011     1.0  0.63007  0.96701  0.70083  1.0000
  C   C2012     1.0  0.61377  0.97464  0.69015  1.0000
  C   C2013     1.0  0.63182  0.97140  0.72338  1.0000
  H   H2402     1.0  0.61645  0.81850  0.64638  1.0000
  H   H2403     1.0  0.54371  0.91102  0.76146  1.0000
  H   H2404     1.0  0.51763  0.89216  0.76383  1.0000
  H   H2405     1.0  0.63174  0.92932  0.70111  1.0000
  H   H2406     1.0  0.65613  0.92607  0.69275  1.0000
  H   H2407     1.0  0.64985  0.93657  0.71842  1.0000
  H   H2408     1.0  0.62745  0.94443  0.66424  1.0000
  H   H2409     1.0  0.65205  0.94262  0.65799  1.0000
  H   H2410     1.0  0.64001  0.96525  0.65630  1.0000
  H   H2411     1.0  0.66813  0.96397  0.70748  1.0000
  H   H2412     1.0  0.67431  0.95427  0.68135  1.0000
  H   H2413     1.0  0.66287  0.97745  0.68265  1.0000
  H   H2414     1.0  0.61082  0.97169  0.67325  1.0000
  H   H2415     1.0  0.64372  0.96600  0.73265  1.0000
  H   H2416     1.0  0.52485  0.94774  0.80055  1.0000
  Fe  Fe270     1.0  0.93120  0.82060  0.86624  1.0000
  C   C2014     1.0  0.99779  0.81578  0.79007  1.0000
  H   H2417     1.0  0.67000  0.90606  0.58694  1.0000
  C   C2015     1.0  0.68271  0.90736  0.59695  1.0000
  H   H2418     1.0  0.79990  0.87581  0.70898  1.0000
  H   H2419     1.0  0.67947  0.90172  0.61389  1.0000
  H   H2420     1.0  0.81734  0.85730  0.70443  1.0000
  C   C2016     1.0  0.85101  0.83222  0.75243  1.0000
  C   C2017     1.0  0.81118  0.86696  0.71716  1.0000
  C   C2018     1.0  0.99570  0.90661  0.53263  1.0000
  H   H2421     1.0  0.82515  0.96123  0.80857  1.0000
  C   C2019     1.0  0.81375  0.83430  0.76812  1.0000
  H   H2422     1.0  0.79955  0.83468  0.77492  1.0000
  C   C2020     1.0  0.96145  0.81248  0.98229  1.0000
  C   C2021     1.0  0.82741  0.82362  0.77977  1.0000
  C   C2022     1.0  0.53415  0.92242  0.75453  1.0000
  C   C2023     1.0  0.73886  0.88405  0.62720  1.0000
  H   H2423     1.0  0.59308  0.87751  0.53320  1.0000
  H   H2424     1.0  0.68901  0.87043  0.59901  1.0000
  S   S543      1.0  0.92840  0.82929  0.90227  1.0000
  H   H2425     1.0  0.68479  0.92267  0.59847  1.0000
  C   C2024     1.0  0.85553  0.00401  0.79426  1.0000
  H   H2426     1.0  0.62251  0.82383  0.54115  1.0000
  H   H2427     1.0  0.77803  0.85278  0.72016  1.0000
  H   H2428     1.0  0.75738  0.90297  0.64159  1.0000
  C   C2025     1.0  0.96269  0.91749  0.53239  1.0000
  H   H2429     1.0  0.70593  0.92119  0.56592  1.0000
  C   C2026     1.0  0.83402  0.97299  0.80490  1.0000
  C   C2027     1.0  0.81579  0.00148  0.74919  1.0000
  C   C2028     1.0  0.62380  0.81610  0.68053  1.0000
  H   H2430     1.0  0.98025  0.91818  0.56065  1.0000
  H   H2431     1.0  0.54335  0.94896  0.78029  1.0000
  H   H2432     1.0  0.52768  0.89491  0.84263  1.0000
  Fe  Fe271     1.0  0.90767  0.82482  0.82442  1.0000
  H   H2433     1.0  0.51840  0.95634  0.75181  1.0000
  N   N135      1.0  0.80382  0.85642  0.73689  1.0000
  C   C2029     1.0  0.69426  0.87742  0.58348  1.0000
  H   H2434     1.0  0.78734  0.86393  0.76637  1.0000
  H   H2435     1.0  0.95530  0.98277  0.98807  1.0000
  H   H2436     1.0  0.76040  0.00088  0.74099  1.0000
  C   C2030     1.0  0.84327  0.97429  0.78437  1.0000
  H   H2437     1.0  0.82370  0.81633  0.79517  1.0000
  C   C2031     1.0  0.60739  0.85070  0.53968  1.0000
  H   H2438     1.0  0.73578  0.00672  0.77005  1.0000
  H   H2439     1.0  0.52621  0.91685  0.74083  1.0000
  H   H2440     1.0  0.84391  0.99995  0.86120  1.0000
  H   H2441     1.0  0.59308  0.81715  0.72794  1.0000
  H   H2442     1.0  0.99896  0.00656  0.51126  1.0000
  H   H2443     1.0  0.97722  0.95397  0.54555  1.0000
  H   H2444     1.0  0.95437  0.94960  0.00146  1.0000
  C   C2032     1.0  0.53325  0.93918  0.78833  1.0000
  H   H2445     1.0  0.78708  0.99697  0.79468  1.0000
  C   C2033     1.0  0.61564  0.83442  0.53051  1.0000
  N   N136      1.0  0.96452  0.82029  0.00422  1.0000
  H   H2446     1.0  0.59131  0.99793  0.73248  1.0000
  C   C2034     1.0  0.79687  0.00327  0.78297  1.0000
  C   C2035     1.0  0.92984  0.99186  0.00563  1.0000
  S   S544      1.0  0.97697  0.91614  0.00215  1.0000
  C   C2036     1.0  0.99475  0.90156  0.51057  1.0000
  C   C2037     1.0  0.94333  0.95961  0.00650  1.0000
  C   C2038     1.0  0.50899  0.91707  0.78309  1.0000
  H   H2447     1.0  0.86778  0.00162  0.85100  1.0000
  C   C2039     1.0  0.61717  0.80932  0.66094  1.0000
  H   H2448     1.0  0.62986  0.80888  0.71446  1.0000
  Fe  Fe272     1.0  0.91819  0.93702  0.50991  1.0000
  C   C2040     1.0  0.96175  0.91262  0.51029  1.0000
