data_image0
_chemical_formula_structural       SCHFeS2FeS2FeSFeCS2FeS2FeS2FeSFeS3C3H2C6H4C6H4C2H3C6H3C6H8CHCHC2NC9H10CHCH3CSH2CHCHCHNCH4SC2H2NH4SH2C2HCH2CHNHNHCHCHCHC2H9CHCHSH2C2HC2HCH4CH2C2H4CFeCFeS2CNFeHSH2FeS2CHFeHS2H2CHC5H2CHCH4C6H3CHNH3C2H4SCH3C3H4CNH4C2SHC3SH2C3FeC2H2CH3CHCH4SFeH3FeSHC4NCHFeS2FeS2FeSFeS3HCFeCSHCFeS2HCH4C6H4C2H3C2HCH2C8H4CH3SC2HCHCHCHCHCSH5SHC4HC2HCHCH4CH5NCHC2HC2NH2CH2CFeCNHC4H4SH3SHSH2CHC3FeHCHC2H2CH4C3HC2HCHFeS2FeS2FeSFeS3FeS2FeSCFeSFeS3H2SC6NH3C5H4C6H4C6H4C2HC6H3CH3C2H2NC6H2CH2CH3C2H3CH2CH3C2H3C3HCH3CH6NC9H6CHCH5NH3CH2CH2CH2SCH4FeCH2SHCFeS2H2CSHFeS2HSH2FeS2C6H4CFeHC5H5CH2CHC2HCSHNC2H2CHNCH3SHCHC2H3CH2C4H3FeHC3HSHC2FeCHCH2SH3CNH2C5H2C3H5SHCSC2FeSHFeSHFeS2FeSFeS3H3C7H4C4SH2C6H5CHC2H2CH2NHCNC6HCH12CSHC2H3NC2HC3H2CH5CHNCHFeC2HCH6FeC3H3SCH2SCSCHSHC2HC2H2CFeNH4SH2C2HCFeCSHFeSNCHFeS2FeS2FeSFeS4H2C4HC2HNH2C2H3C5H4C6H7C3HC2H2CHCH3C2HNHNHC3HCHC4H7CH3CSC2H5C2H2CHNHFeCNCH2CH5CHCHCH3CHC2H3CHCHC3FeSHC2HCH2C2FeS2FeHSH2FeS2FeSFeSFeCS2CHC3HC6H4SC6H4CH5C3H2C3SCH2CHCH4CSH3CSCHC2SHCH4NHNCHCNCHC10H4CH11C2H4SH2CFeHFeS2FeS2FeSFeS3FeS2FeS2FeSFeS3FeS2FeSHC2H2C2HC6H4C3H2C2HC6H4C6H4CH5CH3CH6CHNHCH2C2H7CHCH2CSCH3CHC2HC2HNHC2HNHCH2C2HCHCHCH2CHC2HC2HCHCH2C2HCH4FeS2FeS2FeSFeS3H2SFeSH2CHC3HC6H4C6H4C6H8NH2NH2C2FeH3CHCHCHC2HSNC10H5CH7SH2C2H5C3HC2HCH3CH5C3FeS2FeCFeCFeS3FeHSCHFeSCSC3H3C6H2CHCH3C2HC7H4CHCH2C3HFeHCH2CH2SHCH3CHCNH2CHSCHC2SHNCH3C2FeH4NHSCH2CH2C2HSHCHCHCHCHSC2HCSHCH4C2SNC2H4FeS2CHFeSFeS2FeS2FeSFeS3FeS2FeSHFeSFeS3C4H4C6H4C2H2C2H4C2H2C6H4C6H6CH4NHCSHC2H8CH3CH2NC4SC2H11C2NC5HCHCH5CH4CH2C3H2CHCH2C3H2NCHC6H3C2HCNC2HCHCH3CH2CHCH4
_chemical_formula_sum              "S192 C720 H864 Fe96 N48"
_cell_length_a       44.9207
_cell_length_b       44.7625
_cell_length_c       45.1646
_cell_angle_alpha    90.8982
_cell_angle_beta     90.7769
_cell_angle_gamma    90.3705

_space_group_name_H-M_alt    "P 1"
_space_group_IT_number       1

loop_
  _space_group_symop_operation_xyz
  'x, y, z'

loop_
  _atom_site_type_symbol
  _atom_site_label
  _atom_site_symmetry_multiplicity
  _atom_site_fract_x
  _atom_site_fract_y
  _atom_site_fract_z
  _atom_site_occupancy
  S   S1        1.0  0.14300  0.18203  0.32581  1.0000
  C   C1        1.0  0.21379  0.49190  0.24801  1.0000
  H   H1        1.0  0.19450  0.49604  0.08104  1.0000
  Fe  Fe1       1.0  0.35834  0.11083  0.23001  1.0000
  S   S2        1.0  0.33428  0.07802  0.19999  1.0000
  S   S3        1.0  0.34496  0.12453  0.27638  1.0000
  Fe  Fe2       1.0  0.40351  0.12773  0.18278  1.0000
  S   S4        1.0  0.38242  0.09706  0.14852  1.0000
  S   S5        1.0  0.44178  0.15955  0.17396  1.0000
  Fe  Fe3       1.0  0.33878  0.11388  0.16582  1.0000
  S   S6        1.0  0.29790  0.12598  0.13891  1.0000
  Fe  Fe4       1.0  0.37993  0.06393  0.18547  1.0000
  C   C2        1.0  0.15349  0.49271  0.10456  1.0000
  S   S7        1.0  0.35993  0.14742  0.19685  1.0000
  S   S8        1.0  0.40392  0.09383  0.21878  1.0000
  Fe  Fe5       1.0  0.18122  0.30634  0.09021  1.0000
  S   S9        1.0  0.22725  0.32553  0.09134  1.0000
  S   S10       1.0  0.15057  0.30357  0.05017  1.0000
  Fe  Fe6       1.0  0.18434  0.28886  0.15501  1.0000
  S   S11       1.0  0.23071  0.30714  0.16168  1.0000
  S   S12       1.0  0.15946  0.25938  0.18633  1.0000
  Fe  Fe7       1.0  0.21422  0.34595  0.13497  1.0000
  S   S13       1.0  0.23165  0.39315  0.14128  1.0000
  Fe  Fe8       1.0  0.23980  0.28538  0.11769  1.0000
  S   S14       1.0  0.28351  0.26294  0.10821  1.0000
  S   S15       1.0  0.16676  0.32953  0.13206  1.0000
  S   S16       1.0  0.19478  0.26425  0.11280  1.0000
  C   C3        1.0  0.16502  0.47512  0.26127  1.0000
  C   C4        1.0  0.18956  0.41366  0.27003  1.0000
  C   C5        1.0  0.14572  0.15453  0.23135  1.0000
  H   H2        1.0  0.25027  0.31009  0.02690  1.0000
  H   H3        1.0  0.18356  0.36581  0.27241  1.0000
  C   C6        1.0  0.17492  0.47192  0.17233  1.0000
  C   C7        1.0  0.20442  0.47637  0.16394  1.0000
  C   C8        1.0  0.22147  0.45199  0.15425  1.0000
  C   C9        1.0  0.20916  0.42308  0.15292  1.0000
  C   C10       1.0  0.17966  0.41861  0.16133  1.0000
  C   C11       1.0  0.16260  0.44301  0.17098  1.0000
  H   H4        1.0  0.16968  0.15158  0.13771  1.0000
  H   H5        1.0  0.24430  0.45552  0.14774  1.0000
  H   H6        1.0  0.17010  0.39638  0.16068  1.0000
  H   H7        1.0  0.13975  0.43949  0.17742  1.0000
  C   C12       1.0  0.29428  0.16399  0.12994  1.0000
  C   C13       1.0  0.26641  0.17496  0.12110  1.0000
  C   C14       1.0  0.26265  0.20545  0.11522  1.0000
  C   C15       1.0  0.28711  0.22491  0.11690  1.0000
  C   C16       1.0  0.31518  0.21379  0.12481  1.0000
  C   C17       1.0  0.31868  0.18351  0.13181  1.0000
  H   H8        1.0  0.24761  0.15986  0.11906  1.0000
  H   H9        1.0  0.24096  0.21370  0.10889  1.0000
  H   H10       1.0  0.33425  0.22869  0.12592  1.0000
  H   H11       1.0  0.34037  0.17520  0.13817  1.0000
  C   C18       1.0  0.47845  0.14580  0.17512  1.0000
  C   C19       1.0  0.48415  0.11525  0.17742  1.0000
  H   H12       1.0  0.49806  0.18959  0.17158  1.0000
  H   H13       1.0  0.46581  0.09951  0.17833  1.0000
  H   H14       1.0  0.20723  0.11478  0.15399  1.0000
  C   C20       1.0  0.24550  0.12996  0.29655  1.0000
  C   C21       1.0  0.26529  0.15153  0.30811  1.0000
  C   C22       1.0  0.29582  0.14971  0.30184  1.0000
  C   C23       1.0  0.30652  0.12699  0.28312  1.0000
  C   C24       1.0  0.28657  0.10602  0.27079  1.0000
  C   C25       1.0  0.25617  0.10746  0.27760  1.0000
  H   H15       1.0  0.17307  0.20401  0.15573  1.0000
  H   H16       1.0  0.29465  0.08834  0.25647  1.0000
  H   H17       1.0  0.24093  0.09082  0.26841  1.0000
  C   C26       1.0  0.16191  0.26762  0.28668  1.0000
  C   C27       1.0  0.16943  0.24072  0.27264  1.0000
  C   C28       1.0  0.17051  0.23895  0.24171  1.0000
  C   C29       1.0  0.16495  0.26419  0.22463  1.0000
  C   C30       1.0  0.15920  0.29159  0.23865  1.0000
  C   C31       1.0  0.15748  0.29324  0.26971  1.0000
  H   H18       1.0  0.17337  0.22099  0.28555  1.0000
  H   H19       1.0  0.17482  0.21772  0.23101  1.0000
  H   H20       1.0  0.15436  0.31104  0.22555  1.0000
  H   H21       1.0  0.15160  0.31406  0.28053  1.0000
  H   H22       1.0  0.15102  0.46122  0.27580  1.0000
  H   H23       1.0  0.20716  0.49127  0.22420  1.0000
  H   H24       1.0  0.21271  0.21986  0.18978  1.0000
  H   H25       1.0  0.04464  0.17820  0.23339  1.0000
  C   C32       1.0  0.17555  0.48192  0.08597  1.0000
  H   H26       1.0  0.06660  0.24389  0.23154  1.0000
  C   C33       1.0  0.21353  0.37768  0.23785  1.0000
  H   H27       1.0  0.48627  0.10738  0.24922  1.0000
  C   C34       1.0  0.49643  0.12941  0.25036  1.0000
  C   C35       1.0  0.14387  0.13187  0.25204  1.0000
  N   N1        1.0  0.25857  0.18646  0.21270  1.0000
  C   C36       1.0  0.27349  0.21375  0.20168  1.0000
  C   C37       1.0  0.24539  0.19328  0.24192  1.0000
  C   C38       1.0  0.28205  0.16368  0.21707  1.0000
  C   C39       1.0  0.23460  0.17648  0.19186  1.0000
  C   C40       1.0  0.23173  0.14642  0.18138  1.0000
  C   C41       1.0  0.21246  0.19680  0.18234  1.0000
  C   C42       1.0  0.20844  0.13766  0.16222  1.0000
  C   C43       1.0  0.18941  0.18785  0.16299  1.0000
  C   C44       1.0  0.18742  0.15835  0.15292  1.0000
  H   H28       1.0  0.28169  0.21001  0.17882  1.0000
  H   H29       1.0  0.25865  0.23348  0.20129  1.0000
  H   H30       1.0  0.29305  0.22038  0.21576  1.0000
  H   H31       1.0  0.23288  0.17365  0.25037  1.0000
  H   H32       1.0  0.22959  0.21227  0.24089  1.0000
  H   H33       1.0  0.26275  0.19938  0.25883  1.0000
  H   H34       1.0  0.29253  0.15734  0.19570  1.0000
  H   H35       1.0  0.30025  0.17177  0.23223  1.0000
  H   H36       1.0  0.27299  0.14322  0.22721  1.0000
  H   H37       1.0  0.24764  0.12933  0.18691  1.0000
  C   C45       1.0  0.17645  0.38670  0.07765  1.0000
  H   H38       1.0  0.15756  0.47043  0.23802  1.0000
  C   C46       1.0  0.12336  0.38445  0.08034  1.0000
  H   H39       1.0  0.12627  0.41602  0.02942  1.0000
  H   H40       1.0  0.18028  0.38782  0.10202  1.0000
  H   H41       1.0  0.03259  0.21102  0.25333  1.0000
  C   C47       1.0  0.12943  0.47451  0.11156  1.0000
  S   S17       1.0  0.39865  0.01732  0.17831  1.0000
  H   H42       1.0  0.10853  0.43228  0.10722  1.0000
  H   H43       1.0  0.27954  0.23380  0.04258  1.0000
  C   C48       1.0  0.10125  0.17850  0.25190  1.0000
  H   H44       1.0  0.23611  0.25367  0.06367  1.0000
  C   C49       1.0  0.50241  0.16600  0.17375  1.0000
  H   H45       1.0  0.12433  0.38259  0.10491  1.0000
  C   C50       1.0  0.47862  0.15473  0.24949  1.0000
  H   H46       1.0  0.10543  0.23685  0.23035  1.0000
  N   N2        1.0  0.14871  0.40248  0.06933  1.0000
  C   C51       1.0  0.14616  0.40315  0.03657  1.0000
  H   H47       1.0  0.07030  0.23940  0.28521  1.0000
  H   H48       1.0  0.21400  0.49861  0.16461  1.0000
  H   H49       1.0  0.12361  0.36111  0.07126  1.0000
  H   H50       1.0  0.22958  0.46798  0.30052  1.0000
  S   S18       1.0  0.15548  0.26884  0.32495  1.0000
  C   C52       1.0  0.14972  0.43344  0.08140  1.0000
  C   C53       1.0  0.20345  0.43794  0.25558  1.0000
  H   H51       1.0  0.19658  0.39619  0.06724  1.0000
  H   H52       1.0  0.36774  0.01546  0.11048  1.0000
  N   N3        1.0  0.24936  0.26261  0.01891  1.0000
  H   H53       1.0  0.10884  0.22909  0.28384  1.0000
  H   H54       1.0  0.08296  0.15412  0.28924  1.0000
  H   H55       1.0  0.11964  0.11438  0.28867  1.0000
  H   H56       1.0  0.12775  0.19449  0.21461  1.0000
  S   S19       1.0  0.15252  0.50193  0.18403  1.0000
  H   H57       1.0  0.16397  0.15465  0.21590  1.0000
  H   H58       1.0  0.17550  0.36273  0.07088  1.0000
  C   C54       1.0  0.50424  0.17017  0.10128  1.0000
  C   C55       1.0  0.27069  0.23744  0.01967  1.0000
  H   H59       1.0  0.27343  0.28921  0.05175  1.0000
  C   C56       1.0  0.09964  0.15461  0.27218  1.0000
  H   H60       1.0  0.17444  0.41742  0.28809  1.0000
  H   H61       1.0  0.25711  0.16955  0.32188  1.0000
  C   C57       1.0  0.04901  0.19249  0.25339  1.0000
  H   H62       1.0  0.20997  0.27511  0.04291  1.0000
  N   N4        1.0  0.19729  0.46913  0.26504  1.0000
  H   H63       1.0  0.14395  0.38023  0.02674  1.0000
  N   N5        1.0  0.08021  0.20379  0.25404  1.0000
  H   H64       1.0  0.33790  0.07016  0.32625  1.0000
  C   C58       1.0  0.16011  0.31830  0.01560  1.0000
  H   H65       1.0  0.45462  0.15218  0.24751  1.0000
  C   C59       1.0  0.12468  0.17746  0.23100  1.0000
  H   H66       1.0  0.07986  0.21468  0.20764  1.0000
  C   C60       1.0  0.17368  0.45282  0.07434  1.0000
  H   H67       1.0  0.21717  0.35472  0.23081  1.0000
  C   C61       1.0  0.12066  0.13171  0.27216  1.0000
  C   C62       1.0  0.12743  0.44526  0.10027  1.0000
  H   H68       1.0  0.16600  0.41349  0.02631  1.0000
  H   H69       1.0  0.31119  0.16604  0.31134  1.0000
  H   H70       1.0  0.49459  0.21673  0.09595  1.0000
  H   H71       1.0  0.08272  0.20563  0.30179  1.0000
  H   H72       1.0  0.19144  0.44543  0.06017  1.0000
  H   H73       1.0  0.21375  0.23540  0.03591  1.0000
  H   H74       1.0  0.11286  0.48286  0.12681  1.0000
  H   H75       1.0  0.04357  0.17903  0.27311  1.0000
  H   H76       1.0  0.10155  0.39400  0.07357  1.0000
  C   C63       1.0  0.08565  0.22018  0.28239  1.0000
  H   H77       1.0  0.50104  0.24255  0.23259  1.0000
  C   C64       1.0  0.20572  0.47356  0.29670  1.0000
  H   H78       1.0  0.20198  0.33750  0.03012  1.0000
  S   S20       1.0  0.20739  0.12999  0.30539  1.0000
  H   H79       1.0  0.47635  0.20171  0.24802  1.0000
  H   H80       1.0  0.19221  0.45953  0.31158  1.0000
  C   C65       1.0  0.22616  0.25646  0.04117  1.0000
  C   C66       1.0  0.19456  0.38403  0.26121  1.0000
  H   H81       1.0  0.15955  0.49884  0.26642  1.0000
  C   C67       1.0  0.22767  0.40091  0.22334  1.0000
  C   C68       1.0  0.49156  0.18324  0.24961  1.0000
  H   H82       1.0  0.23386  0.44742  0.21904  1.0000
  C   C69       1.0  0.22269  0.43064  0.23182  1.0000
  H   H83       1.0  0.24224  0.39586  0.20497  1.0000
  H   H84       1.0  0.48211  0.16486  0.10921  1.0000
  H   H85       1.0  0.23831  0.48893  0.24996  1.0000
  H   H86       1.0  0.16077  0.11470  0.25292  1.0000
  C   C70       1.0  0.08320  0.22561  0.22976  1.0000
  H   H87       1.0  0.20253  0.49722  0.30409  1.0000
  H   H88       1.0  0.50312  0.24106  0.27269  1.0000
  C   C71       1.0  0.26520  0.29042  0.02840  1.0000
  C   C72       1.0  0.18658  0.33431  0.01178  1.0000
  H   H89       1.0  0.28509  0.29501  0.01485  1.0000
  H   H90       1.0  0.28343  0.06368  0.32109  1.0000
  H   H91       1.0  0.25984  0.21622  0.01195  1.0000
  H   H92       1.0  0.01888  0.21155  0.32471  1.0000
  C   C73       1.0  0.02201  0.18944  0.33351  1.0000
  Fe  Fe9       1.0  0.18708  0.16236  0.33840  1.0000
  C   C74       1.0  0.29261  0.07664  0.33958  1.0000
  Fe  Fe10      1.0  0.18672  0.19204  0.39984  1.0000
  S   S21       1.0  0.17138  0.14704  0.38274  1.0000
  S   S22       1.0  0.21535  0.20007  0.44113  1.0000
  C   C75       1.0  0.33516  0.09780  0.36552  1.0000
  N   N6        1.0  0.31718  0.44706  0.62241  1.0000
  Fe  Fe11      1.0  0.16079  0.22421  0.34685  1.0000
  H   H93       1.0  0.36648  0.31501  0.60634  1.0000
  S   S23       1.0  0.14264  0.21429  0.39190  1.0000
  H   H94       1.0  0.33879  0.27179  0.58482  1.0000
  H   H95       1.0  0.20586  0.03224  0.54719  1.0000
  Fe  Fe12      1.0  0.20398  0.15397  0.60827  1.0000
  S   S24       1.0  0.24736  0.13757  0.62675  1.0000
  S   S25       1.0  0.18715  0.13756  0.56312  1.0000
  C   C76       1.0  0.32331  0.08021  0.34249  1.0000
  H   H96       1.0  0.34087  0.48864  0.62997  1.0000
  Fe  Fe13      1.0  0.25118  0.18237  0.64948  1.0000
  H   H97       1.0  0.17884  0.08887  0.60028  1.0000
  S   S26       1.0  0.17724  0.13724  0.64660  1.0000
  S   S27       1.0  0.21004  0.20038  0.62754  1.0000
  H   H98       1.0  0.17311  0.15337  0.45669  1.0000
  H   H99       1.0  0.34531  0.47303  0.59382  1.0000
  C   C77       1.0  0.31636  0.11212  0.38563  1.0000
  H   H100      1.0  0.19524  0.07267  0.63238  1.0000
  C   C78       1.0  0.35559  0.26837  0.60185  1.0000
  C   C79       1.0  0.39183  0.28854  0.63702  1.0000
  C   C80       1.0  0.31009  0.30567  0.65435  1.0000
  C   C81       1.0  0.28787  0.29234  0.63631  1.0000
  C   C82       1.0  0.28232  0.26138  0.63758  1.0000
  H   H101      1.0  0.27533  0.30582  0.62094  1.0000
  H   H102      1.0  0.26577  0.25103  0.62305  1.0000
  C   C83       1.0  0.04897  0.18234  0.34790  1.0000
  H   H103      1.0  0.16909  0.03758  0.56167  1.0000
  C   C84       1.0  0.36048  0.23985  0.61269  1.0000
  H   H104      1.0  0.29514  0.49936  0.65035  1.0000
  H   H105      1.0  0.24918  0.50490  0.44084  1.0000
  H   H106      1.0  0.25708  0.02397  0.61661  1.0000
  H   H107      1.0  0.29575  0.40818  0.60236  1.0000
  C   C85       1.0  0.20661  0.18314  0.47503  1.0000
  C   C86       1.0  0.22213  0.19211  0.50093  1.0000
  C   C87       1.0  0.21608  0.17871  0.52823  1.0000
  C   C88       1.0  0.19475  0.15591  0.52966  1.0000
  C   C89       1.0  0.17949  0.14671  0.50368  1.0000
  C   C90       1.0  0.18523  0.16040  0.47648  1.0000
  H   H108      1.0  0.23872  0.20967  0.49994  1.0000
  H   H109      1.0  0.22800  0.18589  0.54808  1.0000
  H   H110      1.0  0.16291  0.12914  0.50464  1.0000
  C   C91       1.0  0.19207  0.04687  0.56157  1.0000
  H   H111      1.0  0.35357  0.43932  0.65240  1.0000
  N   N7        1.0  0.26427  0.12658  0.40191  1.0000
  H   H112      1.0  0.32703  0.12595  0.40248  1.0000
  H   H113      1.0  0.04230  0.18985  0.42249  1.0000
  H   H114      1.0  0.36062  0.42776  0.61511  1.0000
  C   C92       1.0  0.28486  0.10931  0.38300  1.0000
  C   C93       1.0  0.01166  0.22654  0.41880  1.0000
  H   H115      1.0  0.28207  0.44344  0.58972  1.0000
  H   H116      1.0  0.45711  0.26230  0.64702  1.0000
  H   H117      1.0  0.23537  0.16415  0.39692  1.0000
  H   H118      1.0  0.31082  0.49042  0.60296  1.0000
  S   S28       1.0  0.20606  0.20561  0.35608  1.0000
  C   C94       1.0  0.05296  0.15396  0.35973  1.0000
  H   H119      1.0  0.35907  0.10102  0.36719  1.0000
  H   H120      1.0  0.23749  0.14073  0.36476  1.0000
  H   H121      1.0  0.16349  0.05536  0.61474  1.0000
  C   C95       1.0  0.39755  0.25975  0.64851  1.0000
  C   C96       1.0  0.25070  0.15017  0.38374  1.0000
  C   C97       1.0  0.20958  0.01974  0.60464  1.0000
  H   H122      1.0  0.22552  0.11950  0.42890  1.0000
  H   H123      1.0  0.14500  0.29491  0.66358  1.0000
  H   H124      1.0  0.40231  0.30832  0.64656  1.0000
  H   H125      1.0  0.03277  0.11084  0.36651  1.0000
  C   C98       1.0  0.27900  0.14133  0.42801  1.0000
  N   N8        1.0  0.20526  0.04971  0.59181  1.0000
  H   H126      1.0  0.28885  0.40223  0.65229  1.0000
  H   H127      1.0  0.38285  0.21287  0.64358  1.0000
  H   H128      1.0  0.24979  0.05558  0.57540  1.0000
  H   H129      1.0  0.21113  0.50706  0.40084  1.0000
  C   C99       1.0  0.02984  0.13279  0.35722  1.0000
  C   C100      1.0  0.30249  0.43142  0.59692  1.0000
  S   S29       1.0  0.29595  0.20464  0.65673  1.0000
  H   H130      1.0  0.33689  0.40578  0.63749  1.0000
  C   C101      1.0  0.32891  0.47610  0.61186  1.0000
  C   C102      1.0  0.24018  0.10711  0.41322  1.0000
  C   C103      1.0  0.29579  0.45021  0.64695  1.0000
  S   S30       1.0  0.39832  0.37585  0.67284  1.0000
  H   H131      1.0  0.43362  0.21230  0.66152  1.0000
  H   H132      1.0  0.22495  0.09861  0.39537  1.0000
  C   C104      1.0  0.29918  0.24376  0.65678  1.0000
  C   C105      1.0  0.38110  0.23542  0.63567  1.0000
  C   C106      1.0  0.37130  0.29266  0.61393  1.0000
  Fe  Fe14      1.0  0.12854  0.17025  0.37134  1.0000
  C   C107      1.0  0.18474  0.06725  0.61056  1.0000
  C   C108      1.0  0.28312  0.42445  0.65991  1.0000
  H   H133      1.0  0.22926  0.08955  0.57950  1.0000
  H   H134      1.0  0.34721  0.22119  0.60414  1.0000
  C   C109      1.0  0.27359  0.09120  0.35923  1.0000
  H   H135      1.0  0.06633  0.19903  0.35073  1.0000
  H   H136      1.0  0.29491  0.15909  0.42136  1.0000
  H   H137      1.0  0.26257  0.15302  0.44240  1.0000
  C   C110      1.0  0.23330  0.06728  0.58949  1.0000
  H   H138      1.0  0.29078  0.12483  0.44203  1.0000
  C   C111      1.0  0.28680  0.47842  0.65859  1.0000
  H   H139      1.0  0.19022  0.06908  0.55075  1.0000
  H   H140      1.0  0.02872  0.24330  0.42337  1.0000
  H   H141      1.0  0.24954  0.08760  0.42503  1.0000
  H   H142      1.0  0.31757  0.42956  0.57762  1.0000
  S   S31       1.0  0.08577  0.14481  0.37929  1.0000
  Fe  Fe15      1.0  0.22116  0.12351  0.66617  1.0000
  H   H143      1.0  0.24351  0.07196  0.61175  1.0000
  H   H144      1.0  0.44546  0.29560  0.66626  1.0000
  H   H145      1.0  0.26795  0.16530  0.37463  1.0000
  Fe  Fe16      1.0  0.18688  0.18227  0.66747  1.0000
  S   S32       1.0  0.31817  0.34409  0.65138  1.0000
  H   H146      1.0  0.24995  0.08931  0.35467  1.0000
  C   C112      1.0  0.34307  0.42916  0.63222  1.0000
  C   C113      1.0  0.01939  0.19645  0.41848  1.0000
  C   C114      1.0  0.44733  0.27094  0.66794  1.0000
  C   C115      1.0  0.32616  0.28806  0.67408  1.0000
  N   N9        1.0  0.41833  0.25621  0.67395  1.0000
  C   C116      1.0  0.30777  0.35646  0.89444  1.0000
  H   H147      1.0  0.40149  0.29469  0.69740  1.0000
  Fe  Fe17      1.0  0.14730  0.29800  0.83551  1.0000
  S   S33       1.0  0.13021  0.33094  0.80284  1.0000
  S   S34       1.0  0.15508  0.24948  0.82385  1.0000
  Fe  Fe18      1.0  0.15709  0.34574  0.88346  1.0000
  S   S35       1.0  0.14037  0.38229  0.85395  1.0000
  S   S36       1.0  0.18167  0.35889  0.92594  1.0000
  Fe  Fe19      1.0  0.10404  0.34972  0.84077  1.0000
  S   S37       1.0  0.05820  0.36500  0.82579  1.0000
  Fe  Fe20      1.0  0.16768  0.36020  0.81876  1.0000
  S   S38       1.0  0.19336  0.38668  0.78533  1.0000
  S   S39       1.0  0.11861  0.31440  0.87297  1.0000
  S   S40       1.0  0.18685  0.32598  0.84888  1.0000
  H   H148      1.0  0.27894  0.28714  0.72098  1.0000
  C   C117      1.0  0.08449  0.19374  0.74360  1.0000
  Fe  Fe21      1.0  0.35844  0.38548  0.74793  1.0000
  C   C118      1.0  0.06465  0.21300  0.72980  1.0000
  S   S41       1.0  0.33340  0.38453  0.79066  1.0000
  H   H149      1.0  0.44123  0.22273  0.69941  1.0000
  C   C119      1.0  0.23551  0.25139  0.70374  1.0000
  Fe  Fe22      1.0  0.35168  0.36279  0.68472  1.0000
  S   S42       1.0  0.36569  0.34079  0.72674  1.0000
  S   S43       1.0  0.40573  0.40093  0.74205  1.0000
  H   H150      1.0  0.08968  0.22612  0.81134  1.0000
  C   C120      1.0  0.06219  0.24408  0.77506  1.0000
  H   H151      1.0  0.24984  0.25746  0.75934  1.0000
  H   H152      1.0  0.25767  0.31942  0.73055  1.0000
  H   H153      1.0  0.23134  0.43347  0.91470  1.0000
  H   H154      1.0  0.35005  0.47444  0.70678  1.0000
  C   C121      1.0  0.23214  0.38207  0.78338  1.0000
  C   C122      1.0  0.24711  0.36180  0.80142  1.0000
  C   C123      1.0  0.27833  0.36164  0.80250  1.0000
  C   C124      1.0  0.29472  0.38133  0.78515  1.0000
  C   C125      1.0  0.27978  0.40022  0.76564  1.0000
  C   C126      1.0  0.24852  0.40064  0.76486  1.0000
  H   H155      1.0  0.23479  0.34696  0.81532  1.0000
  H   H156      1.0  0.28981  0.34674  0.81736  1.0000
  H   H157      1.0  0.29228  0.41563  0.75232  1.0000
  H   H158      1.0  0.23701  0.41627  0.75082  1.0000
  C   C127      1.0  0.14683  0.32632  0.96378  1.0000
  C   C128      1.0  0.17312  0.34256  0.96003  1.0000
  H   H159      1.0  0.09412  0.17533  0.73119  1.0000
  H   H160      1.0  0.13138  0.32323  0.94537  1.0000
  H   H161      1.0  0.34348  0.29794  0.68772  1.0000
  C   C129      1.0  0.42456  0.22453  0.68103  1.0000
  C   C130      1.0  0.02355  0.35767  0.84231  1.0000
  H   H162      1.0  0.42016  0.26860  0.72035  1.0000
  C   C131      1.0  0.40526  0.27044  0.70054  1.0000
  H   H163      1.0  0.04149  0.34021  0.88288  1.0000
  H   H164      1.0  0.26083  0.28158  0.91815  1.0000
  C   C132      1.0  0.25191  0.44087  0.84314  1.0000
  C   C133      1.0  0.02147  0.34578  0.87064  1.0000
  C   C134      1.0  0.15481  0.22265  0.72550  1.0000
  C   C135      1.0  0.17006  0.20528  0.74619  1.0000
  C   C136      1.0  0.17022  0.21368  0.77639  1.0000
  C   C137      1.0  0.15600  0.23994  0.78582  1.0000
  C   C138      1.0  0.14154  0.25758  0.76491  1.0000
  C   C139      1.0  0.14043  0.24867  0.73503  1.0000
  H   H165      1.0  0.18090  0.18494  0.73909  1.0000
  H   H166      1.0  0.18130  0.19976  0.79246  1.0000
  H   H167      1.0  0.13005  0.27738  0.77184  1.0000
  H   H168      1.0  0.12813  0.26187  0.71926  1.0000
  C   C140      1.0  0.24569  0.27672  0.93596  1.0000
  H   H169      1.0  0.21651  0.23564  0.70673  1.0000
  H   H170      1.0  0.30057  0.41228  0.84572  1.0000
  H   H171      1.0  0.19794  0.42442  0.85340  1.0000
  S   S44       1.0  0.15209  0.21216  0.68781  1.0000
  C   C141      1.0  0.23724  0.26615  0.98849  1.0000
  C   C142      1.0  0.05748  0.29805  0.77200  1.0000
  H   H172      1.0  0.05870  0.29840  0.83007  1.0000
  C   C143      1.0  0.17015  0.33795  0.72130  1.0000
  H   H173      1.0  0.20992  0.25877  0.75766  1.0000
  C   C144      1.0  0.48423  0.33031  0.70799  1.0000
  H   H174      1.0  0.09066  0.27820  0.81782  1.0000
  C   C145      1.0  0.21523  0.27499  0.93000  1.0000
  H   H175      1.0  0.20669  0.27877  0.90778  1.0000
  C   C146      1.0  0.25771  0.29897  0.71621  1.0000
  H   H176      1.0  0.25842  0.30641  0.69282  1.0000
  C   C147      1.0  0.19294  0.34658  0.98410  1.0000
  S   S45       1.0  0.45015  0.32651  0.72658  1.0000
  H   H177      1.0  0.21333  0.35914  0.98126  1.0000
  H   H178      1.0  0.23115  0.29143  0.76787  1.0000
  H   H179      1.0  0.41728  0.48035  0.74912  1.0000
  H   H180      1.0  0.28042  0.27397  0.96828  1.0000
  H   H181      1.0  0.10839  0.18383  0.78369  1.0000
  S   S46       1.0  0.22848  0.16724  0.69059  1.0000
  H   H182      1.0  0.27255  0.45428  0.84716  1.0000
  C   C148      1.0  0.08158  0.22329  0.78884  1.0000
  C   C149      1.0  0.19564  0.26855  0.95268  1.0000
  C   C150      1.0  0.25517  0.45470  0.69446  1.0000
  C   C151      1.0  0.35708  0.49375  0.69455  1.0000
  H   H183      1.0  0.20408  0.39917  0.88281  1.0000
  C   C152      1.0  0.26599  0.40075  0.87784  1.0000
  C   C153      1.0  0.23980  0.44473  0.89465  1.0000
  H   H184      1.0  0.25533  0.42592  0.82358  1.0000
  C   C154      1.0  0.29400  0.39817  0.86373  1.0000
  H   H185      1.0  0.20942  0.33082  0.74682  1.0000
  C   C155      1.0  0.31438  0.37619  0.87188  1.0000
  H   H186      1.0  0.50702  0.29947  0.73648  1.0000
  H   H187      1.0  0.17117  0.06842  0.68004  1.0000
  H   H188      1.0  0.23987  0.45642  0.71276  1.0000
  H   H189      1.0  0.25609  0.23934  0.71051  1.0000
  C   C156      1.0  0.14031  0.31433  0.99155  1.0000
  H   H190      1.0  0.27553  0.34343  0.92668  1.0000
  H   H191      1.0  0.23963  0.38149  0.91313  1.0000
  H   H192      1.0  0.26134  0.45574  0.90088  1.0000
  H   H193      1.0  0.21704  0.39014  0.84657  1.0000
  H   H194      1.0  0.22349  0.46251  0.88910  1.0000
  N   N10       1.0  0.24361  0.42343  0.86956  1.0000
  C   C157      1.0  0.06600  0.27693  0.81973  1.0000
  H   H195      1.0  0.29040  0.24132  0.00564  1.0000
  C   C158      1.0  0.28076  0.35874  0.90911  1.0000
  C   C159      1.0  0.41781  0.50442  0.74661  1.0000
  H   H196      1.0  0.45178  0.50277  0.71379  1.0000
  C   C160      1.0  0.20627  0.26426  0.98155  1.0000
  C   C161      1.0  0.26022  0.38060  0.90108  1.0000
  N   N11       1.0  0.05150  0.27146  0.79035  1.0000
  H   H197      1.0  0.23418  0.45686  0.83664  1.0000
  H   H198      1.0  0.38343  0.26018  0.70596  1.0000
  C   C162      1.0  0.25664  0.27231  0.96472  1.0000
  H   H199      1.0  0.46382  0.26758  0.68625  1.0000
  H   H200      1.0  0.32360  0.33935  0.90043  1.0000
  C   C163      1.0  0.21452  0.40871  0.86289  1.0000
  Fe  Fe23      1.0  0.41174  0.35766  0.71706  1.0000
  C   C164      1.0  0.09253  0.19860  0.77316  1.0000
  N   N12       1.0  0.23141  0.27955  0.72107  1.0000
  H   H201      1.0  0.17190  0.26744  0.94795  1.0000
  C   C165      1.0  0.23056  0.27154  0.75283  1.0000
  C   C166      1.0  0.05329  0.23759  0.74534  1.0000
  C   C167      1.0  0.20403  0.29588  0.71277  1.0000
  C   C168      1.0  0.19592  0.32219  0.72859  1.0000
  H   H202      1.0  0.03789  0.25177  0.73366  1.0000
  H   H203      1.0  0.11979  0.30196  0.99439  1.0000
  H   H204      1.0  0.08144  0.29957  0.76627  1.0000
  H   H205      1.0  0.23778  0.25568  0.67970  1.0000
  S   S47       1.0  0.34120  0.40674  0.70665  1.0000
  H   H206      1.0  0.33520  0.37418  0.86006  1.0000
  H   H207      1.0  0.25441  0.40666  0.69328  1.0000
  H   H208      1.0  0.04433  0.29801  0.75104  1.0000
  S   S48       1.0  0.23558  0.07891  0.68468  1.0000
  H   H209      1.0  0.06039  0.25917  0.83573  1.0000
  S   S49       1.0  0.40627  0.46110  0.67852  1.0000
  H   H210      1.0  0.16433  0.35780  0.73400  1.0000
  H   H211      1.0  0.05859  0.20913  0.70673  1.0000
  C   C169      1.0  0.18505  0.28676  0.68877  1.0000
  H   H212      1.0  0.05153  0.31920  0.78370  1.0000
  C   C170      1.0  0.18210  0.04740  0.68414  1.0000
  C   C171      1.0  0.21304  0.04664  0.68806  1.0000
  C   C172      1.0  0.50887  0.31357  0.71735  1.0000
  Fe  Fe24      1.0  0.38908  0.41831  0.69841  1.0000
  H   H213      1.0  0.18963  0.26002  0.99805  1.0000
  C   C173      1.0  0.15188  0.32823  0.69789  1.0000
  H   H214      1.0  0.33388  0.24360  0.68997  1.0000
  C   C174      1.0  0.22679  0.01935  0.69441  1.0000
  C   C175      1.0  0.16527  0.02082  0.68540  1.0000
  H   H215      1.0  0.38300  0.51237  0.77772  1.0000
  H   H216      1.0  0.14143  0.02148  0.68189  1.0000
  C   C176      1.0  0.48677  0.34848  0.68325  1.0000
  H   H217      1.0  0.26064  0.50224  0.69077  1.0000
  H   H218      1.0  0.13184  0.34042  0.69242  1.0000
  H   H219      1.0  0.25066  0.01864  0.69776  1.0000
  H   H220      1.0  0.40421  0.21272  0.68866  1.0000
  C   C177      1.0  0.01898  0.26904  0.79497  1.0000
  C   C178      1.0  0.15939  0.30277  0.68160  1.0000
  C   C179      1.0  0.26684  0.48046  0.68203  1.0000
  H   H221      1.0  0.01347  0.24914  0.80840  1.0000
  C   C180      1.0  0.32080  0.25724  0.67521  1.0000
  C   C181      1.0  0.26328  0.42674  0.68341  1.0000
  H   H222      1.0  0.46792  0.36143  0.67585  1.0000
  C   C182      1.0  0.38385  0.49321  0.67916  1.0000
  H   H223      1.0  0.18908  0.26693  0.67551  1.0000
  Fe  Fe25      1.0  0.36400  0.80473  0.12411  1.0000
  S   S50       1.0  0.31700  0.81948  0.13306  1.0000
  S   S51       1.0  0.38911  0.79795  0.08145  1.0000
  Fe  Fe26      1.0  0.38121  0.80394  0.18935  1.0000
  S   S52       1.0  0.33639  0.81928  0.20341  1.0000
  S   S53       1.0  0.41903  0.79331  0.22056  1.0000
  Fe  Fe27      1.0  0.31846  0.78596  0.16993  1.0000
  S   S54       1.0  0.28222  0.75948  0.19218  1.0000
  Fe  Fe28      1.0  0.33875  0.85137  0.16595  1.0000
  S   S55       1.0  0.32084  0.89824  0.17211  1.0000
  S   S56       1.0  0.36361  0.76850  0.15825  1.0000
  S   S57       1.0  0.38547  0.83893  0.15466  1.0000
  Fe  Fe29      1.0  0.20232  0.60666  0.18730  1.0000
  S   S58       1.0  0.19276  0.62420  0.23298  1.0000
  S   S59       1.0  0.22592  0.63426  0.15296  1.0000
  Fe  Fe30      1.0  0.17165  0.54695  0.19816  1.0000
  S   S60       1.0  0.15993  0.56056  0.24458  1.0000
  C   C183      1.0  0.05106  0.71456  0.17858  1.0000
  Fe  Fe31      1.0  0.14714  0.60454  0.22536  1.0000
  S   S61       1.0  0.10743  0.62997  0.24281  1.0000
  Fe  Fe32      1.0  0.20646  0.57872  0.24764  1.0000
  S   S62       1.0  0.23334  0.57142  0.28948  1.0000
  S   S63       1.0  0.15554  0.58991  0.17851  1.0000
  S   S64       1.0  0.21941  0.56203  0.20251  1.0000
  H   H224      1.0  0.34320  0.72926  0.20970  1.0000
  H   H225      1.0  0.33535  0.98637  0.24705  1.0000
  S   S65       1.0  0.37016  0.60412  0.29967  1.0000
  C   C184      1.0  0.27054  0.58398  0.28857  1.0000
  C   C185      1.0  0.28015  0.60711  0.30775  1.0000
  C   C186      1.0  0.31060  0.61429  0.31055  1.0000
  C   C187      1.0  0.33161  0.59821  0.29431  1.0000
  C   C188      1.0  0.32184  0.57585  0.27431  1.0000
  C   C189      1.0  0.29142  0.56864  0.27153  1.0000
  N   N13       1.0  0.14548  0.69967  0.18991  1.0000
  H   H226      1.0  0.33794  0.56344  0.26153  1.0000
  H   H227      1.0  0.28425  0.55061  0.25682  1.0000
  H   H228      1.0  0.15925  0.72073  0.14933  1.0000
  C   C190      1.0  0.04826  0.63371  0.17396  1.0000
  C   C191      1.0  0.07414  0.62817  0.19081  1.0000
  C   C192      1.0  0.07456  0.63400  0.22131  1.0000
  C   C193      1.0  0.04866  0.64465  0.23492  1.0000
  C   C194      1.0  0.02257  0.64969  0.21812  1.0000
  H   H229      1.0  0.04833  0.62974  0.15029  1.0000
  H   H230      1.0  0.09383  0.61985  0.18009  1.0000
  H   H231      1.0  0.04885  0.64924  0.25851  1.0000
  H   H232      1.0  0.10153  0.70655  0.23372  1.0000
  C   C195      1.0  0.40950  0.77781  0.25466  1.0000
  C   C196      1.0  0.42716  0.75516  0.26663  1.0000
  C   C197      1.0  0.42070  0.74343  0.29450  1.0000
  C   C198      1.0  0.39735  0.75525  0.31103  1.0000
  C   C199      1.0  0.37950  0.77770  0.29894  1.0000
  C   C200      1.0  0.38518  0.78853  0.27054  1.0000
  H   H233      1.0  0.44588  0.74671  0.25429  1.0000
  H   H234      1.0  0.43442  0.72600  0.30353  1.0000
  H   H235      1.0  0.36134  0.78681  0.31165  1.0000
  H   H236      1.0  0.37128  0.80572  0.26131  1.0000
  C   C201      1.0  0.26780  0.72452  0.18041  1.0000
  C   C202      1.0  0.25124  0.70807  0.20064  1.0000
  C   C203      1.0  0.23885  0.68030  0.19248  1.0000
  C   C204      1.0  0.24206  0.66898  0.16372  1.0000
  C   C205      1.0  0.25843  0.68555  0.14328  1.0000
  C   C206      1.0  0.27160  0.71314  0.15169  1.0000
  H   H237      1.0  0.24817  0.71674  0.22287  1.0000
  H   H238      1.0  0.22700  0.66767  0.20859  1.0000
  H   H239      1.0  0.26113  0.67692  0.12098  1.0000
  H   H240      1.0  0.28423  0.72577  0.13588  1.0000
  C   C207      1.0  0.37692  0.80642  0.04526  1.0000
  C   C208      1.0  0.34793  0.81597  0.03909  1.0000
  H   H241      1.0  0.33190  0.81751  0.05669  1.0000
  C   C209      1.0  0.37651  0.98459  0.17582  1.0000
  C   C210      1.0  0.39055  0.95686  0.17201  1.0000
  C   C211      1.0  0.37377  0.93027  0.16995  1.0000
  C   C212      1.0  0.34280  0.93116  0.17249  1.0000
  C   C213      1.0  0.32874  0.95890  0.17607  1.0000
  C   C214      1.0  0.34549  0.98557  0.17754  1.0000
  H   H242      1.0  0.41454  0.95603  0.17046  1.0000
  H   H243      1.0  0.38487  0.90920  0.16651  1.0000
  H   H244      1.0  0.30476  0.95977  0.17787  1.0000
  C   C215      1.0  0.15186  0.66960  0.17752  1.0000
  H   H245      1.0  0.34161  0.68587  0.18101  1.0000
  H   H246      1.0  0.38398  0.89238  0.30277  1.0000
  H   H247      1.0  0.37491  0.87227  0.03842  1.0000
  C   C216      1.0  0.16309  0.72215  0.17365  1.0000
  C   C217      1.0  0.34478  0.97596  0.09431  1.0000
  H   H248      1.0  0.37572  0.70574  0.21412  1.0000
  H   H249      1.0  0.18060  0.69660  0.22294  1.0000
  N   N14       1.0  0.37732  0.89903  0.07851  1.0000
  C   C218      1.0  0.40672  0.88569  0.08574  1.0000
  C   C219      1.0  0.35438  0.88127  0.09399  1.0000
  C   C220      1.0  0.37227  0.89585  0.04612  1.0000
  C   C221      1.0  0.37522  0.93104  0.08709  1.0000
  C   C222      1.0  0.40049  0.94860  0.09574  1.0000
  C   C223      1.0  0.34736  0.94586  0.08604  1.0000
  H   H250      1.0  0.13848  0.65231  0.18887  1.0000
  H   H251      1.0  0.42493  0.89567  0.07262  1.0000
  C   C224      1.0  0.06334  0.71329  0.20699  1.0000
  H   H252      1.0  0.41213  0.88818  0.10979  1.0000
  H   H253      1.0  0.40716  0.86126  0.08043  1.0000
  C   C225      1.0  0.39766  0.97879  0.10366  1.0000
  H   H254      1.0  0.38508  0.00996  0.24536  1.0000
  H   H255      1.0  0.35760  0.85680  0.09073  1.0000
  H   H256      1.0  0.33139  0.88568  0.08599  1.0000
  C   C226      1.0  0.02244  0.64456  0.18751  1.0000
  C   C227      1.0  0.39738  0.80406  0.02213  1.0000
  H   H257      1.0  0.38844  0.90964  0.03370  1.0000
  H   H258      1.0  0.42261  0.93949  0.09719  1.0000
  H   H259      1.0  0.32724  0.93422  0.07915  1.0000
  C   C228      1.0  0.34470  0.87875  0.25801  1.0000
  H   H260      1.0  0.17575  0.66376  0.18018  1.0000
  H   H261      1.0  0.14558  0.68239  0.23433  1.0000
  C   C229      1.0  0.38915  0.87542  0.22952  1.0000
  H   H262      1.0  0.33140  0.88350  0.23757  1.0000
  H   H263      1.0  0.38923  0.85066  0.23141  1.0000
  H   H264      1.0  0.31709  0.64657  0.15232  1.0000
  C   C230      1.0  0.11320  0.70562  0.18654  1.0000
  C   C231      1.0  0.39228  0.88057  0.28266  1.0000
  H   H265      1.0  0.34391  0.85408  0.26065  1.0000
  H   H266      1.0  0.50229  0.64574  0.33073  1.0000
  H   H267      1.0  0.30113  0.65105  0.26052  1.0000
  C   C232      1.0  0.40847  0.96842  0.24935  1.0000
  C   C233      1.0  0.06931  0.71153  0.15406  1.0000
  C   C234      1.0  0.35503  0.97263  0.24917  1.0000
  H   H268      1.0  0.18752  0.71899  0.17696  1.0000
  C   C235      1.0  0.09992  0.70715  0.15787  1.0000
  H   H269      1.0  0.41658  0.88501  0.28121  1.0000
  H   H270      1.0  0.11302  0.70423  0.13818  1.0000
  H   H271      1.0  0.34950  0.90287  0.03938  1.0000
  C   C236      1.0  0.09387  0.70866  0.21109  1.0000
  H   H272      1.0  0.36782  0.73429  0.24062  1.0000
  H   H273      1.0  0.27622  0.61274  0.23002  1.0000
  H   H274      1.0  0.41266  0.88224  0.22616  1.0000
  H   H275      1.0  0.28449  0.60974  0.17615  1.0000
  H   H276      1.0  0.41982  0.79663  0.02677  1.0000
  H   H277      1.0  0.02719  0.71702  0.17561  1.0000
  N   N15       1.0  0.33916  0.69556  0.24302  1.0000
  C   C237      1.0  0.31665  0.71319  0.25938  1.0000
  C   C238      1.0  0.35922  0.68099  0.26475  1.0000
  C   C239      1.0  0.35725  0.71701  0.22597  1.0000
  C   C240      1.0  0.32421  0.67241  0.22419  1.0000
  C   C241      1.0  0.30524  0.65083  0.23704  1.0000
  C   C242      1.0  0.32820  0.67019  0.19302  1.0000
  C   C243      1.0  0.29114  0.62855  0.21985  1.0000
  C   C244      1.0  0.31429  0.64753  0.17612  1.0000
  C   C245      1.0  0.29586  0.62675  0.18950  1.0000
  H   H278      1.0  0.30362  0.69941  0.27485  1.0000
  H   H279      1.0  0.32720  0.73146  0.27300  1.0000
  H   H280      1.0  0.30065  0.72376  0.24373  1.0000
  H   H281      1.0  0.34691  0.66645  0.28020  1.0000
  H   H282      1.0  0.37172  0.69768  0.27871  1.0000
  H   H283      1.0  0.37577  0.66653  0.25338  1.0000
  C   C246      1.0  0.38306  0.98600  0.24824  1.0000
  H   H284      1.0  0.37644  0.88087  0.20904  1.0000
  C   C247      1.0  0.37775  0.92298  0.25297  1.0000
  H   H285      1.0  0.33324  0.88871  0.27745  1.0000
  H   H286      1.0  0.39001  0.85607  0.28622  1.0000
  H   H287      1.0  0.31780  0.63184  0.32568  1.0000
  H   H288      1.0  0.04887  0.71473  0.22598  1.0000
  H   H289      1.0  0.14667  0.66767  0.15345  1.0000
  N   N16       1.0  0.37576  0.89008  0.25576  1.0000
  H   H290      1.0  0.05951  0.71195  0.13202  1.0000
  H   H291      1.0  0.26405  0.61903  0.32098  1.0000
  H   H292      1.0  0.42636  0.92473  0.25219  1.0000
  C   C248      1.0  0.35222  0.94159  0.25124  1.0000
  H   H293      1.0  0.32980  0.93277  0.25066  1.0000
  H   H294      1.0  0.15539  0.51496  0.11432  1.0000
  C   C249      1.0  0.40598  0.93739  0.25179  1.0000
  H   H295      1.0  0.15764  0.74524  0.18120  1.0000
  H   H296      1.0  0.35504  0.88612  0.11823  1.0000
  C   C250      1.0  0.15616  0.70039  0.22121  1.0000
  H   H297      1.0  0.15171  0.72237  0.23206  1.0000
  H   H298      1.0  0.43017  0.97894  0.24750  1.0000
  S   S66       1.0  0.42641  0.66353  0.33193  1.0000
  C   C251      1.0  0.33965  0.82328  0.00990  1.0000
  H   H299      1.0  0.33446  0.00682  0.18032  1.0000
  H   H300      1.0  0.32314  0.98657  0.09435  1.0000
  H   H301      1.0  0.20917  0.51503  0.25609  1.0000
  H   H302      1.0  0.48318  0.71975  0.33002  1.0000
  Fe  Fe33      1.0  0.38740  0.63252  0.33801  1.0000
  C   C252      1.0  0.36986  0.99236  0.10318  1.0000
  H   H303      1.0  0.41691  0.99161  0.11139  1.0000
  H   H304      1.0  0.51040  0.56327  0.30890  1.0000
  S   S67       1.0  0.24856  0.84519  0.64283  1.0000
  H   H305      1.0  0.35127  0.57010  0.35855  1.0000
  C   C253      1.0  0.23178  0.78802  0.65602  1.0000
  Fe  Fe34      1.0  0.38017  0.64918  0.40323  1.0000
  S   S68       1.0  0.40578  0.61304  0.37998  1.0000
  S   S69       1.0  0.35003  0.63718  0.44125  1.0000
  H   H306      1.0  0.35013  0.76602  0.56330  1.0000
  H   H307      1.0  0.45488  0.72067  0.35727  1.0000
  C   C254      1.0  0.31826  0.72829  0.52977  1.0000
  S   S70       1.0  0.41775  0.68231  0.40259  1.0000
  H   H308      1.0  0.09660  0.85981  0.66131  1.0000
  Fe  Fe35      1.0  0.31306  0.68294  0.65428  1.0000
  S   S71       1.0  0.35694  0.70388  0.64418  1.0000
  S   S72       1.0  0.16797  0.87847  0.66526  1.0000
  H   H309      1.0  0.04665  0.87198  0.64050  1.0000
  S   S73       1.0  0.38571  0.63676  0.65153  1.0000
  H   H310      1.0  0.22757  0.81705  0.57755  1.0000
  H   H311      1.0  0.29771  0.60770  0.40838  1.0000
  Fe  Fe36      1.0  0.36402  0.66324  0.61528  1.0000
  S   S74       1.0  0.38867  0.67269  0.57303  1.0000
  S   S75       1.0  0.31831  0.64412  0.62260  1.0000
  C   C255      1.0  0.36091  0.64689  0.47790  1.0000
  C   C256      1.0  0.38730  0.66267  0.48380  1.0000
  C   C257      1.0  0.39547  0.67020  0.51313  1.0000
  C   C258      1.0  0.37746  0.66188  0.53681  1.0000
  C   C259      1.0  0.35101  0.64605  0.53099  1.0000
  C   C260      1.0  0.34272  0.63868  0.50157  1.0000
  H   H312      1.0  0.40152  0.66901  0.46582  1.0000
  H   H313      1.0  0.41597  0.68241  0.51749  1.0000
  H   H314      1.0  0.33706  0.63937  0.54909  1.0000
  H   H315      1.0  0.32228  0.62643  0.49714  1.0000
  C   C261      1.0  0.23751  0.00986  0.61594  1.0000
  Fe  Fe37      1.0  0.44238  0.64735  0.37635  1.0000
  H   H316      1.0  0.16310  0.00576  0.59944  1.0000
  C   C262      1.0  0.47878  0.71534  0.35369  1.0000
  C   C263      1.0  0.26486  0.74522  0.65471  1.0000
  C   C264      1.0  0.28850  0.76403  0.64718  1.0000
  C   C265      1.0  0.28352  0.79479  0.64341  1.0000
  C   C266      1.0  0.25511  0.80684  0.64793  1.0000
  H   H317      1.0  0.32857  0.61290  0.38429  1.0000
  H   H318      1.0  0.04973  0.79269  0.63599  1.0000
  H   H319      1.0  0.31041  0.75489  0.64403  1.0000
  H   H320      1.0  0.30167  0.80932  0.63724  1.0000
  H   H321      1.0  0.03194  0.74353  0.65255  1.0000
  C   C267      1.0  0.34125  0.74648  0.57522  1.0000
  H   H322      1.0  0.33781  0.75346  0.59866  1.0000
  H   H323      1.0  0.32758  0.57219  0.43576  1.0000
  C   C268      1.0  0.23769  0.53517  0.37328  1.0000
  H   H324      1.0  0.30262  0.70853  0.60002  1.0000
  C   C269      1.0  0.24413  0.80007  0.57316  1.0000
  C   C270      1.0  0.30691  0.70541  0.57593  1.0000
  H   H325      1.0  0.29266  0.60428  0.36912  1.0000
  C   C271      1.0  0.28707  0.54989  0.39293  1.0000
  S   S76       1.0  0.39143  0.74410  0.34764  1.0000
  H   H326      1.0  0.35942  0.72963  0.57504  1.0000
  N   N17       1.0  0.31510  0.56703  0.38955  1.0000
  C   C272      1.0  0.02270  0.84402  0.67060  1.0000
  C   C273      1.0  0.01941  0.75546  0.63584  1.0000
  H   H327      1.0  0.33632  0.71163  0.52639  1.0000
  H   H328      1.0  0.35747  0.57660  0.41101  1.0000
  C   C274      1.0  0.18867  0.97109  0.61852  1.0000
  H   H329      1.0  0.29774  0.71921  0.51871  1.0000
  N   N18       1.0  0.31325  0.73439  0.56167  1.0000
  C   C275      1.0  0.30814  0.59927  0.38765  1.0000
  H   H330      1.0  0.31292  0.79309  0.54461  1.0000
  H   H331      1.0  0.02101  0.82113  0.60009  1.0000
  H   H332      1.0  0.48175  0.69097  0.35704  1.0000
  S   S77       1.0  0.48912  0.63779  0.39356  1.0000
  H   H333      1.0  0.21871  0.76516  0.59308  1.0000
  C   C276      1.0  0.23662  0.75735  0.65929  1.0000
  H   H334      1.0  0.32496  0.74871  0.51779  1.0000
  C   C277      1.0  0.23921  0.77081  0.58198  1.0000
  C   C278      1.0  0.27071  0.80766  0.55960  1.0000
  H   H335      1.0  0.46485  0.73351  0.40788  1.0000
  H   H336      1.0  0.21880  0.94016  0.63886  1.0000
  H   H337      1.0  0.28746  0.69370  0.56544  1.0000
  C   C279      1.0  0.24073  0.98129  0.62768  1.0000
  H   H338      1.0  0.38198  0.56362  0.65093  1.0000
  H   H339      1.0  0.26204  0.97441  0.63675  1.0000
  C   C280      1.0  0.21640  0.96194  0.62891  1.0000
  C   C281      1.0  0.37510  0.54432  0.66330  1.0000
  C   C282      1.0  0.33666  0.56348  0.41449  1.0000
  C   C283      1.0  0.29271  0.78611  0.55525  1.0000
  H   H340      1.0  0.27447  0.83055  0.55303  1.0000
  H   H341      1.0  0.47096  0.77209  0.37287  1.0000
  H   H342      1.0  0.25614  0.72728  0.58657  1.0000
  Fe  Fe38      1.0  0.33934  0.62098  0.66145  1.0000
  H   H343      1.0  0.32599  0.68981  0.57398  1.0000
  C   C284      1.0  0.28895  0.75635  0.56508  1.0000
  C   C285      1.0  0.26118  0.74916  0.57813  1.0000
  C   C286      1.0  0.18521  0.99950  0.60655  1.0000
  H   H344      1.0  0.29621  0.53138  0.43689  1.0000
  S   S78       1.0  0.35915  0.66608  0.36131  1.0000
  H   H345      1.0  0.22093  0.53648  0.35581  1.0000
  C   C287      1.0  0.28073  0.53293  0.41849  1.0000
  C   C288      1.0  0.07681  0.84980  0.67040  1.0000
  Fe  Fe39      1.0  0.39917  0.69586  0.35844  1.0000
  C   C289      1.0  0.02941  0.78318  0.62645  1.0000
  H   H346      1.0  0.16957  0.95638  0.62071  1.0000
  C   C290      1.0  0.33024  0.55732  0.36204  1.0000
  H   H347      1.0  0.33588  0.53317  0.36262  1.0000
  H   H348      1.0  0.34336  0.53979  0.41710  1.0000
  S   S79       1.0  0.26916  0.70640  0.65834  1.0000
  H   H349      1.0  0.26761  0.56313  0.35049  1.0000
  H   H350      1.0  0.20968  0.79693  0.65889  1.0000
  H   H351      1.0  0.21824  0.74293  0.66512  1.0000
  C   C291      1.0  0.25365  0.51757  0.42109  1.0000
  N   N19       1.0  0.49853  0.73278  0.37409  1.0000
  H   H352      1.0  0.48978  0.70277  0.40997  1.0000
  H   H353      1.0  0.41367  0.51828  0.65183  1.0000
  C   C292      1.0  0.26466  0.55047  0.37043  1.0000
  C   C293      1.0  0.04854  0.85659  0.65864  1.0000
  C   C294      1.0  0.01280  0.79924  0.60576  1.0000
  C   C295      1.0  0.39291  0.51860  0.66370  1.0000
  C   C296      1.0  0.23218  0.51873  0.39857  1.0000
  H   H354      1.0  0.48287  0.57438  0.35476  1.0000
  H   H355      1.0  0.50196  0.73995  0.42143  1.0000
  C   C297      1.0  0.48853  0.72702  0.40473  1.0000
  C   C298      1.0  0.49427  0.76503  0.36837  1.0000
  C   C299      1.0  0.50532  0.56565  0.35603  1.0000
  H   H356      1.0  0.49844  0.77071  0.34491  1.0000
  H   H357      1.0  0.50713  0.56795  0.40346  1.0000
  H   H358      1.0  0.31641  0.56074  0.34187  1.0000
  H   H359      1.0  0.50953  0.77897  0.38255  1.0000
  H   H360      1.0  0.43555  0.63511  0.70722  1.0000
  S   S80       1.0  0.16329  0.88964  0.73751  1.0000
  H   H361      1.0  0.27190  0.74841  0.71667  1.0000
  C   C300      1.0  0.34812  0.54466  0.67835  1.0000
  S   S81       1.0  0.20056  0.83302  0.71191  1.0000
  C   C301      1.0  0.38617  0.60871  0.72460  1.0000
  C   C302      1.0  0.08712  0.92448  0.69467  1.0000
  Fe  Fe40      1.0  0.21013  0.87292  0.74083  1.0000
  S   S82       1.0  0.23186  0.86278  0.78469  1.0000
  H   H362      1.0  0.40865  0.61127  0.77949  1.0000
  Fe  Fe41      1.0  0.44203  0.82364  0.88506  1.0000
  S   S83       1.0  0.41663  0.78732  0.90819  1.0000
  H   H363      1.0  0.22084  0.97193  0.70058  1.0000
  Fe  Fe42      1.0  0.38770  0.84129  0.84793  1.0000
  S   S84       1.0  0.35872  0.80717  0.86907  1.0000
  S   S85       1.0  0.36984  0.87189  0.81241  1.0000
  Fe  Fe43      1.0  0.38030  0.82129  0.91214  1.0000
  S   S86       1.0  0.34929  0.83059  0.95051  1.0000
  Fe  Fe44      1.0  0.39740  0.77669  0.86290  1.0000
  S   S87       1.0  0.38599  0.73019  0.84585  1.0000
  S   S88       1.0  0.40653  0.85828  0.89152  1.0000
  S   S89       1.0  0.42581  0.81005  0.83938  1.0000
  H   H364      1.0  0.20192  0.90193  0.85221  1.0000
  H   H365      1.0  0.47306  0.73067  0.80138  1.0000
  H   H366      1.0  0.05548  0.80170  0.72371  1.0000
  C   C303      1.0  0.49534  0.73937  0.80473  1.0000
  C   C304      1.0  0.39012  0.72276  0.80774  1.0000
  C   C305      1.0  0.40952  0.73977  0.79079  1.0000
  C   C306      1.0  0.41487  0.73158  0.76125  1.0000
  C   C307      1.0  0.39998  0.70708  0.74809  1.0000
  C   C308      1.0  0.37939  0.69092  0.76453  1.0000
  C   C309      1.0  0.37488  0.69845  0.79447  1.0000
  H   H367      1.0  0.42122  0.75863  0.80063  1.0000
  H   H368      1.0  0.43077  0.74419  0.74857  1.0000
  H   H369      1.0  0.36773  0.67203  0.75458  1.0000
  H   H370      1.0  0.35975  0.68529  0.80749  1.0000
  C   C310      1.0  0.43722  0.61050  0.71036  1.0000
  C   C311      1.0  0.38906  0.81117  0.99299  1.0000
  C   C312      1.0  0.36018  0.82080  0.98677  1.0000
  C   C313      1.0  0.26840  0.93027  0.83135  1.0000
  S   S90       1.0  0.15747  0.96041  0.69123  1.0000
  H   H371      1.0  0.40506  0.80925  0.97539  1.0000
  H   H372      1.0  0.10963  0.91414  0.69460  1.0000
  C   C314      1.0  0.27098  0.86307  0.78729  1.0000
  C   C315      1.0  0.28787  0.88687  0.77660  1.0000
  C   C316      1.0  0.31846  0.88908  0.78370  1.0000
  C   C317      1.0  0.33234  0.86710  0.80079  1.0000
  C   C318      1.0  0.31578  0.84229  0.80946  1.0000
  C   C319      1.0  0.28512  0.84059  0.80330  1.0000
  H   H373      1.0  0.27706  0.90435  0.76427  1.0000
  H   H374      1.0  0.33117  0.90819  0.77656  1.0000
  H   H375      1.0  0.32638  0.82457  0.82127  1.0000
  H   H376      1.0  0.27218  0.82200  0.81132  1.0000
  H   H377      1.0  0.06232  0.88063  0.72619  1.0000
  C   C320      1.0  0.02531  0.82391  0.69382  1.0000
  H   H378      1.0  0.46089  0.60600  0.71623  1.0000
  C   C321      1.0  0.39842  0.55342  0.75847  1.0000
  C   C322      1.0  0.29318  0.83823  0.71302  1.0000
  H   H379      1.0  0.36936  0.60434  0.74182  1.0000
  H   H380      1.0  0.42512  0.64051  0.75874  1.0000
  C   C323      1.0  0.04453  0.93887  0.72372  1.0000
  H   H381      1.0  0.45134  0.71755  0.87691  1.0000
  H   H382      1.0  0.09901  0.96917  0.73207  1.0000
  N   N20       1.0  0.07537  0.92736  0.72509  1.0000
  H   H383      1.0  0.32378  0.74397  0.70106  1.0000
  C   C324      1.0  0.39842  0.52250  0.76253  1.0000
  N   N21       1.0  0.29494  0.87799  0.89248  1.0000
  C   C325      1.0  0.32725  0.88295  0.88781  1.0000
  C   C326      1.0  0.28831  0.88744  0.92329  1.0000
  C   C327      1.0  0.28910  0.84540  0.88932  1.0000
  C   C328      1.0  0.27574  0.89461  0.87160  1.0000
  C   C329      1.0  0.28727  0.91493  0.85064  1.0000
  C   C330      1.0  0.24432  0.89096  0.87209  1.0000
  H   H384      1.0  0.07265  0.91044  0.68002  1.0000
  C   C331      1.0  0.22573  0.90606  0.85237  1.0000
  H   H385      1.0  0.09832  0.88811  0.74074  1.0000
  H   H386      1.0  0.33376  0.90676  0.89132  1.0000
  H   H387      1.0  0.34110  0.86995  0.90351  1.0000
  H   H388      1.0  0.33385  0.87570  0.86517  1.0000
  H   H389      1.0  0.29186  0.91192  0.92647  1.0000
  H   H390      1.0  0.30286  0.87579  0.93961  1.0000
  H   H391      1.0  0.26496  0.88227  0.92934  1.0000
  H   H392      1.0  0.29229  0.83767  0.86610  1.0000
  H   H393      1.0  0.30431  0.83217  0.90367  1.0000
  H   H394      1.0  0.26618  0.83902  0.89567  1.0000
  H   H395      1.0  0.31084  0.91877  0.84799  1.0000
  H   H396      1.0  0.23389  0.87594  0.88735  1.0000
  C   C332      1.0  0.32024  0.85289  0.71795  1.0000
  S   S91       1.0  0.40963  0.69582  0.71205  1.0000
  H   H397      1.0  0.05217  0.98175  0.74707  1.0000
  C   C333      1.0  0.43739  0.54804  0.72225  1.0000
  C   C334      1.0  0.34390  0.83784  0.73106  1.0000
  H   H398      1.0  0.27779  0.72527  0.74769  1.0000
  H   H399      1.0  0.36473  0.84956  0.73556  1.0000
  H   H400      1.0  0.26343  0.76222  0.75346  1.0000
  N   N22       1.0  0.31029  0.76084  0.74360  1.0000
  C   C335      1.0  0.32995  0.74215  0.72494  1.0000
  C   C336      1.0  0.31932  0.75767  0.77517  1.0000
  H   H401      1.0  0.45264  0.55615  0.70592  1.0000
  C   C337      1.0  0.31318  0.79245  0.73475  1.0000
  C   C338      1.0  0.28953  0.80846  0.72118  1.0000
  C   C339      1.0  0.34060  0.80800  0.73914  1.0000
  H   H402      1.0  0.44721  0.60898  0.76969  1.0000
  H   H403      1.0  0.06616  0.89857  0.76172  1.0000
  C   C340      1.0  0.42477  0.61578  0.76162  1.0000
  H   H404      1.0  0.32841  0.71813  0.73075  1.0000
  H   H405      1.0  0.43185  0.59990  0.68842  1.0000
  H   H406      1.0  0.47910  0.75608  0.90134  1.0000
  H   H407      1.0  0.34338  0.76233  0.77915  1.0000
  H   H408      1.0  0.31555  0.73455  0.78315  1.0000
  C   C341      1.0  0.17918  0.99344  0.69108  1.0000
  H   H409      1.0  0.49900  0.70329  0.89663  1.0000
  N   N23       1.0  0.41669  0.59987  0.73357  1.0000
  C   C342      1.0  0.07550  0.89752  0.73904  1.0000
  H   H410      1.0  0.35378  0.74876  0.72738  1.0000
  Fe  Fe45      1.0  0.15495  0.85213  0.70500  1.0000
  C   C343      1.0  0.03628  0.96700  0.73610  1.0000
  C   C344      1.0  0.46262  0.72303  0.85583  1.0000
  H   H411      1.0  0.32267  0.87614  0.71206  1.0000
  C   C345      1.0  0.02160  0.92178  0.70945  1.0000
  H   H412      1.0  0.02611  0.90037  0.69917  1.0000
  H   H413      1.0  0.47762  0.90470  0.89281  1.0000
  H   H414      1.0  0.35970  0.79730  0.74905  1.0000
  H   H415      1.0  0.30657  0.77326  0.78962  1.0000
  H   H416      1.0  0.27477  0.85007  0.70295  1.0000
  H   H417      1.0  0.22338  0.93647  0.81604  1.0000
  Fe  Fe46      1.0  0.17901  0.91532  0.69830  1.0000
  C   C346      1.0  0.41770  0.56715  0.73796  1.0000
  C   C347      1.0  0.09635  0.94687  0.74238  1.0000
  C   C348      1.0  0.07939  0.83028  0.69413  1.0000
  H   H418      1.0  0.46198  0.70237  0.84183  1.0000
  H   H419      1.0  0.49562  0.82996  0.83762  1.0000
  H   H420      1.0  0.37881  0.59630  0.70426  1.0000
  S   S92       1.0  0.33031  0.65845  0.69374  1.0000
  C   C349      1.0  0.27948  0.74881  0.74025  1.0000
  H   H421      1.0  0.08922  0.94978  0.76572  1.0000
  H   H422      1.0  0.08922  0.94670  0.68411  1.0000
  S   S93       1.0  0.11414  0.82289  0.71098  1.0000
  C   C350      1.0  0.05361  0.81697  0.70544  1.0000
  S   S94       1.0  0.22695  0.90194  0.70451  1.0000
  C   C351      1.0  0.23776  0.92561  0.83199  1.0000
  H   H423      1.0  0.26790  0.79865  0.71655  1.0000
  S   S95       1.0  0.48911  0.83336  0.90180  1.0000
  H   H424      1.0  0.27771  0.94492  0.81492  1.0000
  C   C352      1.0  0.49161  0.76080  0.88079  1.0000
  C   C353      1.0  0.20994  0.99285  0.69600  1.0000
  H   H425      1.0  0.11919  0.93734  0.74306  1.0000
  C   C354      1.0  0.33935  0.51946  0.69420  1.0000
  C   C355      1.0  0.50883  0.74253  0.83332  1.0000
  H   H426      1.0  0.38283  0.56645  0.77121  1.0000
  H   H427      1.0  0.38498  0.63299  0.71992  1.0000
  C   C356      1.0  0.50128  0.90962  0.89220  1.0000
  Fe  Fe47      1.0  0.37490  0.67598  0.68098  1.0000
  N   N24       1.0  0.49348  0.73427  0.86089  1.0000
  H   H428      1.0  0.44854  0.74026  0.84515  1.0000
  H   H429      1.0  0.31864  0.51977  0.70615  1.0000
  H   H430      1.0  0.49955  0.74562  0.75771  1.0000
  H   H431      1.0  0.48004  0.77938  0.86942  1.0000
  S   S96       1.0  0.32416  0.57559  0.67707  1.0000
  H   H432      1.0  0.50485  0.89791  0.84618  1.0000
  H   H433      1.0  0.50437  0.92129  0.93836  1.0000
  C   C357      1.0  0.51040  0.74784  0.77925  1.0000
  C   C358      1.0  0.43735  0.51718  0.72669  1.0000
  H   H434      1.0  0.31720  0.83057  0.00517  1.0000
  C   C359      1.0  0.51046  0.71066  0.87624  1.0000
  Fe  Fe48      1.0  0.21454  0.86259  0.67506  1.0000
  C   C360      1.0  0.80831  0.36416  0.30997  1.0000
  S   S97       1.0  0.91541  0.10565  0.29210  1.0000
  H   H435      1.0  0.74192  0.25310  0.32141  1.0000
  Fe  Fe49      1.0  0.86889  0.12333  0.28769  1.0000
  S   S98       1.0  0.84479  0.12177  0.24349  1.0000
  N   N25       1.0  0.78185  0.38310  0.31553  1.0000
  C   C361      1.0  0.75465  0.20448  0.28976  1.0000
  H   H436      1.0  0.86264  0.06443  0.26552  1.0000
  Fe  Fe50      1.0  0.66132  0.17791  0.15489  1.0000
  S   S99       1.0  0.65782  0.13043  0.17030  1.0000
  S   S100      1.0  0.67565  0.19469  0.10999  1.0000
  Fe  Fe51      1.0  0.63689  0.20343  0.21270  1.0000
  S   S101      1.0  0.63013  0.15828  0.23185  1.0000
  S   S102      1.0  0.62680  0.24622  0.23747  1.0000
  Fe  Fe52      1.0  0.67552  0.14851  0.21403  1.0000
  S   S103      1.0  0.70422  0.12751  0.24933  1.0000
  Fe  Fe53      1.0  0.61289  0.14440  0.18695  1.0000
  S   S104      1.0  0.57429  0.11192  0.18138  1.0000
  S   S105      1.0  0.68321  0.19479  0.19728  1.0000
  S   S106      1.0  0.61529  0.19084  0.16906  1.0000
  S   S107      1.0  0.88028  0.16693  0.31016  1.0000
  H   H437      1.0  0.73471  0.38015  0.30505  1.0000
  H   H438      1.0  0.68726  0.45305  0.31671  1.0000
  C   C362      1.0  0.56155  0.18434  0.08263  1.0000
  C   C363      1.0  0.63648  0.24786  0.27541  1.0000
  C   C364      1.0  0.63747  0.22199  0.29238  1.0000
  C   C365      1.0  0.64288  0.22409  0.32306  1.0000
  H   H439      1.0  0.58358  0.19100  0.07577  1.0000
  C   C366      1.0  0.64831  0.27770  0.31967  1.0000
  C   C367      1.0  0.64173  0.27571  0.28919  1.0000
  H   H440      1.0  0.63337  0.20041  0.28206  1.0000
  N   N26       1.0  0.85607  0.01678  0.25932  1.0000
  H   H441      1.0  0.68824  0.50580  0.33481  1.0000
  H   H442      1.0  0.64081  0.29584  0.27625  1.0000
  C   C368      1.0  0.53193  0.15580  0.17520  1.0000
  C   C369      1.0  0.53761  0.12535  0.17821  1.0000
  H   H443      1.0  0.60289  0.15099  0.05157  1.0000
  H   H444      1.0  0.54966  0.09323  0.07972  1.0000
  H   H445      1.0  0.55025  0.17141  0.17396  1.0000
  C   C370      1.0  0.53990  0.20655  0.08474  1.0000
  C   C371      1.0  0.67013  0.12562  0.05048  1.0000
  C   C372      1.0  0.67203  0.14200  0.07728  1.0000
  C   C373      1.0  0.67215  0.17322  0.07702  1.0000
  C   C374      1.0  0.67050  0.18787  0.04980  1.0000
  H   H446      1.0  0.51888  0.12583  0.10627  1.0000
  H   H447      1.0  0.67013  0.10145  0.05081  1.0000
  H   H448      1.0  0.67395  0.13050  0.09811  1.0000
  H   H449      1.0  0.67042  0.21204  0.04945  1.0000
  C   C375      1.0  0.80575  0.12445  0.24505  1.0000
  C   C376      1.0  0.79114  0.12161  0.27198  1.0000
  C   C377      1.0  0.76001  0.12274  0.27289  1.0000
  C   C378      1.0  0.74324  0.12751  0.24703  1.0000
  C   C379      1.0  0.75777  0.13090  0.22008  1.0000
  C   C380      1.0  0.78901  0.12898  0.21906  1.0000
  H   H450      1.0  0.80371  0.11817  0.29210  1.0000
  H   H451      1.0  0.74890  0.11967  0.29372  1.0000
  H   H452      1.0  0.74491  0.13440  0.20002  1.0000
  H   H453      1.0  0.80021  0.13117  0.19815  1.0000
  H   H454      1.0  0.56963  0.24289  0.27610  1.0000
  H   H455      1.0  0.61434  0.16045  0.10342  1.0000
  H   H456      1.0  0.80482  0.20019  0.21945  1.0000
  C   C381      1.0  0.70949  0.18477  0.31122  1.0000
  C   C382      1.0  0.52575  0.14779  0.09938  1.0000
  C   C383      1.0  0.51644  0.24218  0.25212  1.0000
  H   H457      1.0  0.79630  0.19216  0.31264  1.0000
  C   C384      1.0  0.87179  0.04280  0.27307  1.0000
  C   C385      1.0  0.51368  0.10506  0.17887  1.0000
  H   H458      1.0  0.83347  0.26383  0.33762  1.0000
  H   H459      1.0  0.71991  0.21616  0.25773  1.0000
  C   C386      1.0  0.75595  0.16105  0.04069  1.0000
  H   H460      1.0  0.70859  0.24310  0.30084  1.0000
  C   C387      1.0  0.77589  0.04112  0.27059  1.0000
  H   H461      1.0  0.81277  0.36174  0.28589  1.0000
  H   H462      1.0  0.87000  0.04257  0.29756  1.0000
  H   H463      1.0  0.52826  0.26417  0.25259  1.0000
  C   C388      1.0  0.80327  0.19635  0.26676  1.0000
  C   C389      1.0  0.74311  0.21066  0.26109  1.0000
  H   H464      1.0  0.53884  0.21697  0.20252  1.0000
  N   N27       1.0  0.73495  0.20571  0.31577  1.0000
  H   H465      1.0  0.71733  0.16161  0.30685  1.0000
  N   N28       1.0  0.57864  0.13124  0.08771  1.0000
  H   H466      1.0  0.62054  0.12158  0.10939  1.0000
  C   C390      1.0  0.56807  0.10069  0.09488  1.0000
  C   C391      1.0  0.59079  0.13014  0.05729  1.0000
  C   C392      1.0  0.55512  0.15420  0.08974  1.0000
  H   H467      1.0  0.84827  0.04107  0.21886  1.0000
  C   C393      1.0  0.75600  0.36867  0.30016  1.0000
  H   H468      1.0  0.60725  0.11183  0.05451  1.0000
  C   C394      1.0  0.52304  0.18715  0.25070  1.0000
  C   C395      1.0  0.78547  0.19746  0.29192  1.0000
  C   C396      1.0  0.60306  0.13907  0.10883  1.0000
  C   C397      1.0  0.78516  0.41424  0.30534  1.0000
  H   H469      1.0  0.59440  0.14152  0.13162  1.0000
  H   H470      1.0  0.58618  0.08393  0.09293  1.0000
  H   H471      1.0  0.75290  0.34509  0.30713  1.0000
  H   H472      1.0  0.56035  0.09952  0.11821  1.0000
  H   H473      1.0  0.71351  0.26044  0.05120  1.0000
  H   H474      1.0  0.76184  0.05990  0.26496  1.0000
  H   H475      1.0  0.69506  0.19078  0.29207  1.0000
  C   C398      1.0  0.52730  0.13244  0.25120  1.0000
  H   H476      1.0  0.74674  0.48043  0.30551  1.0000
  H   H477      1.0  0.65242  0.29929  0.33008  1.0000
  H   H478      1.0  0.54544  0.22944  0.07938  1.0000
  C   C399      1.0  0.79109  0.20208  0.23893  1.0000
  S   S108      1.0  0.96521  0.17794  0.31330  1.0000
  C   C400      1.0  0.76109  0.20929  0.23610  1.0000
  C   C401      1.0  0.55913  0.22024  0.27524  1.0000
  H   H479      1.0  0.75867  0.36873  0.27571  1.0000
  H   H480      1.0  0.75153  0.21324  0.21435  1.0000
  H   H481      1.0  0.56499  0.24218  0.22038  1.0000
  H   H482      1.0  0.57275  0.12652  0.04047  1.0000
  H   H483      1.0  0.82647  0.18995  0.26869  1.0000
  C   C402      1.0  0.54048  0.16081  0.25124  1.0000
  C   C403      1.0  0.82462  0.01652  0.26881  1.0000
  H   H484      1.0  0.89594  0.04303  0.26783  1.0000
  H   H485      1.0  0.82953  0.41049  0.28568  1.0000
  C   C404      1.0  0.55402  0.21987  0.22202  1.0000
  H   H486      1.0  0.76752  0.17367  0.05895  1.0000
  N   N29       1.0  0.76047  0.17536  0.01160  1.0000
  H   H487      1.0  0.57202  0.20307  0.21994  1.0000
  Fe  Fe54      1.0  0.89934  0.08651  0.33484  1.0000
  C   C405      1.0  0.80569  0.04086  0.26207  1.0000
  N   N30       1.0  0.53764  0.21692  0.25009  1.0000
  C   C406      1.0  0.72421  0.24992  0.03237  1.0000
  H   H488      1.0  0.56450  0.16184  0.25074  1.0000
  H   H489      1.0  0.73183  0.15926  0.04593  1.0000
  C   C407      1.0  0.72338  0.23649  0.31954  1.0000
  H   H490      1.0  0.81383  0.05999  0.25020  1.0000
  H   H491      1.0  0.57802  0.20446  0.27350  1.0000
  H   H492      1.0  0.82847  0.37333  0.32158  1.0000
  H   H493      1.0  0.51796  0.08144  0.18105  1.0000
  H   H494      1.0  0.76476  0.13787  0.04097  1.0000
  C   C408      1.0  0.81088  0.42473  0.29054  1.0000
  H   H495      1.0  0.88060  0.01834  0.21858  1.0000
  C   C409      1.0  0.81317  0.45446  0.28152  1.0000
  H   H496      1.0  0.83294  0.46212  0.27029  1.0000
  C   C410      1.0  0.85731  0.01941  0.22664  1.0000
  H   H497      1.0  0.79202  0.49752  0.27999  1.0000
  H   H498      1.0  0.64290  0.20409  0.33621  1.0000
  H   H499      1.0  0.80489  0.19115  0.02147  1.0000
  C   C411      1.0  0.76414  0.01742  0.28636  1.0000
  H   H500      1.0  0.54813  0.21642  0.29679  1.0000
  C   C412      1.0  0.64866  0.25189  0.33673  1.0000
  C   C413      1.0  0.66899  0.17152  0.02296  1.0000
  H   H501      1.0  0.69480  0.18429  0.33085  1.0000
  H   H502      1.0  0.74108  0.01786  0.29310  1.0000
  H   H503      1.0  0.73197  0.21015  0.05570  1.0000
  C   C414      1.0  0.79015  0.47448  0.28693  1.0000
  H   H504      1.0  0.80507  0.34106  0.31845  1.0000
  C   C415      1.0  0.66877  0.14030  0.02323  1.0000
  H   H505      1.0  0.54115  0.11268  0.25054  1.0000
  C   C416      1.0  0.73503  0.22079  0.03464  1.0000
  C   C417      1.0  0.76466  0.46485  0.30124  1.0000
  C   C418      1.0  0.99884  0.16829  0.33116  1.0000
  Fe  Fe55      1.0  0.92540  0.14722  0.31878  1.0000
  S   S109      1.0  0.85208  0.10132  0.32864  1.0000
  H   H506      1.0  0.74184  0.42878  0.32106  1.0000
  C   C419      1.0  0.74872  0.20618  0.01019  1.0000
  C   C420      1.0  0.76210  0.43521  0.31019  1.0000
  H   H507      1.0  0.59692  0.50761  0.32332  1.0000
  C   C421      1.0  0.51129  0.19947  0.09402  1.0000
  H   H508      1.0  0.70996  0.23884  0.33999  1.0000
  H   H509      1.0  0.98512  0.12345  0.34126  1.0000
  C   C422      1.0  0.68906  0.45788  0.34021  1.0000
  C   C423      1.0  0.85983  0.01367  0.35096  1.0000
  Fe  Fe56      1.0  0.86685  0.14404  0.35160  1.0000
  S   S110      1.0  0.83905  0.16655  0.38682  1.0000
  S   S111      1.0  0.91277  0.12703  0.36208  1.0000
  Fe  Fe57      1.0  0.67069  0.29086  0.64448  1.0000
  H   H510      1.0  0.60808  0.33818  0.60789  1.0000
  S   S112      1.0  0.69003  0.27437  0.60115  1.0000
  H   H511      1.0  0.58575  0.49201  0.37642  1.0000
  H   H512      1.0  0.69482  0.47526  0.42433  1.0000
  Fe  Fe58      1.0  0.70741  0.33384  0.43945  1.0000
  S   S113      1.0  0.73909  0.35820  0.40990  1.0000
  S   S114      1.0  0.70348  0.35273  0.48610  1.0000
  Fe  Fe59      1.0  0.68461  0.29384  0.38913  1.0000
  S   S115      1.0  0.71377  0.31547  0.35596  1.0000
  Fe  Fe60      1.0  0.74938  0.31275  0.39083  1.0000
  S   S116      1.0  0.79420  0.29997  0.37226  1.0000
  Fe  Fe61      1.0  0.70087  0.35890  0.37757  1.0000
  C   C424      1.0  0.77309  0.38011  0.55902  1.0000
  S   S117      1.0  0.72113  0.28815  0.42321  1.0000
  S   S118      1.0  0.66822  0.33741  0.40802  1.0000
  C   C425      1.0  0.69123  0.43425  0.36024  1.0000
  H   H513      1.0  0.90051  0.22149  0.35927  1.0000
  C   C426      1.0  0.96850  0.18306  0.40572  1.0000
  C   C427      1.0  0.69146  0.49411  0.38078  1.0000
  C   C428      1.0  0.69353  0.44064  0.39057  1.0000
  H   H514      1.0  0.55781  0.33255  0.58685  1.0000
  C   C429      1.0  0.69324  0.29648  0.56928  1.0000
  C   C430      1.0  0.69112  0.32762  0.57080  1.0000
  C   C431      1.0  0.69393  0.34449  0.54501  1.0000
  C   C432      1.0  0.69922  0.33044  0.51760  1.0000
  C   C433      1.0  0.70164  0.29934  0.51608  1.0000
  C   C434      1.0  0.69867  0.28244  0.54189  1.0000
  H   H515      1.0  0.68755  0.33876  0.59182  1.0000
  H   H516      1.0  0.69242  0.36859  0.54632  1.0000
  H   H517      1.0  0.70584  0.28835  0.49507  1.0000
  H   H518      1.0  0.70054  0.25837  0.54059  1.0000
  S   S119      1.0  0.65623  0.33734  0.65573  1.0000
  C   C435      1.0  0.82592  0.20331  0.38186  1.0000
  C   C436      1.0  0.80592  0.21552  0.40228  1.0000
  C   C437      1.0  0.79551  0.24493  0.39922  1.0000
  C   C438      1.0  0.80560  0.26255  0.37604  1.0000
  C   C439      1.0  0.82570  0.25040  0.35570  1.0000
  C   C440      1.0  0.83551  0.22080  0.35838  1.0000
  H   H519      1.0  0.79838  0.20219  0.42054  1.0000
  H   H520      1.0  0.78019  0.25414  0.41515  1.0000
  H   H521      1.0  0.77408  0.39946  0.60201  1.0000
  H   H522      1.0  0.75525  0.39389  0.35390  1.0000
  C   C441      1.0  0.77321  0.37640  0.65331  1.0000
  H   H523      1.0  0.93961  0.22685  0.35247  1.0000
  H   H524      1.0  0.92642  0.26037  0.42721  1.0000
  H   H525      1.0  0.77547  0.36005  0.35656  1.0000
  H   H526      1.0  0.76859  0.21341  0.34944  1.0000
  H   H527      1.0  0.57297  0.35092  0.55586  1.0000
  C   C442      1.0  0.76633  0.32676  0.55495  1.0000
  C   C443      1.0  0.69335  0.47048  0.40079  1.0000
  C   C444      1.0  0.56902  0.32847  0.56524  1.0000
  H   H528      1.0  0.90402  0.05366  0.40775  1.0000
  H   H529      1.0  0.57359  0.26969  0.57472  1.0000
  C   C445      1.0  0.77018  0.35428  0.54158  1.0000
  C   C446      1.0  0.88726  0.04130  0.41968  1.0000
  C   C447      1.0  0.76481  0.32497  0.58576  1.0000
  S   S120      1.0  0.65705  0.25371  0.37492  1.0000
  C   C448      1.0  0.86072  0.05518  0.42717  1.0000
  H   H530      1.0  0.55309  0.31620  0.55032  1.0000
  H   H531      1.0  0.85693  0.07823  0.42113  1.0000
  C   C449      1.0  0.60025  0.51131  0.38301  1.0000
  H   H532      1.0  0.75990  0.30329  0.59483  1.0000
  C   C450      1.0  0.77211  0.37855  0.58993  1.0000
  H   H533      1.0  0.61027  0.27151  0.59201  1.0000
  H   H534      1.0  0.88379  0.21138  0.41231  1.0000
  H   H535      1.0  0.77775  0.30177  0.64073  1.0000
  H   H536      1.0  0.62372  0.50322  0.38387  1.0000
  C   C451      1.0  0.58986  0.28452  0.58664  1.0000
  S   S121      1.0  0.62845  0.26954  0.65985  1.0000
  H   H537      1.0  0.63497  0.24655  0.49595  1.0000
  H   H538      1.0  0.97798  0.25877  0.41311  1.0000
  H   H539      1.0  0.85059  0.03587  0.34986  1.0000
  C   C452      1.0  0.51377  0.34976  0.66792  1.0000
  S   S122      1.0  0.57166  0.33501  0.65699  1.0000
  C   C453      1.0  0.90720  0.20401  0.41596  1.0000
  H   H540      1.0  0.57994  0.29066  0.60840  1.0000
  C   C454      1.0  0.75010  0.19760  0.34393  1.0000
  C   C455      1.0  0.00282  0.13993  0.34304  1.0000
  S   S123      1.0  0.91535  0.04015  0.34633  1.0000
  H   H541      1.0  0.75908  0.17448  0.34287  1.0000
  C   C456      1.0  0.92327  0.21501  0.36654  1.0000
  H   H542      1.0  0.90699  0.17987  0.40981  1.0000
  H   H543      1.0  0.62627  0.34987  0.57516  1.0000
  H   H544      1.0  0.95303  0.16541  0.39960  1.0000
  H   H545      1.0  0.92557  0.19085  0.36131  1.0000
  N   N31       1.0  0.92864  0.22164  0.39839  1.0000
  H   H546      1.0  0.89813  0.25883  0.39883  1.0000
  N   N32       1.0  0.76532  0.34837  0.63681  1.0000
  C   C457      1.0  0.73410  0.34071  0.64377  1.0000
  H   H547      1.0  0.76992  0.35568  0.51760  1.0000
  C   C458      1.0  0.78512  0.32449  0.64805  1.0000
  N   N33       1.0  0.59701  0.31143  0.56914  1.0000
  C   C459      1.0  0.95968  0.21346  0.40616  1.0000
  H   H548      1.0  0.80842  0.32792  0.64065  1.0000
  C   C460      1.0  0.61823  0.32990  0.58703  1.0000
  C   C461      1.0  0.61010  0.30444  0.53989  1.0000
  C   C462      1.0  0.61644  0.32773  0.51984  1.0000
  C   C463      1.0  0.61723  0.27487  0.53050  1.0000
  C   C464      1.0  0.62859  0.32175  0.49205  1.0000
  C   C465      1.0  0.62929  0.26916  0.50257  1.0000
  C   C466      1.0  0.63485  0.29253  0.48336  1.0000
  C   C467      1.0  0.99779  0.17478  0.41219  1.0000
  C   C468      1.0  0.76800  0.35077  0.60427  1.0000
  C   C469      1.0  0.68952  0.48775  0.35040  1.0000
  H   H549      1.0  0.93511  0.26840  0.38898  1.0000
  H   H550      1.0  0.91228  0.20605  0.44009  1.0000
  H   H551      1.0  0.69518  0.42261  0.40618  1.0000
  H   H552      1.0  0.63796  0.31659  0.59347  1.0000
  C   C470      1.0  0.92198  0.25375  0.40369  1.0000
  H   H553      1.0  0.75729  0.39468  0.64842  1.0000
  H   H554      1.0  0.61269  0.35087  0.52573  1.0000
  H   H555      1.0  0.61418  0.25578  0.54445  1.0000
  H   H556      1.0  0.63414  0.33998  0.47747  1.0000
  H   H557      1.0  0.78563  0.32392  0.67266  1.0000
  H   H558      1.0  0.64483  0.28810  0.46199  1.0000
  H   H559      1.0  0.00408  0.15143  0.41141  1.0000
  H   H560      1.0  0.76307  0.30684  0.54126  1.0000
  H   H561      1.0  0.73468  0.19859  0.36304  1.0000
  H   H562      1.0  0.81837  0.05023  0.44800  1.0000
  H   H563      1.0  0.77553  0.40152  0.54839  1.0000
  C   C471      1.0  0.83902  0.03932  0.44221  1.0000
  C   C472      1.0  0.98227  0.23510  0.41280  1.0000
  H   H564      1.0  0.51557  0.36382  0.64875  1.0000
  H   H565      1.0  0.79624  0.38392  0.64831  1.0000
  H   H566      1.0  0.71850  0.35773  0.63495  1.0000
  H   H567      1.0  0.72720  0.31868  0.63408  1.0000
  S   S124      1.0  0.69134  0.39710  0.34655  1.0000
  H   H568      1.0  0.73055  0.33971  0.66805  1.0000
  H   H569      1.0  0.79472  0.39524  0.36026  1.0000
  C   C473      1.0  0.77662  0.38316  0.34789  1.0000
  Fe  Fe62      1.0  0.61512  0.31575  0.67403  1.0000
  H   H570      1.0  0.85052  0.21165  0.34229  1.0000
  Fe  Fe63      1.0  0.68016  0.13607  0.94535  1.0000
  S   S125      1.0  0.71976  0.11330  0.92499  1.0000
  S   S126      1.0  0.66622  0.11879  0.99020  1.0000
  Fe  Fe64      1.0  0.66957  0.17399  0.89013  1.0000
  S   S127      1.0  0.70813  0.15374  0.86656  1.0000
  S   S128      1.0  0.64284  0.21035  0.86791  1.0000
  Fe  Fe65      1.0  0.69147  0.10992  0.88366  1.0000
  S   S129      1.0  0.68510  0.07180  0.85024  1.0000
  Fe  Fe66      1.0  0.73208  0.15946  0.90994  1.0000
  S   S130      1.0  0.77875  0.17868  0.91150  1.0000
  S   S131      1.0  0.65102  0.12985  0.90472  1.0000
  S   S132      1.0  0.69446  0.18241  0.93312  1.0000
  Fe  Fe67      1.0  0.88794  0.35873  0.86524  1.0000
  S   S133      1.0  0.85273  0.37461  0.89687  1.0000
  S   S134      1.0  0.93264  0.34698  0.88618  1.0000
  Fe  Fe68      1.0  0.84597  0.36190  0.81245  1.0000
  S   S135      1.0  0.80826  0.37858  0.83965  1.0000
  S   S136      1.0  0.83803  0.34944  0.76436  1.0000
  Fe  Fe69      1.0  0.84210  0.40855  0.86226  1.0000
  S   S137      1.0  0.82631  0.45462  0.87684  1.0000
  Fe  Fe70      1.0  0.82176  0.34345  0.87189  1.0000
  S   S138      1.0  0.78232  0.31860  0.89054  1.0000
  S   S139      1.0  0.87933  0.39490  0.83204  1.0000
  S   S140      1.0  0.85756  0.32460  0.84319  1.0000
  Fe  Fe71      1.0  0.65109  0.26736  0.70446  1.0000
  S   S141      1.0  0.63428  0.31195  0.72020  1.0000
  S   S142      1.0  0.65280  0.22402  0.72911  1.0000
  Fe  Fe72      1.0  0.67671  0.32931  0.70052  1.0000
  S   S143      1.0  0.70360  0.36559  0.72379  1.0000
  H   H571      1.0  0.93411  0.40995  0.86747  1.0000
  C   C474      1.0  0.88644  0.44282  0.93493  1.0000
  C   C475      1.0  0.77529  0.27445  0.82098  1.0000
  H   H572      1.0  0.73082  0.34913  0.80654  1.0000
  H   H573      1.0  0.99186  0.33332  0.90571  1.0000
  C   C476      1.0  0.57960  0.19886  0.79402  1.0000
  C   C477      1.0  0.93449  0.45297  0.91161  1.0000
  H   H574      1.0  0.93424  0.44701  0.85303  1.0000
  C   C478      1.0  0.80066  0.35368  0.75322  1.0000
  C   C479      1.0  0.78655  0.33142  0.73580  1.0000
  C   C480      1.0  0.75653  0.33442  0.72714  1.0000
  C   C481      1.0  0.74079  0.36011  0.73518  1.0000
  C   C482      1.0  0.75502  0.38242  0.75237  1.0000
  C   C483      1.0  0.78475  0.37909  0.76164  1.0000
  H   H575      1.0  0.79872  0.31155  0.72958  1.0000
  H   H576      1.0  0.74570  0.31687  0.71429  1.0000
  H   H577      1.0  0.74298  0.40234  0.75870  1.0000
  H   H578      1.0  0.79553  0.39644  0.77494  1.0000
  C   C484      1.0  0.96717  0.34958  0.86807  1.0000
  C   C485      1.0  0.96925  0.36060  0.83940  1.0000
  C   C486      1.0  0.94809  0.43024  0.86471  1.0000
  H   H579      1.0  0.94923  0.36638  0.82723  1.0000
  H   H580      1.0  0.63326  0.14246  0.84131  1.0000
  C   C487      1.0  0.87637  0.48882  0.86578  1.0000
  C   C488      1.0  0.84867  0.48711  0.87937  1.0000
  H   H581      1.0  0.88458  0.46973  0.85351  1.0000
  C   C489      1.0  0.64882  0.21632  0.82987  1.0000
  C   C490      1.0  0.63759  0.24199  0.81624  1.0000
  C   C491      1.0  0.63998  0.24559  0.78540  1.0000
  C   C492      1.0  0.65321  0.22323  0.76809  1.0000
  C   C493      1.0  0.66522  0.19817  0.78188  1.0000
  C   C494      1.0  0.66326  0.19488  0.81260  1.0000
  H   H582      1.0  0.62632  0.25871  0.82944  1.0000
  H   H583      1.0  0.63040  0.26491  0.77489  1.0000
  H   H584      1.0  0.67563  0.18097  0.76859  1.0000
  H   H585      1.0  0.67200  0.17519  0.82272  1.0000
  C   C495      1.0  0.78016  0.21736  0.90440  1.0000
  C   C496      1.0  0.75388  0.23368  0.90165  1.0000
  C   C497      1.0  0.75502  0.26467  0.89771  1.0000
  C   C498      1.0  0.78241  0.27958  0.89544  1.0000
  C   C499      1.0  0.80882  0.26327  0.89755  1.0000
  C   C500      1.0  0.80767  0.23222  0.90233  1.0000
  H   H586      1.0  0.73257  0.22256  0.90274  1.0000
  H   H587      1.0  0.73452  0.27709  0.89630  1.0000
  H   H588      1.0  0.83006  0.27462  0.89592  1.0000
  H   H589      1.0  0.82811  0.21974  0.90441  1.0000
  C   C501      1.0  0.68549  0.03448  0.86217  1.0000
  H   H590      1.0  0.75222  0.13244  0.99016  1.0000
  H   H591      1.0  0.60867  0.13567  0.74291  1.0000
  H   H592      1.0  0.59049  0.18188  0.72162  1.0000
  H   H593      1.0  0.69936  0.04511  0.90691  1.0000
  H   H594      1.0  0.62912  0.10281  0.84356  1.0000
  C   C502      1.0  0.97556  0.41821  0.90917  1.0000
  H   H595      1.0  0.74260  0.26393  0.96125  1.0000
  H   H596      1.0  0.86824  0.42751  0.93922  1.0000
  H   H597      1.0  0.57142  0.10086  0.80384  1.0000
  C   C503      1.0  0.72957  0.24561  0.81701  1.0000
  H   H598      1.0  0.96090  0.39867  0.91340  1.0000
  H   H599      1.0  0.81653  0.51083  0.90561  1.0000
  H   H600      1.0  0.77222  0.37344  0.67776  1.0000
  H   H601      1.0  0.68782  0.28570  0.83528  1.0000
  H   H602      1.0  0.73390  0.19829  0.82353  1.0000
  H   H603      1.0  0.71482  0.30655  0.85692  1.0000
  C   C504      1.0  0.60243  0.14927  0.78912  1.0000
  H   H604      1.0  0.70582  0.24351  0.81362  1.0000
  N   N34       1.0  0.61460  0.12153  0.80191  1.0000
  H   H605      1.0  0.97130  0.48449  0.87413  1.0000
  C   C505      1.0  0.59397  0.09639  0.79489  1.0000
  H   H606      1.0  0.59142  0.17277  0.83076  1.0000
  H   H607      1.0  0.76129  0.21313  0.96429  1.0000
  C   C506      1.0  0.74447  0.32901  0.81117  1.0000
  C   C507      1.0  0.74549  0.21953  0.82253  1.0000
  H   H608      1.0  0.96640  0.42345  0.84970  1.0000
  H   H609      1.0  0.78830  0.20070  0.83260  1.0000
  H   H610      1.0  0.00022  0.45721  0.87299  1.0000
  H   H611      1.0  0.64310  0.10924  0.76516  1.0000
  H   H612      1.0  0.66771  0.18309  0.00212  1.0000
  H   H613      1.0  0.99222  0.47545  0.90740  1.0000
  H   H614      1.0  0.98437  0.42624  0.93103  1.0000
  C   C508      1.0  0.64416  0.11454  0.78921  1.0000
  H   H615      1.0  0.57191  0.22264  0.75364  1.0000
  C   C509      1.0  0.88467  0.47242  0.94461  1.0000
  H   H616      1.0  0.91120  0.40992  0.91166  1.0000
  H   H617      1.0  0.99451  0.40939  0.89603  1.0000
  C   C510      1.0  0.71064  0.29864  0.78201  1.0000
  S   S144      1.0  0.69471  0.28449  0.68785  1.0000
  C   C511      1.0  0.99335  0.34192  0.88351  1.0000
  H   H618      1.0  0.60209  0.07512  0.80455  1.0000
  H   H619      1.0  0.59138  0.09256  0.77060  1.0000
  H   H620      1.0  0.72669  0.29374  0.76406  1.0000
  C   C512      1.0  0.83794  0.51212  0.89498  1.0000
  H   H621      1.0  0.65448  0.09475  0.79978  1.0000
  C   C513      1.0  0.53851  0.33326  0.67743  1.0000
  C   C514      1.0  0.77615  0.22082  0.82737  1.0000
  H   H622      1.0  0.78820  0.29491  0.82146  1.0000
  C   C515      1.0  0.58988  0.17894  0.74539  1.0000
  C   C516      1.0  0.74546  0.15626  0.98872  1.0000
  H   H623      1.0  0.59700  0.12569  0.84618  1.0000
  N   N35       1.0  0.95963  0.44232  0.89344  1.0000
  H   H624      1.0  0.69880  0.31961  0.77617  1.0000
  C   C517      1.0  0.70376  0.30478  0.83471  1.0000
  C   C518      1.0  0.61857  0.12331  0.83461  1.0000
  H   H625      1.0  0.57216  0.21716  0.80803  1.0000
  N   N36       1.0  0.72621  0.30124  0.81115  1.0000
  H   H626      1.0  0.65996  0.13350  0.79258  1.0000
  C   C519      1.0  0.69360  0.02745  0.89119  1.0000
  H   H627      1.0  0.79786  0.18328  0.98288  1.0000
  H   H628      1.0  0.76178  0.32800  0.79389  1.0000
  C   C520      1.0  0.59093  0.17300  0.80685  1.0000
  C   C521      1.0  0.79103  0.24817  0.82630  1.0000
  H   H629      1.0  0.72088  0.15702  0.99097  1.0000
  C   C522      1.0  0.74388  0.27395  0.81638  1.0000
  H   H630      1.0  0.75072  0.16330  0.96592  1.0000
  C   C523      1.0  0.93219  0.48298  0.92218  1.0000
  H   H631      1.0  0.69364  0.28050  0.78138  1.0000
  C   C524      1.0  0.60087  0.15280  0.75793  1.0000
  H   H632      1.0  0.81481  0.24923  0.83066  1.0000
  H   H633      1.0  0.69027  0.32530  0.83164  1.0000
  C   C525      1.0  0.91102  0.43309  0.91886  1.0000
  H   H634      1.0  0.75566  0.33310  0.83304  1.0000
  C   C526      1.0  0.98174  0.46603  0.88679  1.0000
  C   C527      1.0  0.57938  0.20197  0.76340  1.0000
  H   H635      1.0  0.94856  0.49995  0.91750  1.0000
  C   C528      1.0  0.75110  0.22268  0.98374  1.0000
  C   C529      1.0  0.53603  0.31520  0.70227  1.0000
  H   H636      1.0  0.55497  0.30239  0.70974  1.0000
  C   C530      1.0  0.74040  0.25183  0.98176  1.0000
  H   H637      1.0  0.67143  0.01668  0.81956  1.0000
  C   C531      1.0  0.99735  0.36485  0.82669  1.0000
  H   H638      1.0  0.00633  0.26690  0.77370  1.0000
  H   H639      1.0  0.99880  0.37398  0.80471  1.0000
  C   C532      1.0  0.79289  0.17576  0.00572  1.0000
  C   C533      1.0  0.90758  0.49239  0.93845  1.0000
  H   H640      1.0  0.86511  0.48003  0.95623  1.0000
  C   C534      1.0  0.72690  0.26541  0.00601  1.0000
  H   H641      1.0  0.71849  0.28797  0.00431  1.0000
  H   H642      1.0  0.01023  0.28915  0.80683  1.0000
  H   H643      1.0  0.80279  0.15314  0.00766  1.0000
  H   H644      1.0  0.87684  0.82391  0.30347  1.0000
  Fe  Fe73      1.0  0.88276  0.66547  0.15523  1.0000
  S   S145      1.0  0.90893  0.62953  0.17782  1.0000
  S   S146      1.0  0.85503  0.65225  0.11447  1.0000
  Fe  Fe74      1.0  0.90188  0.71260  0.20183  1.0000
  S   S147      1.0  0.93026  0.68051  0.22725  1.0000
  S   S148      1.0  0.89272  0.76046  0.21574  1.0000
  Fe  Fe75      1.0  0.94535  0.66411  0.18257  1.0000
  S   S149      1.0  0.99124  0.65293  0.16498  1.0000
  Fe  Fe76      1.0  0.89143  0.64896  0.22017  1.0000
  S   S150      1.0  0.87499  0.62318  0.25936  1.0000
  S   S151      1.0  0.92002  0.69902  0.15733  1.0000
  S   S152      1.0  0.86215  0.68203  0.19754  1.0000
  H   H645      1.0  0.87361  0.98683  0.29212  1.0000
  H   H646      1.0  0.00508  0.62249  0.06889  1.0000
  S   S153      1.0  0.67198  0.57648  0.32026  1.0000
  Fe  Fe77      1.0  0.71412  0.60077  0.30861  1.0000
  S   S154      1.0  0.73624  0.59700  0.26399  1.0000
  H   H647      1.0  0.76361  0.73274  0.32538  1.0000
  H   H648      1.0  0.89631  0.99046  0.26043  1.0000
  C   C535      1.0  0.80729  0.70985  0.07030  1.0000
  H   H649      1.0  0.86258  0.96901  0.25741  1.0000
  C   C536      1.0  0.80428  0.72002  0.00839  1.0000
  C   C537      1.0  0.82634  0.73411  0.02681  1.0000
  C   C538      1.0  0.96627  0.66508  0.08435  1.0000
  H   H650      1.0  0.55022  0.64526  0.30393  1.0000
  C   C539      1.0  0.83674  0.61419  0.25971  1.0000
  C   C540      1.0  0.81906  0.61524  0.23402  1.0000
  C   C541      1.0  0.78845  0.60852  0.23530  1.0000
  C   C542      1.0  0.77522  0.60173  0.26239  1.0000
  C   C543      1.0  0.79305  0.60033  0.28793  1.0000
  C   C544      1.0  0.82371  0.60618  0.28646  1.0000
  H   H651      1.0  0.82899  0.62095  0.21314  1.0000
  H   H652      1.0  0.77486  0.60937  0.21537  1.0000
  H   H653      1.0  0.78328  0.59468  0.30883  1.0000
  H   H654      1.0  0.83736  0.60471  0.30616  1.0000
  C   C545      1.0  0.78378  0.70074  0.02245  1.0000
  C   C546      1.0  0.89474  0.69429  0.04624  1.0000
  C   C547      1.0  0.88651  0.68597  0.07487  1.0000
  C   C548      1.0  0.86551  0.66329  0.07868  1.0000
  C   C549      1.0  0.85242  0.64928  0.05359  1.0000
  C   C550      1.0  0.86070  0.65759  0.02485  1.0000
  H   H655      1.0  0.91096  0.71196  0.04348  1.0000
  H   H656      1.0  0.89617  0.69736  0.09400  1.0000
  H   H657      1.0  0.83592  0.63189  0.05642  1.0000
  H   H658      1.0  0.84497  0.73951  0.07087  1.0000
  C   C551      1.0  0.90724  0.78830  0.31299  1.0000
  C   C552      1.0  0.92345  0.76452  0.30082  1.0000
  C   C553      1.0  0.91939  0.75594  0.27095  1.0000
  C   C554      1.0  0.89987  0.77179  0.25278  1.0000
  C   C555      1.0  0.88532  0.79693  0.26443  1.0000
  C   C556      1.0  0.88864  0.80491  0.29456  1.0000
  H   H659      1.0  0.89096  0.73163  0.33977  1.0000
  H   H660      1.0  0.93161  0.73731  0.26187  1.0000
  H   H661      1.0  0.87081  0.80981  0.25029  1.0000
  H   H662      1.0  0.97259  0.67074  0.10770  1.0000
  H   H663      1.0  0.98505  0.67279  0.07066  1.0000
  H   H664      1.0  0.52984  0.73751  0.32242  1.0000
  H   H665      1.0  0.56132  0.54595  0.31095  1.0000
  H   H666      1.0  0.77304  0.97488  0.30605  1.0000
  N   N37       1.0  0.95961  0.63271  0.08016  1.0000
  H   H667      1.0  0.78926  0.67131  0.24526  1.0000
  H   H668      1.0  0.93876  0.75233  0.31475  1.0000
  N   N38       1.0  0.87911  0.68646  0.32663  1.0000
  H   H669      1.0  0.88913  0.59408  0.01147  1.0000
  H   H670      1.0  0.86843  0.71545  0.29017  1.0000
  C   C557      1.0  0.55006  0.64141  0.32752  1.0000
  C   C558      1.0  0.78543  0.69569  0.05291  1.0000
  Fe  Fe78      1.0  0.65629  0.62089  0.33789  1.0000
  H   H671      1.0  0.85482  0.67779  0.28600  1.0000
  H   H672      1.0  0.72423  0.70946  0.30259  1.0000
  H   H673      1.0  0.84350  0.74840  0.01818  1.0000
  C   C559      1.0  0.57205  0.72030  0.33487  1.0000
  H   H674      1.0  0.75133  0.65942  0.24534  1.0000
  C   C560      1.0  0.85891  0.69623  0.30241  1.0000
  H   H675      1.0  0.94807  0.62912  0.12622  1.0000
  C   C561      1.0  0.87272  0.98951  0.26766  1.0000
  H   H676      1.0  0.80914  0.70518  0.09376  1.0000
  C   C562      1.0  0.81186  0.99258  0.28480  1.0000
  C   C563      1.0  0.93877  0.62392  0.10380  1.0000
  H   H677      1.0  0.90859  0.66404  0.29635  1.0000
  S   S155      1.0  0.69686  0.64568  0.32244  1.0000
  N   N39       1.0  0.76217  0.69437  0.27735  1.0000
  C   C564      1.0  0.76965  0.67241  0.30051  1.0000
  C   C565      1.0  0.73027  0.70242  0.27973  1.0000
  C   C566      1.0  0.76608  0.67944  0.24806  1.0000
  C   C567      1.0  0.78089  0.72144  0.28167  1.0000
  C   C568      1.0  0.80157  0.73128  0.26024  1.0000
  C   C569      1.0  0.77860  0.73899  0.30799  1.0000
  C   C570      1.0  0.81809  0.75755  0.26472  1.0000
  C   C571      1.0  0.79526  0.76522  0.31222  1.0000
  C   C572      1.0  0.81479  0.77458  0.29054  1.0000
  C   C573      1.0  0.96382  0.63623  0.02478  1.0000
  H   H678      1.0  0.76529  0.68096  0.32329  1.0000
  H   H679      1.0  0.91736  0.63612  0.10207  1.0000
  H   H680      1.0  0.93413  0.59949  0.10344  1.0000
  H   H681      1.0  0.83710  0.70387  0.31072  1.0000
  H   H682      1.0  0.72454  0.72099  0.26460  1.0000
  C   C574      1.0  0.92054  0.61105  0.04419  1.0000
  H   H683      1.0  0.82440  0.97316  0.29128  1.0000
  H   H684      1.0  0.76039  0.69456  0.22953  1.0000
  H   H685      1.0  0.80539  0.71928  0.23971  1.0000
  H   H686      1.0  0.75621  0.65158  0.29771  1.0000
  H   H687      1.0  0.83341  0.76483  0.24785  1.0000
  H   H688      1.0  0.82725  0.79520  0.29372  1.0000
  H   H689      1.0  0.77009  0.68027  0.06309  1.0000
  S   S156      1.0  0.61068  0.63690  0.32264  1.0000
  H   H690      1.0  0.71538  0.68318  0.27374  1.0000
  H   H691      1.0  0.79346  0.66581  0.29948  1.0000
  C   C575      1.0  0.91023  0.60548  0.01525  1.0000
  C   C576      1.0  0.94773  0.62674  0.04985  1.0000
  H   H692      1.0  0.90637  0.60343  0.06171  1.0000
  H   H693      1.0  0.63312  0.51906  0.33639  1.0000
  H   H694      1.0  0.61066  0.54526  0.31743  1.0000
  H   H695      1.0  0.58105  0.72259  0.31286  1.0000
  H   H696      1.0  0.91722  0.70238  0.30267  1.0000
  C   C577      1.0  0.82752  0.72917  0.05731  1.0000
  C   C578      1.0  0.88212  0.67999  0.02116  1.0000
  C   C579      1.0  0.78210  0.99324  0.29351  1.0000
  H   H697      1.0  0.94661  0.67880  0.07862  1.0000
  C   C580      1.0  0.90903  0.68200  0.31371  1.0000
  C   C581      1.0  0.86702  0.65930  0.34062  1.0000
  H   H698      1.0  0.79273  0.77866  0.33224  1.0000
  C   C582      1.0  0.60968  0.52663  0.33347  1.0000
  H   H699      1.0  0.00283  0.65815  0.22875  1.0000
  H   H700      1.0  0.98357  0.59134  0.08152  1.0000
  H   H701      1.0  0.90546  0.62978  0.33411  1.0000
  C   C583      1.0  0.98753  0.61577  0.08460  1.0000
  H   H702      1.0  0.84424  0.00119  0.21541  1.0000
  H   H703      1.0  0.98472  0.64811  0.02726  1.0000
  H   H704      1.0  0.92599  0.67651  0.33091  1.0000
  H   H705      1.0  0.99692  0.61948  0.10739  1.0000
  H   H706      1.0  0.76664  0.68897  0.00988  1.0000
  C   C584      1.0  0.55036  0.54950  0.33180  1.0000
  C   C585      1.0  0.52094  0.55951  0.33024  1.0000
  C   C586      1.0  0.54268  0.72852  0.34058  1.0000
  Fe  Fe79      1.0  0.86102  0.85529  0.43226  1.0000
  S   S157      1.0  0.81706  0.87129  0.41473  1.0000
  S   S158      1.0  0.87697  0.87236  0.47755  1.0000
  Fe  Fe80      1.0  0.87596  0.82595  0.37294  1.0000
  C   C587      1.0  0.99305  0.74339  0.62414  1.0000
  Fe  Fe81      1.0  0.84181  0.88451  0.37415  1.0000
  C   C588      1.0  0.52289  0.64191  0.34269  1.0000
  Fe  Fe82      1.0  0.81228  0.82609  0.39295  1.0000
  S   S159      1.0  0.76674  0.80422  0.39106  1.0000
  S   S160      1.0  0.88633  0.87144  0.39282  1.0000
  S   S161      1.0  0.85414  0.80863  0.41406  1.0000
  Fe  Fe83      1.0  0.88650  0.81345  0.64185  1.0000
  H   H707      1.0  0.81696  0.99196  0.35335  1.0000
  S   S162      1.0  0.86413  0.80146  0.59770  1.0000
  C   C589      1.0  0.87190  0.60765  0.35781  1.0000
  H   H708      1.0  0.80980  0.75633  0.39623  1.0000
  Fe  Fe84      1.0  0.71699  0.63556  0.36672  1.0000
  S   S163      1.0  0.75191  0.66378  0.39068  1.0000
  C   C590      1.0  0.84949  0.94425  0.43808  1.0000
  S   S164      1.0  0.67496  0.61471  0.38388  1.0000
  C   C591      1.0  0.79245  0.80902  0.56589  1.0000
  C   C592      1.0  0.54949  0.63184  0.38832  1.0000
  C   C593      1.0  0.98674  0.81137  0.54562  1.0000
  H   H709      1.0  0.76730  0.84316  0.48492  1.0000
  H   H710      1.0  0.54938  0.62827  0.41195  1.0000
  H   H711      1.0  0.85962  0.71711  0.35843  1.0000
  C   C594      1.0  0.76341  0.76510  0.38769  1.0000
  C   C595      1.0  0.78798  0.74664  0.39215  1.0000
  C   C596      1.0  0.78410  0.71553  0.39260  1.0000
  C   C597      1.0  0.75595  0.70263  0.38725  1.0000
  C   C598      1.0  0.73165  0.72098  0.38117  1.0000
  C   C599      1.0  0.73532  0.75221  0.38185  1.0000
  H   H712      1.0  0.73939  0.76462  0.47727  1.0000
  H   H713      1.0  0.70984  0.71116  0.37725  1.0000
  C   C600      1.0  0.57663  0.63118  0.37311  1.0000
  H   H714      1.0  0.97403  0.82369  0.52837  1.0000
  C   C601      1.0  0.90230  0.98077  0.35244  1.0000
  H   H715      1.0  0.79738  0.78103  0.44316  1.0000
  H   H716      1.0  0.54075  0.70721  0.41306  1.0000
  H   H717      1.0  0.89240  0.93358  0.35547  1.0000
  C   C602      1.0  0.58971  0.70825  0.35719  1.0000
  C   C603      1.0  0.89066  0.00971  0.35028  1.0000
  H   H718      1.0  0.83421  0.58927  0.38039  1.0000
  C   C604      1.0  0.51903  0.56188  0.38352  1.0000
  C   C605      1.0  0.87459  0.85188  0.51061  1.0000
  C   C606      1.0  0.86433  0.82237  0.51053  1.0000
  C   C607      1.0  0.86154  0.80712  0.53738  1.0000
  C   C608      1.0  0.86929  0.82113  0.56450  1.0000
  C   C609      1.0  0.88041  0.85037  0.56452  1.0000
  C   C610      1.0  0.88297  0.86570  0.53765  1.0000
  H   H719      1.0  0.85859  0.81138  0.48976  1.0000
  H   H720      1.0  0.85313  0.78440  0.53721  1.0000
  H   H721      1.0  0.88640  0.86138  0.58527  1.0000
  H   H722      1.0  0.89107  0.88851  0.53790  1.0000
  C   C611      1.0  0.88156  0.71085  0.34919  1.0000
  H   H723      1.0  0.90469  0.92557  0.44391  1.0000
  C   C612      1.0  0.57703  0.63598  0.34260  1.0000
  H   H724      1.0  0.55844  0.55072  0.40718  1.0000
  H   H725      1.0  0.77676  0.73486  0.56630  1.0000
  C   C613      1.0  0.82655  0.63445  0.36703  1.0000
  C   C614      1.0  0.74522  0.78845  0.47372  1.0000
  C   C615      1.0  0.77966  0.75715  0.55770  1.0000
  H   H726      1.0  0.79274  0.83707  0.52882  1.0000
  Fe  Fe85      1.0  0.69307  0.57151  0.36528  1.0000
  H   H727      1.0  0.80604  0.83357  0.47931  1.0000
  C   C616      1.0  0.78820  0.81455  0.53574  1.0000
  H   H728      1.0  0.80012  0.82678  0.58082  1.0000
  H   H729      1.0  0.74171  0.79232  0.44957  1.0000
  C   C617      1.0  0.78848  0.78038  0.57679  1.0000
  H   H730      1.0  0.59727  0.62773  0.38512  1.0000
  H   H731      1.0  0.79290  0.77616  0.60003  1.0000
  S   S165      1.0  0.83347  0.84036  0.35081  1.0000
  H   H732      1.0  0.00671  0.82524  0.55123  1.0000
  C   C618      1.0  0.79687  0.77584  0.46711  1.0000
  H   H733      1.0  0.76874  0.74361  0.51350  1.0000
  H   H734      1.0  0.95596  0.74858  0.59551  1.0000
  H   H735      1.0  0.80289  0.70140  0.39764  1.0000
  C   C619      1.0  0.84343  0.60864  0.36959  1.0000
  H   H736      1.0  0.77930  0.82965  0.44985  1.0000
  C   C620      1.0  0.77520  0.76242  0.52752  1.0000
  N   N40       1.0  0.96831  0.80549  0.57194  1.0000
  H   H737      1.0  0.92616  0.97758  0.35197  1.0000
  H   H738      1.0  0.92799  0.80424  0.54519  1.0000
  C   C621      1.0  0.95976  0.83452  0.58557  1.0000
  H   H739      1.0  0.60655  0.57035  0.39543  1.0000
  S   S166      1.0  0.90347  0.85775  0.65933  1.0000
  C   C622      1.0  0.52253  0.63726  0.37322  1.0000
  H   H740      1.0  0.87965  0.93683  0.48942  1.0000
  C   C623      1.0  0.88326  0.95585  0.35451  1.0000
  C   C624      1.0  0.78255  0.82694  0.47416  1.0000
  S   S167      1.0  0.92884  0.78906  0.65154  1.0000
  H   H741      1.0  0.94513  0.76875  0.55000  1.0000
  N   N41       1.0  0.87465  0.96275  0.44979  1.0000
  C   C625      1.0  0.85243  0.95978  0.35449  1.0000
  H   H742      1.0  0.84664  0.94706  0.41381  1.0000
  H   H743      1.0  0.88477  0.58731  0.35930  1.0000
  H   H744      1.0  0.61218  0.70103  0.35243  1.0000
  C   C626      1.0  0.83809  0.65949  0.35291  1.0000
  C   C627      1.0  0.54844  0.55198  0.38536  1.0000
  Fe  Fe86      1.0  0.94504  0.83258  0.67146  1.0000
  H   H745      1.0  0.94587  0.84806  0.57029  1.0000
  H   H746      1.0  0.82633  0.99822  0.46145  1.0000
  H   H747      1.0  0.98509  0.72200  0.63191  1.0000
  H   H748      1.0  0.92501  0.78635  0.58000  1.0000
  N   N42       1.0  0.77619  0.79580  0.48328  1.0000
  H   H749      1.0  0.72890  0.80239  0.48596  1.0000
  S   S168      1.0  0.98769  0.85488  0.65652  1.0000
  C   C628      1.0  0.77966  0.79122  0.51554  1.0000
  H   H750      1.0  0.79045  0.75188  0.46844  1.0000
  H   H751      1.0  0.59167  0.69405  0.40228  1.0000
  C   C629      1.0  0.84081  0.98876  0.35303  1.0000
  H   H752      1.0  0.89401  0.97441  0.49223  1.0000
  H   H753      1.0  0.82001  0.77822  0.47592  1.0000
  C   C630      1.0  0.97643  0.75907  0.60312  1.0000
  C   C631      1.0  0.54857  0.71201  0.39114  1.0000
  H   H754      1.0  0.85310  0.92007  0.44202  1.0000
  S   S169      1.0  0.69033  0.53110  0.39475  1.0000
  H   H755      1.0  0.91285  0.00194  0.41926  1.0000
  C   C632      1.0  0.89208  0.01134  0.42659  1.0000
  H   H756      1.0  0.97934  0.84856  0.59207  1.0000
  C   C633      1.0  0.87030  0.99441  0.44173  1.0000
  H   H757      1.0  0.90293  0.95046  0.41343  1.0000
  C   C634      1.0  0.94049  0.79040  0.56137  1.0000
  H   H758      1.0  0.85462  0.96744  0.49288  1.0000
  C   C635      1.0  0.61419  0.56229  0.37342  1.0000
  H   H759      1.0  0.71626  0.76644  0.37826  1.0000
  S   S170      1.0  0.73651  0.59181  0.35204  1.0000
  C   C636      1.0  0.88360  0.63245  0.34338  1.0000
  C   C637      1.0  0.87576  0.96031  0.48249  1.0000
  H   H760      1.0  0.92265  0.96114  0.44726  1.0000
  C   C638      1.0  0.90250  0.94959  0.43804  1.0000
  S   S171      1.0  0.82770  0.92907  0.35540  1.0000
  H   H761      1.0  0.82795  0.94977  0.44849  1.0000
  C   C639      1.0  0.56499  0.54523  0.35955  1.0000
  H   H762      1.0  0.89629  0.70438  0.36800  1.0000
  H   H763      1.0  0.94667  0.83114  0.60600  1.0000
  H   H764      1.0  0.61269  0.58133  0.35793  1.0000
  H   H765      1.0  0.80434  0.63494  0.37607  1.0000
  C   C640      1.0  0.57806  0.70429  0.38527  1.0000
  C   C641      1.0  0.84374  0.00948  0.44962  1.0000
  S   S172      1.0  0.90988  0.79570  0.35145  1.0000
  N   N43       1.0  0.59663  0.53637  0.36209  1.0000
  C   C642      1.0  0.52994  0.72451  0.36888  1.0000
  C   C643      1.0  0.98566  0.78780  0.59355  1.0000
  H   H766      1.0  0.82418  0.67904  0.35179  1.0000
  H   H767      1.0  0.99463  0.79009  0.53543  1.0000
  H   H768      1.0  0.63808  0.55669  0.37608  1.0000
  H   H769      1.0  0.59510  0.51781  0.40619  1.0000
  Fe  Fe87      1.0  0.90961  0.78009  0.69616  1.0000
  S   S173      1.0  0.92982  0.82134  0.71722  1.0000
  S   S174      1.0  0.90615  0.73374  0.71490  1.0000
  C   C644      1.0  0.77293  0.73601  0.96740  1.0000
  H   H770      1.0  0.75181  0.72544  0.81142  1.0000
  Fe  Fe88      1.0  0.88678  0.84296  0.70365  1.0000
  S   S175      1.0  0.86662  0.87105  0.74021  1.0000
  Fe  Fe89      1.0  0.68919  0.89605  0.86152  1.0000
  S   S176      1.0  0.66756  0.89033  0.81679  1.0000
  S   S177      1.0  0.69001  0.93706  0.89157  1.0000
  Fe  Fe90      1.0  0.70992  0.83133  0.86304  1.0000
  S   S178      1.0  0.68954  0.81999  0.81851  1.0000
  S   S179      1.0  0.73983  0.80419  0.89292  1.0000
  Fe  Fe91      1.0  0.70828  0.86421  0.80478  1.0000
  S   S180      1.0  0.72722  0.86957  0.75913  1.0000
  Fe  Fe92      1.0  0.65012  0.84678  0.83398  1.0000
  S   S181      1.0  0.60287  0.83436  0.81962  1.0000
  S   S182      1.0  0.73157  0.87374  0.84806  1.0000
  S   S183      1.0  0.66884  0.85435  0.87988  1.0000
  Fe  Fe93      1.0  0.90135  0.68370  0.87729  1.0000
  S   S184      1.0  0.87075  0.64874  0.85789  1.0000
  S   S185      1.0  0.92956  0.71635  0.85218  1.0000
  Fe  Fe94      1.0  0.88296  0.67043  0.94111  1.0000
  S   S186      1.0  0.85064  0.63414  0.92669  1.0000
  H   H771      1.0  0.77433  0.00484  0.82844  1.0000
  Fe  Fe95      1.0  0.88658  0.61979  0.89522  1.0000
  S   S187      1.0  0.90442  0.57326  0.88553  1.0000
  Fe  Fe96      1.0  0.83763  0.66611  0.89057  1.0000
  S   S188      1.0  0.78974  0.67340  0.87627  1.0000
  S   S189      1.0  0.91995  0.65388  0.91234  1.0000
  S   S190      1.0  0.86721  0.70313  0.90739  1.0000
  C   C645      1.0  0.88253  0.54038  0.88358  1.0000
  C   C646      1.0  0.75936  0.78975  0.77351  1.0000
  C   C647      1.0  0.00679  0.97689  0.73457  1.0000
  C   C648      1.0  0.85489  0.53859  0.89732  1.0000
  H   H772      1.0  0.80215  0.57773  0.86888  1.0000
  H   H773      1.0  0.72170  0.94012  0.82986  1.0000
  H   H774      1.0  0.84667  0.55748  0.90992  1.0000
  H   H775      1.0  0.79427  0.97922  0.78331  1.0000
  C   C649      1.0  0.75359  0.76893  0.88227  1.0000
  C   C650      1.0  0.78425  0.76375  0.88485  1.0000
  C   C651      1.0  0.79555  0.73473  0.88177  1.0000
  C   C652      1.0  0.77628  0.71044  0.87698  1.0000
  C   C653      1.0  0.74565  0.71566  0.87362  1.0000
  C   C654      1.0  0.73433  0.74486  0.87610  1.0000
  H   H776      1.0  0.79923  0.78222  0.88987  1.0000
  H   H777      1.0  0.81915  0.73126  0.88342  1.0000
  H   H778      1.0  0.73054  0.69703  0.86984  1.0000
  H   H779      1.0  0.71058  0.74858  0.87469  1.0000
  C   C655      1.0  0.57158  0.83442  0.84289  1.0000
  C   C656      1.0  0.54298  0.83229  0.83004  1.0000
  H   H780      1.0  0.84050  0.58680  0.86320  1.0000
  H   H781      1.0  0.85066  0.64660  0.00568  1.0000
  C   C657      1.0  0.54909  0.83566  0.89150  1.0000
  C   C658      1.0  0.57458  0.83589  0.87371  1.0000
  H   H782      1.0  0.54051  0.83101  0.80618  1.0000
  H   H783      1.0  0.82869  0.68510  0.96721  1.0000
  H   H784      1.0  0.55152  0.83699  0.91535  1.0000
  H   H785      1.0  0.59654  0.83673  0.88377  1.0000
  C   C659      1.0  0.68762  0.97429  0.87960  1.0000
  C   C660      1.0  0.67875  0.98129  0.85074  1.0000
  H   H786      1.0  0.55806  0.90577  0.84434  1.0000
  H   H787      1.0  0.67257  0.96365  0.83517  1.0000
  C   C661      1.0  0.91371  0.72877  0.75284  1.0000
  C   C662      1.0  0.93149  0.74901  0.76912  1.0000
  C   C663      1.0  0.93693  0.74444  0.79942  1.0000
  C   C664      1.0  0.92424  0.71991  0.81370  1.0000
  C   C665      1.0  0.90652  0.69963  0.79737  1.0000
  C   C666      1.0  0.90142  0.70400  0.76698  1.0000
  H   H788      1.0  0.94133  0.76799  0.75831  1.0000
  H   H789      1.0  0.95074  0.76015  0.81194  1.0000
  H   H790      1.0  0.89673  0.68066  0.80813  1.0000
  H   H791      1.0  0.88760  0.68843  0.75440  1.0000
  C   C667      1.0  0.82788  0.86985  0.74511  1.0000
  C   C668      1.0  0.80841  0.86152  0.72200  1.0000
  C   C669      1.0  0.77751  0.86169  0.72653  1.0000
  C   C670      1.0  0.76603  0.86914  0.75442  1.0000
  C   C671      1.0  0.78558  0.87668  0.77773  1.0000
  C   C672      1.0  0.81637  0.87768  0.77285  1.0000
  H   H792      1.0  0.78097  0.57613  0.78907  1.0000
  H   H793      1.0  0.76246  0.85581  0.70842  1.0000
  H   H794      1.0  0.77702  0.88206  0.79939  1.0000
  H   H795      1.0  0.83147  0.88383  0.79078  1.0000
  H   H796      1.0  0.82323  0.76782  0.97494  1.0000
  H   H797      1.0  0.96198  0.96693  0.71967  1.0000
  C   C673      1.0  0.83802  0.59309  0.80492  1.0000
  H   H798      1.0  0.81258  0.61385  0.85536  1.0000
  H   H799      1.0  0.74229  0.98989  0.84619  1.0000
  H   H800      1.0  0.84103  0.53881  0.83356  1.0000
  H   H801      1.0  0.75101  0.94651  0.87042  1.0000
  N   N44       1.0  0.81516  0.57817  0.82301  1.0000
  H   H802      1.0  0.80824  0.62089  0.77802  1.0000
  C   C674      1.0  0.81767  0.58954  0.85394  1.0000
  S   S191      1.0  0.86576  0.80105  0.68516  1.0000
  H   H803      1.0  0.77127  0.74036  0.94320  1.0000
  C   C675      1.0  0.81979  0.54530  0.82270  1.0000
  C   C676      1.0  0.77266  0.93987  0.86257  1.0000
  H   H804      1.0  0.77799  0.60749  0.81486  1.0000
  H   H805      1.0  0.82338  0.74802  0.94034  1.0000
  H   H806      1.0  0.87610  0.57235  0.82698  1.0000
  H   H807      1.0  0.91411  0.59769  0.79885  1.0000
  H   H808      1.0  0.76767  0.57098  0.82592  1.0000
  H   H809      1.0  0.85175  0.75938  0.75484  1.0000
  H   H810      1.0  0.54988  0.75786  0.85550  1.0000
  H   H811      1.0  0.81959  0.93971  0.80341  1.0000
  C   C677      1.0  0.80692  0.69499  0.96065  1.0000
  H   H812      1.0  0.00091  0.99834  0.74424  1.0000
  H   H813      1.0  0.60194  0.93139  0.84452  1.0000
  H   H814      1.0  0.79976  0.81326  0.76634  1.0000
  C   C678      1.0  0.55317  0.76253  0.80897  1.0000
  H   H815      1.0  0.72168  0.76233  0.78417  1.0000
  H   H816      1.0  0.74608  0.80584  0.76150  1.0000
  N   N45       1.0  0.59639  0.92465  0.89142  1.0000
  C   C679      1.0  0.60287  0.95655  0.89837  1.0000
  C   C680      1.0  0.61086  0.90604  0.91437  1.0000
  C   C681      1.0  0.61053  0.91724  0.86272  1.0000
  C   C682      1.0  0.56377  0.91952  0.89115  1.0000
  S   S192      1.0  0.89359  0.69164  0.98593  1.0000
  C   C683      1.0  0.54720  0.92393  0.91741  1.0000
  C   C684      1.0  0.67793  0.01133  0.84200  1.0000
  H   H817      1.0  0.53303  0.71845  0.88336  1.0000
  H   H818      1.0  0.62727  0.96131  0.89841  1.0000
  H   H819      1.0  0.59220  0.97136  0.88180  1.0000
  H   H820      1.0  0.59483  0.96343  0.92059  1.0000
  H   H821      1.0  0.60441  0.91257  0.93719  1.0000
  H   H822      1.0  0.63561  0.90802  0.91388  1.0000
  H   H823      1.0  0.60503  0.88203  0.91103  1.0000
  H   H824      1.0  0.81712  0.85556  0.70050  1.0000
  H   H825      1.0  0.63497  0.92116  0.86377  1.0000
  H   H826      1.0  0.60710  0.89326  0.85643  1.0000
  H   H827      1.0  0.55795  0.93103  0.93788  1.0000
  C   C685      1.0  0.52049  0.83351  0.87862  1.0000
  C   C686      1.0  0.82909  0.92140  0.84529  1.0000
  N   N46       1.0  0.84036  0.77961  0.79681  1.0000
  C   C687      1.0  0.85580  0.75672  0.81472  1.0000
  C   C688      1.0  0.85500  0.78071  0.76756  1.0000
  C   C689      1.0  0.84485  0.80881  0.81225  1.0000
  C   C690      1.0  0.80807  0.77369  0.79267  1.0000
  C   C691      1.0  0.79340  0.74850  0.80482  1.0000
  H   H828      1.0  0.90030  0.63403  0.76044  1.0000
  C   C692      1.0  0.76261  0.74451  0.80156  1.0000
  H   H829      1.0  0.75453  0.72022  0.97224  1.0000
  C   C693      1.0  0.79013  0.79389  0.77653  1.0000
  H   H830      1.0  0.87988  0.76209  0.81780  1.0000
  H   H831      1.0  0.84648  0.75525  0.83736  1.0000
  H   H832      1.0  0.85455  0.73429  0.80378  1.0000
  H   H833      1.0  0.84651  0.79913  0.75359  1.0000
  H   H834      1.0  0.87944  0.78460  0.76989  1.0000
  C   C694      1.0  0.79115  0.92481  0.88240  1.0000
  H   H835      1.0  0.83269  0.80955  0.83359  1.0000
  H   H836      1.0  0.86886  0.81344  0.81701  1.0000
  H   H837      1.0  0.83691  0.82768  0.79873  1.0000
  H   H838      1.0  0.80507  0.73170  0.81725  1.0000
  C   C695      1.0  0.54751  0.91036  0.86526  1.0000
  H   H839      1.0  0.80657  0.69725  0.93614  1.0000
  H   H840      1.0  0.75768  0.97648  0.76740  1.0000
  C   C696      1.0  0.78164  0.94575  0.83319  1.0000
  C   C697      1.0  0.74560  0.76521  0.78619  1.0000
  C   C698      1.0  0.77373  0.96517  0.78246  1.0000
  H   H841      1.0  0.85101  0.91409  0.83860  1.0000
  H   H842      1.0  0.71720  0.95431  0.79340  1.0000
  C   C699      1.0  0.88304  0.62257  0.77253  1.0000
  H   H843      1.0  0.83349  0.90368  0.88915  1.0000
  C   C700      1.0  0.81067  0.93630  0.82519  1.0000
  H   H844      1.0  0.77892  0.94326  0.77164  1.0000
  H   H845      1.0  0.78925  0.67847  0.96574  1.0000
  C   C701      1.0  0.85315  0.62886  0.76707  1.0000
  C   C702      1.0  0.83085  0.61452  0.78303  1.0000
  C   C703      1.0  0.51751  0.83159  0.84780  1.0000
  H   H846      1.0  0.81995  0.53613  0.79965  1.0000
  H   H847      1.0  0.96515  0.63927  0.97713  1.0000
  N   N47       1.0  0.76122  0.96107  0.81244  1.0000
  C   C704      1.0  0.78416  0.58349  0.81257  1.0000
  H   H848      1.0  0.91779  0.61197  0.96884  1.0000
  C   C705      1.0  0.53827  0.75431  0.83460  1.0000
  C   C706      1.0  0.81929  0.91552  0.87376  1.0000
  C   C707      1.0  0.51671  0.90575  0.86592  1.0000
  C   C708      1.0  0.73334  0.94340  0.80864  1.0000
  C   C709      1.0  0.51647  0.91875  0.91788  1.0000
  C   C710      1.0  0.89324  0.51541  0.86787  1.0000
  H   H849      1.0  0.84730  0.64527  0.75059  1.0000
  H   H850      1.0  0.80218  0.53324  0.83502  1.0000
  H   H851      1.0  0.70128  0.99220  0.92228  1.0000
  C   C711      1.0  0.69467  0.99745  0.89983  1.0000
  C   C712      1.0  0.89081  0.60198  0.79402  1.0000
  H   H852      1.0  0.73876  0.00358  0.80957  1.0000
  C   C713      1.0  0.99225  0.93181  0.70810  1.0000
  N   N48       1.0  0.80259  0.72417  0.97592  1.0000
  C   C714      1.0  0.86874  0.58742  0.80997  1.0000
  C   C715      1.0  0.75386  0.99108  0.82464  1.0000
  H   H853      1.0  0.73794  0.92080  0.79920  1.0000
  C   C716      1.0  0.82543  0.74518  0.96473  1.0000
  H   H854      1.0  0.76837  0.75747  0.97926  1.0000
  C   C717      1.0  0.53922  0.75947  0.78138  1.0000
  H   H855      1.0  0.55072  0.76641  0.76166  1.0000
  H   H856      1.0  0.78339  0.92009  0.90450  1.0000
  H   H857      1.0  0.91462  0.51666  0.85722  1.0000
  C   C718      1.0  0.98482  0.95929  0.72071  1.0000
  H   H858      1.0  0.57542  0.77215  0.81060  1.0000
  H   H859      1.0  0.51379  0.76944  0.88817  1.0000
  C   C719      1.0  0.92630  0.61560  0.99120  1.0000
  H   H860      1.0  0.84842  0.73683  0.96897  1.0000
  C   C720      1.0  0.95303  0.63096  0.99595  1.0000
  H   H861      1.0  0.97524  0.91801  0.69721  1.0000
  H   H862      1.0  0.90570  0.51562  0.94532  1.0000
  H   H863      1.0  0.00555  0.81397  0.70307  1.0000
  H   H864      1.0  0.51327  0.69072  0.86152  1.0000
