data_image0
_chemical_formula_structural       CHFeSCSFeSFeSH2FeS2FeSCFe2S2CS2CHSCSFeSHCH4C2S2HCHC2H3CH2SHCH2C3HCHC6H4C6H4CH2CH2CHCHC2H3CHCHNH8CHC2SHC3S2NCFe2C3H3CSH2FeC3HFeCHCH4CHCH2CHSCHCHCHCHC3H2CNH3C3NFeC2FeHNHCHCHCH3NH5CHCH2CSC2HSH4CH3C2HCH2C3HSCS2HCFeH2C2H2C2SCFeS2FeS2Fe2S2C6HSH3CHC3H2CHC4HC2H3C2HCHFeHSFeS2HFeS2H4C2H3C3H3CH3C4HCH3CH3C2H2FeH2C2FeCH3FeH2NCHC2HCSHC2HNC4HCH2C3HCH2CH2CH2C2H4CH3CSC2H3CHCH2C2SHNHC2H3CHC2SHCHCFeHCHC3H3NCSHC3H3S2HSH2NC3H2C3HS2CSCHCHCH3CHSH2CHNFeH3FeC5HFeSFeSCHC2HCH4FeSFeSFeSFeS2C2FeSHFeS2Fe2S2C6H4CNCHCH2CFeCHSH4SH3C10H4CHC2H3C2HC2H2CH3SHCHNH4CH2NHSFeCHC3H2CHNC4HSH2CNC6HCH13C2HCHCHC2HCH2SNH2C2H2CHC4HC2HNCSCHC4HCH2CH3C2HSH4CH4CH2C2H5SCH3CH2CH2C3HSH4C2H3C3HC2HC2H4C3H2SHSCH2FeHNHCSCSCFeH3CSHC3HCHC3H2CHSH2CHCH3FeCHCHC2HCHSHSCHCSH3CSFeH3C2H4CS2H4C2HCHC2FeHNCH2SCFeC2HFeH2CH2SH7C6HCH3C3H2NH3NH2C2H7SH2C4H3CH3CSCHCHC2HCH3C2H2CH2C2HCHSH2C3HFeHSHC2NSHCHC2H2CH4FeH2C3H4CHSHCHCHSHSC4HCH3SCNSFeHCH2SC3SC2HC2H3NH2CSFeHC2HCH3SHCH6SHSHC2HCSHFeHC3SH2CHCHC2HC3HCHSC3HCH2C2HC2H3CHFeHFeH4CH2CH2SCHCH4CSHSC3HCSCH3C2H3CH2C5HCHFeH2NFeS2HCHCHCHCNHCSCH2NSCSCFeC2SHSFeSFeCSCFeSFeSFeSFeS4CHCFeSHCFeSH2CHCHCH2NC7H6C2H3C4NH3C2SHC7H5CH4CSHFeSCSCH4CHC2HCNCSC2HC2SH2CH2C2SCHCH3CHCHC2HSH6C2HC2H3CHCHC3NH5CHC4HSCH3C2H5CH3CHCHCHCHC2H3C2H2NHCFeSH3C3HC4SH3FeCHCHC2H2CHNC3HCHCHCHC3HSHSH2CHFeSFeSFeSFeS2H2SCSHC5H5CH2FeC3H2CHC3H3CHCH2FeSFeSFeSFeS3HSH4CNC2H2C3H2CHC4H3CSC2NC2H4SC4H4CH7CHCH2CH3C3H2CFeHC2NHNCHCHCSHCH3CNH3CHC2S2C2H3C5HC2H2CH2CFeH2C2H2C2HC3HSFeSCSHC2HCH2C2SCHC3HFeH2NC3HSH4CH5NCHCH4C2H5NCH2CSFeHNFeSFeSFeCFeSCSHFeSFeSCSHCH2CHCFeSFeSFeSFeS3CHCSHFeC7H7CH2C6H6C3HNC2HC2HC4H5CH7CHSNC6H2CH12CHNC2HC2HCSH2C2SH3CHFeCSCSCNCH2SH3C2H6CHC3SHCHCH2C2HCH2FeSC2H2CFeCHCSH2CHSH3C3HC2HC4H2SH5CH2C3H2CH
_chemical_formula_sum              "C720 H864 Fe96 S192 N48"
_cell_length_a       40.1221
_cell_length_b       39.9199
_cell_length_c       47.3031
_cell_angle_alpha    89.8281
_cell_angle_beta     90.0737
_cell_angle_gamma    89.9539

_space_group_name_H-M_alt    "P 1"
_space_group_IT_number       1

loop_
  _space_group_symop_operation_xyz
  'x, y, z'

loop_
  _atom_site_type_symbol
  _atom_site_label
  _atom_site_symmetry_multiplicity
  _atom_site_fract_x
  _atom_site_fract_y
  _atom_site_fract_z
  _atom_site_occupancy
  C   C1        1.0  0.38563  0.48434  0.09990  1.0000
  H   H1        1.0  0.24093  0.07246  0.11448  1.0000
  Fe  Fe1       1.0  0.99172  0.03584  0.24929  1.0000
  S   S1        1.0  0.26984  0.42388  0.19354  1.0000
  C   C2        1.0  0.03416  0.13626  0.25740  1.0000
  S   S2        1.0  0.20597  0.42850  0.23852  1.0000
  Fe  Fe2       1.0  0.26210  0.42772  0.24058  1.0000
  S   S3        1.0  0.29626  0.40698  0.27416  1.0000
  Fe  Fe3       1.0  0.21403  0.43074  0.19136  1.0000
  S   S4        1.0  0.17717  0.41244  0.15859  1.0000
  H   H2        1.0  0.36963  0.40784  0.19785  1.0000
  H   H3        1.0  0.33788  0.41181  0.22424  1.0000
  Fe  Fe4       1.0  0.08508  0.25654  0.10857  1.0000
  S   S5        1.0  0.03534  0.27975  0.11736  1.0000
  S   S6        1.0  0.12920  0.26321  0.13802  1.0000
  Fe  Fe5       1.0  0.05725  0.21565  0.05966  1.0000
  S   S7        1.0  0.00535  0.23621  0.06496  1.0000
  C   C3        1.0  0.03043  0.47628  0.27608  1.0000
  Fe  Fe6       1.0  0.03113  0.28630  0.06977  1.0000
  Fe  Fe7       1.0  0.01474  0.22748  0.11166  1.0000
  S   S8        1.0  0.08268  0.26570  0.06173  1.0000
  S   S9        1.0  0.06485  0.20431  0.10556  1.0000
  C   C4        1.0  0.16363  0.13685  0.07915  1.0000
  S   S10       1.0  0.05983  0.03503  0.33750  1.0000
  S   S11       1.0  0.02225  0.33897  0.05083  1.0000
  C   C5        1.0  0.41875  0.39989  0.23844  1.0000
  H   H4        1.0  0.38861  0.24291  0.19280  1.0000
  S   S12       1.0  0.38785  0.26128  0.35493  1.0000
  C   C6        1.0  0.40374  0.20227  0.23539  1.0000
  S   S13       1.0  0.40101  0.19589  0.31339  1.0000
  Fe  Fe8       1.0  0.38114  0.24802  0.30904  1.0000
  S   S14       1.0  0.33573  0.25411  0.28156  1.0000
  H   H5        1.0  0.21501  0.06408  0.31550  1.0000
  C   C7        1.0  0.04466  0.44474  0.27964  1.0000
  H   H6        1.0  0.35786  0.24657  0.21983  1.0000
  H   H7        1.0  0.98953  0.16467  0.25015  1.0000
  H   H8        1.0  0.26976  0.04284  0.33714  1.0000
  H   H9        1.0  0.33438  0.37351  0.35127  1.0000
  C   C8        1.0  0.46573  0.08858  0.23177  1.0000
  C   C9        1.0  0.36513  0.04479  0.04981  1.0000
  S   S15       1.0  0.06673  0.17378  0.02876  1.0000
  S   S16       1.0  0.46423  0.22999  0.34753  1.0000
  H   H10       1.0  0.37708  0.06907  0.04946  1.0000
  C   C10       1.0  0.26669  0.15297  0.30359  1.0000
  H   H11       1.0  0.36691  0.42275  0.04753  1.0000
  C   C11       1.0  0.45302  0.13098  0.26745  1.0000
  C   C12       1.0  0.44867  0.09868  0.25624  1.0000
  H   H12       1.0  0.21635  0.14128  0.07938  1.0000
  H   H13       1.0  0.43963  0.13813  0.28624  1.0000
  H   H14       1.0  0.43225  0.08117  0.26679  1.0000
  C   C13       1.0  0.38945  0.17292  0.19227  1.0000
  H   H15       1.0  0.07679  0.46168  0.17827  1.0000
  H   H16       1.0  0.15982  0.16337  0.08299  1.0000
  S   S17       1.0  0.03114  0.99737  0.25992  1.0000
  H   H17       1.0  0.22376  0.12233  0.30562  1.0000
  C   C14       1.0  0.10838  0.22256  0.21241  1.0000
  H   H18       1.0  0.98725  0.01860  0.12318  1.0000
  H   H19       1.0  0.00650  0.02811  0.15654  1.0000
  C   C15       1.0  0.99829  0.10345  0.19162  1.0000
  C   C16       1.0  0.36716  0.22972  0.20274  1.0000
  C   C17       1.0  0.08310  0.15473  0.23192  1.0000
  H   H20       1.0  0.27970  0.08344  0.04315  1.0000
  C   C18       1.0  0.37839  0.01927  0.06715  1.0000
  H   H21       1.0  0.40960  0.17937  0.24774  1.0000
  C   C19       1.0  0.16403  0.37072  0.15399  1.0000
  C   C20       1.0  0.13855  0.36426  0.13441  1.0000
  C   C21       1.0  0.12745  0.33141  0.12967  1.0000
  C   C22       1.0  0.14198  0.30473  0.14437  1.0000
  C   C23       1.0  0.16719  0.31116  0.16427  1.0000
  C   C24       1.0  0.17813  0.34415  0.16920  1.0000
  H   H22       1.0  0.12758  0.38472  0.12256  1.0000
  H   H23       1.0  0.10804  0.32669  0.11427  1.0000
  H   H24       1.0  0.17853  0.29057  0.17567  1.0000
  H   H25       1.0  0.19779  0.34895  0.18432  1.0000
  C   C25       1.0  0.30768  0.36455  0.27395  1.0000
  C   C26       1.0  0.28999  0.34065  0.25843  1.0000
  C   C27       1.0  0.29879  0.30659  0.26054  1.0000
  C   C28       1.0  0.32539  0.29664  0.27795  1.0000
  C   C29       1.0  0.34358  0.32073  0.29272  1.0000
  C   C30       1.0  0.33465  0.35454  0.29073  1.0000
  H   H26       1.0  0.26908  0.34829  0.24545  1.0000
  H   H27       1.0  0.28469  0.28798  0.24906  1.0000
  H   H28       1.0  0.36424  0.31332  0.30605  1.0000
  H   H29       1.0  0.34856  0.37301  0.30239  1.0000
  C   C31       1.0  0.06774  0.13254  0.25078  1.0000
  H   H30       1.0  0.44499  0.36427  0.30012  1.0000
  H   H31       1.0  0.35401  0.15855  0.24039  1.0000
  C   C32       1.0  0.01891  0.11325  0.16902  1.0000
  H   H32       1.0  0.10366  0.42739  0.17039  1.0000
  H   H33       1.0  0.42259  0.39656  0.21603  1.0000
  C   C33       1.0  0.39652  0.42470  0.24877  1.0000
  H   H34       1.0  0.22713  0.03265  0.04354  1.0000
  C   C34       1.0  0.01586  0.16229  0.24535  1.0000
  H   H35       1.0  0.08167  0.11193  0.26000  1.0000
  C   C35       1.0  0.33972  0.46852  0.13170  1.0000
  C   C36       1.0  0.14087  0.08242  0.06875  1.0000
  H   H36       1.0  0.42042  0.47921  0.22267  1.0000
  H   H37       1.0  0.11384  0.44160  0.32258  1.0000
  H   H38       1.0  0.26422  0.03048  0.06390  1.0000
  C   C37       1.0  0.39938  0.13996  0.19993  1.0000
  H   H39       1.0  0.10919  0.15080  0.22748  1.0000
  C   C38       1.0  0.01306  0.14332  0.15405  1.0000
  H   H40       1.0  0.42738  0.21068  0.22528  1.0000
  N   N1        1.0  0.37722  0.19646  0.21411  1.0000
  H   H41       1.0  0.24057  0.08918  0.02547  1.0000
  H   H42       1.0  0.19487  0.05177  0.34756  1.0000
  H   H43       1.0  0.39637  0.22163  0.25112  1.0000
  H   H44       1.0  0.42608  0.40934  0.04261  1.0000
  H   H45       1.0  0.12620  0.21446  0.03531  1.0000
  H   H46       1.0  0.38503  0.20605  0.15521  1.0000
  H   H47       1.0  0.39902  0.13170  0.22169  1.0000
  H   H48       1.0  0.03845  0.21546  0.17286  1.0000
  C   C39       1.0  0.41198  0.12608  0.15133  1.0000
  H   H49       1.0  0.40446  0.16532  0.12094  1.0000
  C   C40       1.0  0.13307  0.19084  0.02587  1.0000
  C   C41       1.0  0.11623  0.40681  0.22177  1.0000
  S   S18       1.0  0.46047  0.33047  0.35475  1.0000
  H   H50       1.0  0.42065  0.10808  0.13579  1.0000
  C   C42       1.0  0.99641  0.00737  0.14331  1.0000
  C   C43       1.0  0.34777  0.18180  0.22853  1.0000
  C   C44       1.0  0.11538  0.46691  0.31445  1.0000
  S   S19       1.0  0.00752  0.06514  0.20956  1.0000
  S   S20       1.0  0.42973  0.27013  0.29530  1.0000
  N   N2        1.0  0.37822  0.44676  0.22880  1.0000
  C   C45       1.0  0.43179  0.38112  0.28592  1.0000
  Fe  Fe9       1.0  0.47515  0.01987  0.17918  1.0000
  Fe  Fe10      1.0  0.43854  0.27981  0.34181  1.0000
  C   C46       1.0  0.25892  0.10892  0.33949  1.0000
  C   C47       1.0  0.14053  0.47512  0.29479  1.0000
  C   C48       1.0  0.06740  0.43239  0.25984  1.0000
  H   H51       1.0  0.13517  0.39906  0.20589  1.0000
  H   H52       1.0  0.41769  0.09185  0.18605  1.0000
  H   H53       1.0  0.07759  0.16738  0.16461  1.0000
  C   C49       1.0  0.23798  0.03967  0.06438  1.0000
  S   S21       1.0  0.41129  0.47378  0.07033  1.0000
  H   H54       1.0  0.02892  0.15013  0.13653  1.0000
  H   H55       1.0  0.37521  0.44354  0.28852  1.0000
  Fe  Fe11      1.0  0.45023  0.21835  0.30246  1.0000
  C   C50       1.0  0.29756  0.16126  0.31514  1.0000
  C   C51       1.0  0.35746  0.47251  0.24304  1.0000
  C   C52       1.0  0.39247  0.42646  0.27865  1.0000
  H   H56       1.0  0.22514  0.02531  0.08135  1.0000
  Fe  Fe12      1.0  0.21106  0.48440  0.23679  1.0000
  C   C53       1.0  0.24755  0.12716  0.31543  1.0000
  H   H57       1.0  0.12813  0.20595  0.22107  1.0000
  C   C54       1.0  0.40279  0.15833  0.14306  1.0000
  H   H58       1.0  0.25749  0.11060  0.09986  1.0000
  H   H59       1.0  0.03964  0.09748  0.16304  1.0000
  H   H60       1.0  0.35947  0.37894  0.04840  1.0000
  H   H61       1.0  0.33336  0.15047  0.34766  1.0000
  C   C55       1.0  0.25392  0.09317  0.04575  1.0000
  H   H62       1.0  0.40656  0.40652  0.31949  1.0000
  C   C56       1.0  0.06099  0.48333  0.23239  1.0000
  H   H63       1.0  0.11704  0.16680  0.18246  1.0000
  H   H64       1.0  0.07800  0.40813  0.26441  1.0000
  C   C57       1.0  0.35583  0.42620  0.21097  1.0000
  H   H65       1.0  0.11118  0.12657  0.07596  1.0000
  S   S22       1.0  0.41501  0.02790  0.08729  1.0000
  C   C58       1.0  0.05870  0.22818  0.18471  1.0000
  H   H66       1.0  0.33746  0.46086  0.25602  1.0000
  C   C59       1.0  0.06495  0.18099  0.21860  1.0000
  H   H67       1.0  0.34653  0.22747  0.18712  1.0000
  C   C60       1.0  0.36124  0.46125  0.10890  1.0000
  H   H68       1.0  0.14849  0.45641  0.19766  1.0000
  C   C61       1.0  0.07652  0.45156  0.23564  1.0000
  H   H69       1.0  0.15820  0.45626  0.28815  1.0000
  C   C62       1.0  0.17307  0.06913  0.06668  1.0000
  C   C63       1.0  0.30945  0.14377  0.33857  1.0000
  C   C64       1.0  0.03075  0.18424  0.22603  1.0000
  H   H70       1.0  0.07175  0.24446  0.16913  1.0000
  H   H71       1.0  0.04739  0.24530  0.20052  1.0000
  C   C65       1.0  0.47504  0.15349  0.25459  1.0000
  N   N3        1.0  0.23877  0.08244  0.35335  1.0000
  H   H72       1.0  0.35874  0.43760  0.09807  1.0000
  H   H73       1.0  0.10783  0.19962  0.15830  1.0000
  H   H74       1.0  0.46800  0.15537  0.32646  1.0000
  C   C66       1.0  0.12908  0.46442  0.21295  1.0000
  C   C67       1.0  0.13616  0.11614  0.07512  1.0000
  C   C68       1.0  0.19592  0.12390  0.07703  1.0000
  N   N4        1.0  0.10139  0.43993  0.21470  1.0000
  Fe  Fe13      1.0  0.02295  0.01209  0.30553  1.0000
  C   C69       1.0  0.41972  0.38876  0.02764  1.0000
  C   C70       1.0  0.41018  0.40512  0.29681  1.0000
  Fe  Fe14      1.0  0.27242  0.47998  0.19460  1.0000
  H   H75       1.0  0.03895  0.43037  0.29854  1.0000
  N   N5        1.0  0.23621  0.07639  0.06932  1.0000
  H   H76       1.0  0.09812  0.23754  0.23021  1.0000
  C   C71       1.0  0.40196  0.46476  0.21008  1.0000
  H   H77       1.0  0.17485  0.04296  0.06120  1.0000
  C   C72       1.0  0.09667  0.18339  0.17497  1.0000
  H   H78       1.0  0.31208  0.18167  0.30624  1.0000
  C   C73       1.0  0.20170  0.08951  0.07109  1.0000
  H   H79       1.0  0.25738  0.16703  0.28560  1.0000
  H   H80       1.0  0.41590  0.44759  0.19594  1.0000
  H   H81       1.0  0.12941  0.40745  0.24250  1.0000
  N   N6        1.0  0.08162  0.20348  0.19803  1.0000
  H   H82       1.0  0.12094  0.24030  0.19757  1.0000
  H   H83       1.0  0.11936  0.06666  0.06489  1.0000
  H   H84       1.0  0.33702  0.19936  0.24432  1.0000
  H   H85       1.0  0.02211  0.11852  0.27147  1.0000
  H   H86       1.0  0.34114  0.44209  0.19605  1.0000
  C   C74       1.0  0.39164  0.18154  0.16310  1.0000
  H   H87       1.0  0.01460  0.20288  0.21666  1.0000
  C   C75       1.0  0.25436  0.08334  0.09603  1.0000
  H   H88       1.0  0.14132  0.46741  0.23383  1.0000
  H   H89       1.0  0.25578  0.12074  0.04857  1.0000
  C   C76       1.0  0.41024  0.11694  0.17969  1.0000
  S   S23       1.0  0.06183  0.47887  0.34925  1.0000
  C   C77       1.0  0.09753  0.02605  0.35607  1.0000
  C   C78       1.0  0.43604  0.37848  0.25680  1.0000
  H   H90       1.0  0.46226  0.11939  0.34866  1.0000
  S   S24       1.0  0.46049  0.04678  0.21998  1.0000
  H   H91       1.0  0.32782  0.17561  0.21304  1.0000
  H   H92       1.0  0.32089  0.45064  0.13803  1.0000
  H   H93       1.0  0.09708  0.38668  0.22208  1.0000
  H   H94       1.0  0.27999  0.07247  0.09576  1.0000
  C   C79       1.0  0.29032  0.11836  0.35088  1.0000
  H   H95       1.0  0.01378  0.48606  0.29211  1.0000
  H   H96       1.0  0.19027  0.09372  0.33566  1.0000
  H   H97       1.0  0.45267  0.35949  0.24848  1.0000
  C   C80       1.0  0.33703  0.03902  0.03251  1.0000
  C   C81       1.0  0.32172  0.00755  0.03224  1.0000
  H   H98       1.0  0.38878  0.48273  0.19577  1.0000
  C   C82       1.0  0.98657  0.16428  0.16154  1.0000
  H   H99       1.0  0.46948  0.01955  0.03238  1.0000
  H   H100      1.0  0.31708  0.43255  0.34580  1.0000
  C   C83       1.0  0.11437  0.99549  0.35359  1.0000
  C   C84       1.0  0.20852  0.07278  0.33713  1.0000
  C   C85       1.0  0.36159  0.40072  0.03380  1.0000
  H   H101      1.0  0.41814  0.36503  0.03995  1.0000
  S   S25       1.0  0.21696  0.48705  0.18944  1.0000
  C   C86       1.0  0.47771  0.14215  0.34548  1.0000
  S   S26       1.0  0.26674  0.48361  0.24185  1.0000
  S   S27       1.0  0.48309  0.19362  0.26928  1.0000
  H   H102      1.0  0.06403  0.41969  0.18694  1.0000
  C   C87       1.0  0.08567  0.43711  0.18641  1.0000
  Fe  Fe15      1.0  0.44893  0.00175  0.12002  1.0000
  H   H103      1.0  0.99036  0.99456  0.20000  1.0000
  H   H104      1.0  0.01768  0.99063  0.13805  1.0000
  C   C88       1.0  0.37625  0.01432  0.58911  1.0000
  C   C89       1.0  0.11053  0.05046  0.37451  1.0000
  H   H105      1.0  0.38530  0.07355  0.50200  1.0000
  H   H106      1.0  0.39392  0.16637  0.47648  1.0000
  C   C90       1.0  0.30321  0.43916  0.57404  1.0000
  C   C91       1.0  0.34493  0.01921  0.53514  1.0000
  S   S28       1.0  0.40700  0.17093  0.39116  1.0000
  C   C92       1.0  0.46596  0.37674  0.44416  1.0000
  Fe  Fe16      1.0  0.20665  0.06946  0.49949  1.0000
  S   S29       1.0  0.22482  0.01793  0.48797  1.0000
  S   S30       1.0  0.16650  0.07671  0.53192  1.0000
  Fe  Fe17      1.0  0.24880  0.10330  0.45530  1.0000
  S   S31       1.0  0.27011  0.05469  0.44031  1.0000
  S   S32       1.0  0.25892  0.15250  0.43390  1.0000
  Fe  Fe18      1.0  0.21736  0.03562  0.44295  1.0000
  Fe  Fe19      1.0  0.27569  0.04234  0.48682  1.0000
  S   S33       1.0  0.19601  0.08523  0.45495  1.0000
  S   S34       1.0  0.25751  0.09274  0.50127  1.0000
  C   C93       1.0  0.29995  0.15694  0.42166  1.0000
  C   C94       1.0  0.30851  0.18516  0.40561  1.0000
  C   C95       1.0  0.34130  0.18947  0.39603  1.0000
  C   C96       1.0  0.36566  0.16557  0.40248  1.0000
  C   C97       1.0  0.35703  0.13715  0.41831  1.0000
  C   C98       1.0  0.32420  0.13283  0.42790  1.0000
  H   H107      1.0  0.28979  0.20383  0.40070  1.0000
  S   S35       1.0  0.39442  0.01072  0.62349  1.0000
  H   H108      1.0  0.37578  0.11856  0.42326  1.0000
  H   H109      1.0  0.31781  0.11118  0.44050  1.0000
  H   H110      1.0  0.34281  0.12433  0.55592  1.0000
  C   C99       1.0  0.13972  0.04438  0.39043  1.0000
  H   H111      1.0  0.14926  0.06344  0.40442  1.0000
  C   C100      1.0  0.15474  0.11892  0.53551  1.0000
  C   C101      1.0  0.17178  0.14410  0.52084  1.0000
  C   C102      1.0  0.16252  0.17777  0.52425  1.0000
  H   H112      1.0  0.19247  0.13773  0.50725  1.0000
  H   H113      1.0  0.17617  0.19723  0.51330  1.0000
  C   C103      1.0  0.37673  0.38518  0.37732  1.0000
  H   H114      1.0  0.32572  0.09458  0.53085  1.0000
  C   C104      1.0  0.46320  0.34691  0.38965  1.0000
  C   C105      1.0  0.03729  0.28338  0.45563  1.0000
  C   C106      1.0  0.35690  0.45195  0.37199  1.0000
  C   C107      1.0  0.37770  0.09365  0.69040  1.0000
  H   H115      1.0  0.39873  0.15234  0.54357  1.0000
  C   C108      1.0  0.44823  0.34682  0.43957  1.0000
  C   C109      1.0  0.44678  0.33200  0.41252  1.0000
  H   H116      1.0  0.27677  0.19315  0.50021  1.0000
  H   H117      1.0  0.43530  0.33510  0.45705  1.0000
  H   H118      1.0  0.43275  0.30919  0.40935  1.0000
  C   C110      1.0  0.01921  0.43923  0.58057  1.0000
  C   C111      1.0  0.32031  0.20733  0.47675  1.0000
  H   H119      1.0  0.05975  0.29705  0.44802  1.0000
  C   C112      1.0  0.07865  0.19435  0.41738  1.0000
  H   H120      1.0  0.06225  0.35613  0.61294  1.0000
  Fe  Fe20      1.0  0.05031  0.27496  0.62243  1.0000
  H   H121      1.0  0.33185  0.47305  0.54812  1.0000
  S   S36       1.0  0.05870  0.31052  0.65863  1.0000
  Fe  Fe21      1.0  0.07980  0.23735  0.57306  1.0000
  S   S37       1.0  0.03006  0.21743  0.55987  1.0000
  S   S38       1.0  0.12534  0.22874  0.54635  1.0000
  H   H122      1.0  0.21305  0.11819  0.37948  1.0000
  Fe  Fe22      1.0  0.02214  0.20713  0.60645  1.0000
  S   S39       1.0  0.06196  0.29027  0.57789  1.0000
  S   S40       1.0  0.07361  0.22404  0.61881  1.0000
  H   H123      1.0  0.28889  0.45990  0.58223  1.0000
  H   H124      1.0  0.99908  0.25209  0.49468  1.0000
  H   H125      1.0  0.21222  0.07569  0.39252  1.0000
  H   H126      1.0  0.41282  0.07780  0.65879  1.0000
  C   C113      1.0  0.34208  0.02202  0.58660  1.0000
  C   C114      1.0  0.32653  0.02461  0.55984  1.0000
  H   H127      1.0  0.02864  0.42038  0.63664  1.0000
  H   H128      1.0  0.27230  0.37380  0.64640  1.0000
  H   H129      1.0  0.30024  0.03041  0.55837  1.0000
  C   C115      1.0  0.13601  0.18635  0.54208  1.0000
  C   C116      1.0  0.11847  0.16113  0.55626  1.0000
  C   C117      1.0  0.12792  0.12745  0.55304  1.0000
  H   H130      1.0  0.09797  0.16757  0.57007  1.0000
  H   H131      1.0  0.11463  0.10806  0.56440  1.0000
  H   H132      1.0  0.12279  0.99633  0.47605  1.0000
  C   C118      1.0  0.33888  0.42654  0.35850  1.0000
  H   H133      1.0  0.14110  0.02574  0.45137  1.0000
  H   H134      1.0  0.06168  0.05767  0.50547  1.0000
  H   H135      1.0  0.41951  0.13991  0.51160  1.0000
  C   C119      1.0  0.16522  0.35048  0.66394  1.0000
  C   C120      1.0  0.15719  0.32507  0.64472  1.0000
  C   C121      1.0  0.12447  0.31288  0.64288  1.0000
  C   C122      1.0  0.09971  0.32584  0.66050  1.0000
  H   H136      1.0  0.02235  0.21372  0.49516  1.0000
  C   C123      1.0  0.34866  0.42237  0.54350  1.0000
  H   H137      1.0  0.17636  0.31456  0.63134  1.0000
  H   H138      1.0  0.11856  0.29310  0.62811  1.0000
  H   H139      1.0  0.08593  0.09700  0.47186  1.0000
  C   C124      1.0  0.05216  0.37624  0.59902  1.0000
  H   H140      1.0  0.11627  0.08327  0.44647  1.0000
  H   H141      1.0  0.30307  0.14621  0.52380  1.0000
  H   H142      1.0  0.47129  0.45387  0.60809  1.0000
  C   C125      1.0  0.10130  0.22207  0.46801  1.0000
  C   C126      1.0  0.01640  0.35278  0.51889  1.0000
  H   H143      1.0  0.00271  0.08639  0.63979  1.0000
  H   H144      1.0  0.36051  0.36997  0.54329  1.0000
  Fe  Fe23      1.0  0.44974  0.00464  0.63465  1.0000
  H   H145      1.0  0.04469  0.28512  0.51122  1.0000
  H   H146      1.0  0.23695  0.38201  0.57346  1.0000
  C   C127      1.0  0.39486  0.41034  0.39091  1.0000
  C   C128      1.0  0.12120  0.19939  0.45314  1.0000
  Fe  Fe24      1.0  0.01156  0.27003  0.56742  1.0000
  C   C129      1.0  0.38562  0.44465  0.38854  1.0000
  H   H147      1.0  0.30318  0.35681  0.62381  1.0000
  H   H148      1.0  0.07431  0.01445  0.50582  1.0000
  H   H149      1.0  0.24924  0.10031  0.39532  1.0000
  Fe  Fe25      1.0  0.47502  0.44799  0.49470  1.0000
  H   H150      1.0  0.03426  0.22266  0.42336  1.0000
  H   H151      1.0  0.41358  0.11014  0.53903  1.0000
  N   N7        1.0  0.09723  0.04389  0.47301  1.0000
  C   C130      1.0  0.01770  0.04394  0.42895  1.0000
  H   H152      1.0  0.30006  0.10677  0.36987  1.0000
  C   C131      1.0  0.35196  0.15191  0.50337  1.0000
  C   C132      1.0  0.37491  0.48775  0.60012  1.0000
  H   H153      1.0  0.06297  0.16570  0.66381  1.0000
  C   C133      1.0  0.00343  0.40765  0.58411  1.0000
  S   S41       1.0  0.48555  0.04286  0.61774  1.0000
  H   H154      1.0  0.34969  0.08963  0.48358  1.0000
  C   C134      1.0  0.30283  0.18776  0.49610  1.0000
  C   C135      1.0  0.12809  0.02329  0.47205  1.0000
  H   H155      1.0  0.03531  0.34371  0.53326  1.0000
  N   N8        1.0  0.27320  0.39610  0.60478  1.0000
  C   C136      1.0  0.24935  0.37163  0.59265  1.0000
  C   C137      1.0  0.29024  0.38046  0.62936  1.0000
  C   C138      1.0  0.25349  0.42492  0.61552  1.0000
  C   C139      1.0  0.29830  0.40556  0.58325  1.0000
  H   H156      1.0  0.08502  0.28277  0.49524  1.0000
  C   C140      1.0  0.31932  0.38076  0.57119  1.0000
  H   H157      1.0  0.31700  0.35470  0.57708  1.0000
  H   H158      1.0  0.06849  0.24787  0.51502  1.0000
  C   C141      1.0  0.10994  0.18558  0.42788  1.0000
  C   C142      1.0  0.01374  0.39716  0.63394  1.0000
  C   C143      1.0  0.02396  0.01855  0.40955  1.0000
  H   H159      1.0  0.33118  0.45535  0.65622  1.0000
  C   C144      1.0  0.34421  0.38917  0.55175  1.0000
  H   H160      1.0  0.09763  0.07411  0.37670  1.0000
  H   H161      1.0  0.14637  0.03106  0.48850  1.0000
  C   C145      1.0  0.06205  0.26813  0.49983  1.0000
  H   H162      1.0  0.32745  0.02576  0.60552  1.0000
  H   H163      1.0  0.23479  0.41696  0.63158  1.0000
  C   C146      1.0  0.48140  0.37656  0.39431  1.0000
  H   H164      1.0  0.05567  0.36807  0.57676  1.0000
  H   H165      1.0  0.34768  0.21141  0.38380  1.0000
  C   C147      1.0  0.02162  0.38276  0.50359  1.0000
  C   C148      1.0  0.48300  0.39126  0.42142  1.0000
  H   H166      1.0  0.30789  0.22778  0.46589  1.0000
  H   H167      1.0  0.14551  0.19243  0.46142  1.0000
  H   H168      1.0  0.00029  0.33828  0.58379  1.0000
  H   H169      1.0  0.06989  0.18349  0.39774  1.0000
  C   C149      1.0  0.42821  0.12341  0.67924  1.0000
  H   H170      1.0  0.39363  0.00726  0.51875  1.0000
  H   H171      1.0  0.99461  0.05800  0.42756  1.0000
  H   H172      1.0  0.27980  0.05519  0.37270  1.0000
  C   C150      1.0  0.35332  0.19966  0.47044  1.0000
  S   S42       1.0  0.42972  0.48094  0.49478  1.0000
  C   C151      1.0  0.06916  0.23149  0.45799  1.0000
  C   C152      1.0  0.00876  0.46186  0.55972  1.0000
  H   H173      1.0  0.36319  0.08536  0.54921  1.0000
  H   H174      1.0  0.41590  0.40210  0.40327  1.0000
  H   H175      1.0  0.36651  0.21423  0.45461  1.0000
  C   C153      1.0  0.37912  0.01163  0.53764  1.0000
  H   H176      1.0  0.23928  0.43756  0.59833  1.0000
  C   C154      1.0  0.43506  0.46032  0.41719  1.0000
  H   H177      1.0  0.03540  0.07172  0.46418  1.0000
  H   H178      1.0  0.36857  0.42899  0.52903  1.0000
  C   C155      1.0  0.31830  0.16052  0.50939  1.0000
  C   C156      1.0  0.01618  0.23609  0.48202  1.0000
  S   S43       1.0  0.99812  0.25775  0.61277  1.0000
  H   H179      1.0  0.39022  0.10631  0.47626  1.0000
  N   N9        1.0  0.04681  0.25442  0.47369  1.0000
  H   H180      1.0  0.10182  0.04668  0.51846  1.0000
  C   C157      1.0  0.36889  0.17220  0.48327  1.0000
  C   C158      1.0  0.99850  0.35070  0.60476  1.0000
  H   H181      1.0  0.04450  0.39662  0.50661  1.0000
  H   H182      1.0  0.44886  0.48134  0.42727  1.0000
  H   H183      1.0  0.11171  0.23164  0.48743  1.0000
  C   C159      1.0  0.99507  0.10251  0.65695  1.0000
  H   H184      1.0  0.07829  0.22115  0.68312  1.0000
  C   C160      1.0  0.34911  0.10618  0.53895  1.0000
  C   C161      1.0  0.15637  0.01370  0.38814  1.0000
  S   S44       1.0  0.32694  0.02262  0.50070  1.0000
  H   H185      1.0  0.42096  0.00330  0.56589  1.0000
  C   C162      1.0  0.22776  0.09463  0.38134  1.0000
  H   H186      1.0  0.47280  0.15850  0.36407  1.0000
  C   C163      1.0  0.39474  0.00941  0.56438  1.0000
  Fe  Fe26      1.0  0.25473  0.47479  0.68641  1.0000
  H   H187      1.0  0.12694  0.08728  0.48322  1.0000
  C   C164      1.0  0.06759  0.16844  0.68633  1.0000
  H   H188      1.0  0.34794  0.47732  0.36959  1.0000
  C   C165      1.0  0.99735  0.39531  0.48476  1.0000
  C   C166      1.0  0.10692  0.07935  0.46837  1.0000
  C   C167      1.0  0.08303  0.04050  0.50184  1.0000
  H   H189      1.0  0.45252  0.44854  0.40191  1.0000
  H   H190      1.0  0.22937  0.36493  0.60805  1.0000
  H   H191      1.0  0.30903  0.39781  0.63858  1.0000
  N   N10       1.0  0.01650  0.38322  0.60501  1.0000
  C   C168      1.0  0.32793  0.44718  0.55432  1.0000
  S   S45       1.0  0.46594  0.01024  0.68046  1.0000
  H   H192      1.0  0.24386  0.03069  0.36650  1.0000
  C   C169      1.0  0.05848  0.21691  0.43216  1.0000
  C   C170      1.0  0.07737  0.00792  0.43179  1.0000
  C   C171      1.0  0.07205  0.03410  0.45164  1.0000
  H   H193      1.0  0.02153  0.30169  0.46740  1.0000
  H   H194      1.0  0.26148  0.34766  0.58673  1.0000
  H   H195      1.0  0.26963  0.44368  0.62616  1.0000
  S   S46       1.0  0.19351  0.00482  0.40753  1.0000
  S   S47       1.0  0.00663  0.15395  0.61923  1.0000
  H   H196      1.0  0.06839  0.39832  0.60264  1.0000
  S   S48       1.0  0.46604  0.39467  0.47863  1.0000
  H   H197      1.0  0.12553  0.16805  0.41647  1.0000
  H   H198      1.0  0.10008  0.99338  0.43115  1.0000
  N   N11       1.0  0.36861  0.12223  0.51590  1.0000
  C   C172      1.0  0.37384  0.09693  0.49347  1.0000
  C   C173      1.0  0.40147  0.13167  0.52798  1.0000
  C   C174      1.0  0.33739  0.47205  0.63899  1.0000
  H   H199      1.0  0.36119  0.07257  0.68668  1.0000
  H   H200      1.0  0.38185  0.44487  0.62734  1.0000
  C   C175      1.0  0.10762  0.35145  0.67959  1.0000
  C   C176      1.0  0.04127  0.05160  0.44978  1.0000
  C   C177      1.0  0.40678  0.09656  0.67458  1.0000
  H   H201      1.0  0.42965  0.44217  0.43455  1.0000
  S   S49       1.0  0.20043  0.46067  0.68258  1.0000
  S   S50       1.0  0.20665  0.36462  0.66587  1.0000
  C   C178      1.0  0.14035  0.36390  0.68124  1.0000
  S   S51       1.0  0.00478  0.43453  0.46758  1.0000
  C   C179      1.0  0.36626  0.46630  0.62265  1.0000
  H   H202      1.0  0.02305  0.37901  0.65016  1.0000
  C   C180      1.0  0.99486  0.13748  0.65283  1.0000
  H   H203      1.0  0.04022  0.44633  0.59353  1.0000
  C   C181      1.0  0.14363  0.98944  0.36949  1.0000
  H   H204      1.0  0.45111  0.12528  0.66714  1.0000
  H   H205      1.0  0.02246  0.27587  0.43687  1.0000
  H   H206      1.0  0.00151  0.22743  0.46352  1.0000
  C   C182      1.0  0.05351  0.00037  0.41118  1.0000
  H   H207      1.0  0.00895  0.33282  0.62054  1.0000
  S   S52       1.0  0.41152  0.47865  0.58018  1.0000
  H   H208      1.0  0.38459  0.35920  0.37924  1.0000
  H   H209      1.0  0.00612  0.01324  0.39288  1.0000
  C   C183      1.0  0.34866  0.39321  0.36137  1.0000
  H   H210      1.0  0.37466  0.46877  0.44061  1.0000
  N   N12       1.0  0.40417  0.47192  0.40283  1.0000
  Fe  Fe27      1.0  0.98776  0.47115  0.43259  1.0000
  H   H211      1.0  0.42890  0.48668  0.36445  1.0000
  H   H212      1.0  0.98737  0.40318  0.63918  1.0000
  H   H213      1.0  0.02183  0.48536  0.55674  1.0000
  Fe  Fe28      1.0  0.41291  0.21087  0.35782  1.0000
  C   C184      1.0  0.38261  0.48758  0.42452  1.0000
  C   C185      1.0  0.25900  0.05160  0.35749  1.0000
  C   C186      1.0  0.98652  0.33508  0.51593  1.0000
  C   C187      1.0  0.05710  0.08315  0.73981  1.0000
  C   C188      1.0  0.39134  0.14518  0.71642  1.0000
  H   H214      1.0  0.42034  0.45225  0.80862  1.0000
  Fe  Fe29      1.0  0.19583  0.46794  0.72996  1.0000
  S   S53       1.0  0.20953  0.41470  0.74042  1.0000
  Fe  Fe30      1.0  0.26230  0.43360  0.74074  1.0000
  S   S54       1.0  0.29673  0.42196  0.77729  1.0000
  C   C189      1.0  0.09804  0.01456  0.83383  1.0000
  H   H215      1.0  0.43196  0.18896  0.74728  1.0000
  C   C190      1.0  0.03494  0.32880  0.94321  1.0000
  C   C191      1.0  0.07608  0.19969  0.69714  1.0000
  H   H216      1.0  0.07706  0.07597  0.72469  1.0000
  C   C192      1.0  0.06397  0.14083  0.70437  1.0000
  H   H217      1.0  0.24138  0.45978  0.78891  1.0000
  H   H218      1.0  0.44122  0.38631  0.01299  1.0000
  H   H219      1.0  0.38635  0.10704  0.95742  1.0000
  H   H220      1.0  0.36997  0.43237  0.98261  1.0000
  Fe  Fe31      1.0  0.46698  0.28439  0.84652  1.0000
  S   S55       1.0  0.41181  0.29278  0.84897  1.0000
  Fe  Fe32      1.0  0.45804  0.21379  0.81878  1.0000
  S   S56       1.0  0.40238  0.21866  0.82063  1.0000
  Fe  Fe33      1.0  0.40994  0.27105  0.80535  1.0000
  S   S57       1.0  0.38011  0.28790  0.76739  1.0000
  Fe  Fe34      1.0  0.40978  0.23940  0.86396  1.0000
  S   S58       1.0  0.37676  0.22614  0.90082  1.0000
  S   S59       1.0  0.46541  0.26572  0.80110  1.0000
  C   C193      1.0  0.16978  0.47334  0.88451  1.0000
  C   C194      1.0  0.48408  0.35615  0.94192  1.0000
  Fe  Fe35      1.0  0.22625  0.10063  0.97103  1.0000
  S   S60       1.0  0.20683  0.04988  0.98284  1.0000
  H   H221      1.0  0.33694  0.02899  0.97041  1.0000
  Fe  Fe36      1.0  0.26886  0.07316  0.92415  1.0000
  S   S61       1.0  0.25284  0.01999  0.93236  1.0000
  S   S62       1.0  0.30799  0.08376  0.89121  1.0000
  Fe  Fe37      1.0  0.20109  0.04206  0.93565  1.0000
  Fe  Fe38      1.0  0.26021  0.03298  0.97840  1.0000
  S   S63       1.0  0.21700  0.09454  0.92449  1.0000
  S   S64       1.0  0.27961  0.08428  0.96959  1.0000
  C   C195      1.0  0.32627  0.12373  0.89354  1.0000
  C   C196      1.0  0.31503  0.14712  0.91333  1.0000
  C   C197      1.0  0.33082  0.17841  0.91560  1.0000
  C   C198      1.0  0.35764  0.18658  0.89791  1.0000
  C   C199      1.0  0.36899  0.16306  0.87825  1.0000
  C   C200      1.0  0.35333  0.13171  0.87609  1.0000
  H   H222      1.0  0.29409  0.14123  0.92682  1.0000
  H   H223      1.0  0.32194  0.19649  0.93084  1.0000
  H   H224      1.0  0.39007  0.16886  0.86494  1.0000
  H   H225      1.0  0.36227  0.11361  0.86090  1.0000
  C   C201      1.0  0.22088  0.46300  0.80431  1.0000
  N   N13       1.0  0.38259  0.17002  0.73846  1.0000
  C   C202      1.0  0.06910  0.36673  0.88207  1.0000
  H   H226      1.0  0.05845  0.99090  0.85714  1.0000
  C   C203      1.0  0.08274  0.36578  0.94507  1.0000
  H   H227      1.0  0.37336  0.17079  0.78337  1.0000
  H   H228      1.0  0.32899  0.16654  0.73336  1.0000
  C   C204      1.0  0.37062  0.31350  0.95480  1.0000
  Fe  Fe39      1.0  0.21791  0.40891  0.69367  1.0000
  C   C205      1.0  0.15117  0.12990  0.00092  1.0000
  H   H229      1.0  0.45493  0.09982  0.77535  1.0000
  S   S65       1.0  0.00736  0.00324  0.74466  1.0000
  H   H230      1.0  0.01601  0.08586  0.94905  1.0000
  H   H231      1.0  0.07315  0.33954  0.87817  1.0000
  H   H232      1.0  0.11735  0.10611  0.75685  1.0000
  H   H233      1.0  0.15817  0.10627  0.99160  1.0000
  S   S66       1.0  0.24864  0.48739  0.73256  1.0000
  H   H234      1.0  0.47800  0.07027  0.00310  1.0000
  H   H235      1.0  0.08067  0.31444  0.00269  1.0000
  H   H236      1.0  0.42475  0.33798  0.79214  1.0000
  C   C206      1.0  0.44832  0.35258  0.79317  1.0000
  C   C207      1.0  0.08299  0.00202  0.85834  1.0000
  C   C208      1.0  0.01720  0.38673  0.00877  1.0000
  C   C209      1.0  0.38094  0.15314  0.76641  1.0000
  C   C210      1.0  0.31727  0.38306  0.77513  1.0000
  C   C211      1.0  0.31733  0.36470  0.74999  1.0000
  C   C212      1.0  0.33616  0.33512  0.74797  1.0000
  C   C213      1.0  0.35435  0.32333  0.77128  1.0000
  C   C214      1.0  0.35295  0.34081  0.79681  1.0000
  C   C215      1.0  0.33489  0.37089  0.79862  1.0000
  H   H237      1.0  0.30352  0.37361  0.73188  1.0000
  H   H238      1.0  0.33684  0.32152  0.72823  1.0000
  H   H239      1.0  0.36598  0.33128  0.81507  1.0000
  H   H240      1.0  0.33453  0.38474  0.81822  1.0000
  C   C216      1.0  0.34950  0.31807  0.97783  1.0000
  H   H241      1.0  0.32747  0.05884  0.01921  1.0000
  C   C217      1.0  0.10942  0.45523  0.82162  1.0000
  C   C218      1.0  0.12898  0.45934  0.79702  1.0000
  H   H242      1.0  0.11246  0.43291  0.83436  1.0000
  H   H243      1.0  0.14598  0.43975  0.79071  1.0000
  H   H244      1.0  0.09335  0.08807  0.78514  1.0000
  C   C219      1.0  0.39525  0.05510  0.92348  1.0000
  C   C220      1.0  0.01105  0.35964  0.89251  1.0000
  H   H245      1.0  0.33221  0.03922  0.93394  1.0000
  C   C221      1.0  0.07364  0.32528  0.98246  1.0000
  C   C222      1.0  0.34956  0.18508  0.73210  1.0000
  H   H246      1.0  0.34655  0.09516  0.94481  1.0000
  H   H247      1.0  0.26126  0.46680  0.84819  1.0000
  C   C223      1.0  0.13010  0.02872  0.83602  1.0000
  H   H248      1.0  0.41176  0.36753  0.75130  1.0000
  H   H249      1.0  0.44164  0.36957  0.84576  1.0000
  H   H250      1.0  0.43911  0.16692  0.70282  1.0000
  S   S67       1.0  0.15159  0.01912  0.92067  1.0000
  H   H251      1.0  0.34921  0.19632  0.71052  1.0000
  C   C224      1.0  0.14684  0.03047  0.86231  1.0000
  H   H252      1.0  0.37666  0.06227  0.90694  1.0000
  N   N14       1.0  0.38817  0.39569  0.01236  1.0000
  H   H253      1.0  0.01274  0.42619  0.97764  1.0000
  H   H254      1.0  0.41472  0.42842  0.98335  1.0000
  H   H255      1.0  0.40136  0.37572  0.83020  1.0000
  H   H256      1.0  0.05472  0.06224  0.75533  1.0000
  C   C225      1.0  0.47018  0.11370  0.76056  1.0000
  H   H257      1.0  0.46969  0.07433  0.72929  1.0000
  H   H258      1.0  0.04195  0.14489  0.78716  1.0000
  N   N15       1.0  0.04325  0.37205  0.90399  1.0000
  H   H259      1.0  0.11449  0.35984  0.98167  1.0000
  S   S68       1.0  0.27225  0.42265  0.69511  1.0000
  Fe  Fe40      1.0  0.02287  0.00408  0.79067  1.0000
  C   C226      1.0  0.05343  0.35538  0.93068  1.0000
  H   H260      1.0  0.39923  0.21649  0.75721  1.0000
  C   C227      1.0  0.04517  0.31399  0.96863  1.0000
  C   C228      1.0  0.09248  0.35103  0.97066  1.0000
  C   C229      1.0  0.09984  0.00352  0.88456  1.0000
  H   H261      1.0  0.09810  0.38573  0.93681  1.0000
  H   H262      1.0  0.34315  0.20541  0.74732  1.0000
  C   C230      1.0  0.48114  0.14608  0.76773  1.0000
  H   H263      1.0  0.06353  0.42117  0.91363  1.0000
  N   N16       1.0  0.06467  0.11544  0.75396  1.0000
  C   C231      1.0  0.38964  0.45851  0.77230  1.0000
  C   C232      1.0  0.07778  0.17606  0.74431  1.0000
  C   C233      1.0  0.17534  0.15445  0.00558  1.0000
  C   C234      1.0  0.09547  0.11030  0.77087  1.0000
  H   H264      1.0  0.41539  0.07413  0.92226  1.0000
  S   S69       1.0  0.07831  0.01237  0.79998  1.0000
  H   H265      1.0  0.01235  0.33261  0.88696  1.0000
  H   H266      1.0  0.08141  0.18045  0.76661  1.0000
  C   C235      1.0  0.38125  0.36779  0.99257  1.0000
  N   N17       1.0  0.08006  0.09923  0.93205  1.0000
  C   C236      1.0  0.11081  0.10640  0.91559  1.0000
  C   C237      1.0  0.06988  0.13094  0.94602  1.0000
  C   C238      1.0  0.08859  0.07392  0.95392  1.0000
  C   C239      1.0  0.05226  0.08619  0.91465  1.0000
  C   C240      1.0  0.99870  0.05855  0.88305  1.0000
  C   C241      1.0  0.38573  0.41168  0.74045  1.0000
  H   H267      1.0  0.02972  0.42151  0.88958  1.0000
  C   C242      1.0  0.08616  0.47974  0.82996  1.0000
  H   H268      1.0  0.39413  0.44952  0.01116  1.0000
  H   H269      1.0  0.10606  0.12495  0.89847  1.0000
  H   H270      1.0  0.13101  0.11678  0.92921  1.0000
  H   H271      1.0  0.12145  0.08322  0.90621  1.0000
  H   H272      1.0  0.05920  0.14895  0.93045  1.0000
  H   H273      1.0  0.09126  0.14371  0.95644  1.0000
  H   H274      1.0  0.05108  0.12705  0.96298  1.0000
  H   H275      1.0  0.09330  0.04899  0.94414  1.0000
  H   H276      1.0  0.11157  0.08070  0.96572  1.0000
  H   H277      1.0  0.06835  0.07057  0.96968  1.0000
  H   H278      1.0  0.37496  0.40033  0.72175  1.0000
  H   H279      1.0  0.38018  0.99672  0.98800  1.0000
  H   H280      1.0  0.17148  0.04138  0.86357  1.0000
  C   C243      1.0  0.40704  0.39301  0.75783  1.0000
  C   C244      1.0  0.08122  0.20350  0.72606  1.0000
  H   H281      1.0  0.35716  0.08779  0.98119  1.0000
  C   C245      1.0  0.02052  0.08045  0.92700  1.0000
  H   H282      1.0  0.03293  0.08422  0.72833  1.0000
  C   C246      1.0  0.35461  0.34471  0.99657  1.0000
  H   H283      1.0  0.36262  0.13233  0.76689  1.0000
  C   C247      1.0  0.42709  0.38594  0.83116  1.0000
  C   C248      1.0  0.35063  0.03055  0.95000  1.0000
  H   H284      1.0  0.41341  0.33181  0.93247  1.0000
  C   C249      1.0  0.00508  0.35583  0.01890  1.0000
  H   H285      1.0  0.14220  0.03829  0.81724  1.0000
  H   H286      1.0  0.42574  0.41082  0.84150  1.0000
  S   S70       1.0  0.28627  0.99888  0.01064  1.0000
  N   N18       1.0  0.44227  0.38751  0.80257  1.0000
  H   H287      1.0  0.00363  0.37329  0.87288  1.0000
  H   H288      1.0  0.21988  0.43967  0.81715  1.0000
  C   C250      1.0  0.42031  0.40671  0.78321  1.0000
  C   C251      1.0  0.41124  0.44020  0.78971  1.0000
  H   H289      1.0  0.40563  0.14258  0.77252  1.0000
  H   H290      1.0  0.35917  0.45799  0.73480  1.0000
  C   C252      1.0  0.06911  0.14381  0.73403  1.0000
  H   H291      1.0  0.01359  0.12908  0.76126  1.0000
  C   C253      1.0  0.37678  0.44420  0.74779  1.0000
  C   C254      1.0  0.39691  0.33561  0.95034  1.0000
  C   C255      1.0  0.42088  0.14735  0.69990  1.0000
  C   C256      1.0  0.40134  0.01330  0.98981  1.0000
  H   H292      1.0  0.03084  0.10151  0.78750  1.0000
  C   C257      1.0  0.40228  0.36227  0.96893  1.0000
  C   C258      1.0  0.40685  0.19801  0.74083  1.0000
  H   H293      1.0  0.07944  0.07979  0.87466  1.0000
  N   N19       1.0  0.37975  0.05347  0.95190  1.0000
  C   C259      1.0  0.36701  0.08725  0.95923  1.0000
  S   S71       1.0  0.21694  0.14758  0.99592  1.0000
  C   C260      1.0  0.13191  0.01761  0.88678  1.0000
  H   H294      1.0  0.06198  0.37877  0.86161  1.0000
  C   C261      1.0  0.03957  0.40856  0.90869  1.0000
  C   C262      1.0  0.00266  0.40272  0.98510  1.0000
  C   C263      1.0  0.05603  0.07741  0.88571  1.0000
  C   C264      1.0  0.45671  0.05424  0.99909  1.0000
  H   H295      1.0  0.09347  0.37783  0.88812  1.0000
  C   C265      1.0  0.36997  0.11754  0.71099  1.0000
  H   H296      1.0  0.03794  0.39847  0.01948  1.0000
  H   H297      1.0  0.34718  0.11404  0.72277  1.0000
  C   C266      1.0  0.11797  0.13588  0.00870  1.0000
  H   H298      1.0  0.43794  0.08546  0.96621  1.0000
  H   H299      1.0  0.03327  0.05668  0.84845  1.0000
  H   H300      1.0  0.36675  0.29262  0.94044  1.0000
  C   C267      1.0  0.43355  0.06274  0.97812  1.0000
  C   C268      1.0  0.40483  0.04282  0.97313  1.0000
  H   H301      1.0  0.01203  0.31946  0.93425  1.0000
  S   S72       1.0  0.46520  0.23161  0.86402  1.0000
  H   H302      1.0  0.42337  0.37836  0.96485  1.0000
  H   H303      1.0  0.18505  0.20378  0.02200  1.0000
  H   H304      1.0  0.33745  0.34654  0.01404  1.0000
  H   H305      1.0  0.10126  0.13196  0.78468  1.0000
  C   C269      1.0  0.99419  0.06690  0.91134  1.0000
  H   H306      1.0  0.46499  0.33890  0.80802  1.0000
  H   H307      1.0  0.02204  0.41362  0.92631  1.0000
  H   H308      1.0  0.40602  0.03045  0.91745  1.0000
  H   H309      1.0  0.35816  0.00486  0.94358  1.0000
  C   C270      1.0  0.39183  0.42773  0.99658  1.0000
  H   H310      1.0  0.99036  0.36349  0.90786  1.0000
  H   H311      1.0  0.46072  0.35166  0.77217  1.0000
  C   C271      1.0  0.16634  0.18479  0.01828  1.0000
  C   C272      1.0  0.03669  0.12307  0.77338  1.0000
  H   H312      1.0  0.99618  0.48179  0.00670  1.0000
  H   H313      1.0  0.47720  0.34359  0.96135  1.0000
  H   H314      1.0  0.32913  0.30065  0.98122  1.0000
  H   H315      1.0  0.14640  0.38352  0.69612  1.0000
  H   H316      1.0  0.40900  0.21227  0.72067  1.0000
  S   S73       1.0  0.47296  0.16167  0.80236  1.0000
  C   C273      1.0  0.42481  0.00495  0.01056  1.0000
  H   H317      1.0  0.08751  0.22802  0.73432  1.0000
  H   H318      1.0  0.47333  0.42971  0.81398  1.0000
  H   H319      1.0  0.03028  0.29438  0.97830  1.0000
  C   C274      1.0  0.45216  0.02555  0.01545  1.0000
  H   H320      1.0  0.08790  0.99358  0.90329  1.0000
  H   H321      1.0  0.08849  0.36157  0.69323  1.0000
  C   C275      1.0  0.47518  0.40422  0.80477  1.0000
  H   H322      1.0  0.38223  0.48368  0.77807  1.0000
  H   H323      1.0  0.05635  0.11770  0.69450  1.0000
  C   C276      1.0  0.10878  0.16652  0.02075  1.0000
  C   C277      1.0  0.02953  0.06391  0.87028  1.0000
  C   C278      1.0  0.47915  0.09882  0.73462  1.0000
  H   H324      1.0  0.09931  0.11673  0.00566  1.0000
  S   S74       1.0  0.06525  0.47486  0.86311  1.0000
  H   H325      1.0  0.16793  0.45461  0.90105  1.0000
  H   H326      1.0  0.47852  0.31135  0.91661  1.0000
  H   H327      1.0  0.19748  0.46465  0.79189  1.0000
  H   H328      1.0  0.21300  0.45123  0.86655  1.0000
  C   C279      1.0  0.48478  0.33772  0.91651  1.0000
  C   C280      1.0  0.19560  0.47179  0.86473  1.0000
  H   H329      1.0  0.33700  0.40551  0.02362  1.0000
  H   H330      1.0  0.37272  0.96795  0.08024  1.0000
  H   H331      1.0  0.19225  0.60188  0.33647  1.0000
  C   C281      1.0  0.99799  0.84710  0.16748  1.0000
  C   C282      1.0  0.99218  0.64365  0.03195  1.0000
  C   C283      1.0  0.18318  0.54939  0.34219  1.0000
  H   H332      1.0  0.04257  0.87699  0.16465  1.0000
  C   C284      1.0  0.42347  0.79615  0.28641  1.0000
  C   C285      1.0  0.14323  0.50783  0.28433  1.0000
  H   H333      1.0  0.35944  0.80412  0.30027  1.0000
  C   C286      1.0  0.34228  0.49909  0.14593  1.0000
  C   C287      1.0  0.01281  0.89229  0.20048  1.0000
  H   H334      1.0  0.40704  0.53279  0.10781  1.0000
  H   H335      1.0  0.43069  0.82285  0.28316  1.0000
  H   H336      1.0  0.03036  0.91113  0.20738  1.0000
  H   H337      1.0  0.45692  0.79010  0.33524  1.0000
  C   C288      1.0  0.40109  0.75449  0.31872  1.0000
  C   C289      1.0  0.38555  0.68542  0.32484  1.0000
  C   C290      1.0  0.36286  0.98788  0.06711  1.0000
  H   H338      1.0  0.36928  0.54569  0.14809  1.0000
  H   H339      1.0  0.36851  0.75099  0.28180  1.0000
  S   S75       1.0  0.00835  0.82279  0.13703  1.0000
  H   H340      1.0  0.38272  0.83779  0.31518  1.0000
  S   S76       1.0  0.31577  0.50964  0.17490  1.0000
  C   C291      1.0  0.48408  0.89387  0.23236  1.0000
  H   H341      1.0  0.20188  0.54183  0.32692  1.0000
  H   H342      1.0  0.47609  0.58504  0.15929  1.0000
  Fe  Fe41      1.0  0.98860  0.96079  0.26524  1.0000
  H   H343      1.0  0.00631  0.96012  0.18136  1.0000
  N   N20       1.0  0.40879  0.79051  0.31483  1.0000
  H   H344      1.0  0.35587  0.69154  0.28735  1.0000
  C   C292      1.0  0.37770  0.81042  0.31712  1.0000
  S   S77       1.0  0.17567  0.51981  0.26057  1.0000
  C   C293      1.0  0.12004  0.53200  0.29351  1.0000
  S   S78       1.0  0.00525  0.67310  0.05826  1.0000
  C   C294      1.0  0.38854  0.51471  0.11441  1.0000
  Fe  Fe42      1.0  0.47664  0.94637  0.16036  1.0000
  H   H345      1.0  0.40613  0.78995  0.26891  1.0000
  H   H346      1.0  0.34439  0.48898  0.22751  1.0000
  H   H347      1.0  0.12186  0.55738  0.28557  1.0000
  C   C295      1.0  0.37960  0.73782  0.29945  1.0000
  S   S79       1.0  0.47887  0.89092  0.17348  1.0000
  H   H348      1.0  0.07716  0.54257  0.31988  1.0000
  C   C296      1.0  0.36703  0.52195  0.13728  1.0000
  C   C297      1.0  0.43273  0.80375  0.33604  1.0000
  C   C298      1.0  0.01982  0.87266  0.17635  1.0000
  H   H349      1.0  0.43890  0.83058  0.33205  1.0000
  C   C299      1.0  0.09473  0.52373  0.31310  1.0000
  H   H350      1.0  0.44647  0.78087  0.28351  1.0000
  C   C300      1.0  0.41405  0.73506  0.34150  1.0000
  C   C301      1.0  0.33472  0.98213  0.04978  1.0000
  C   C302      1.0  0.37210  0.70379  0.30248  1.0000
  H   H351      1.0  0.32307  0.95768  0.04986  1.0000
  H   H352      1.0  0.12096  0.48969  0.20594  1.0000
  C   C303      1.0  0.03847  0.49550  0.25245  1.0000
  H   H353      1.0  0.37991  0.65901  0.32710  1.0000
  S   S80       1.0  0.43517  0.98449  0.16397  1.0000
  H   H354      1.0  0.10474  0.97644  0.33956  1.0000
  H   H355      1.0  0.00120  0.93047  0.14284  1.0000
  C   C304      1.0  0.17749  0.58322  0.34747  1.0000
  H   H356      1.0  0.06672  0.49933  0.21459  1.0000
  C   C305      1.0  0.40635  0.70105  0.34432  1.0000
  H   H357      1.0  0.16775  0.49897  0.35093  1.0000
  H   H358      1.0  0.02773  0.52025  0.24999  1.0000
  H   H359      1.0  0.36532  0.80602  0.33788  1.0000
  Fe  Fe43      1.0  0.45525  0.49616  0.04526  1.0000
  C   C306      1.0  0.09245  0.49112  0.32392  1.0000
  H   H360      1.0  0.47863  0.92033  0.23041  1.0000
  C   C307      1.0  0.48580  0.87408  0.20803  1.0000
  H   H361      1.0  0.37277  0.48915  0.25665  1.0000
  C   C308      1.0  0.16393  0.52524  0.35574  1.0000
  C   C309      1.0  0.15232  0.59309  0.36617  1.0000
  H   H362      1.0  0.42979  0.51777  0.39187  1.0000
  C   C310      1.0  0.13187  0.56903  0.38005  1.0000
  H   H363      1.0  0.07012  0.54267  0.37917  1.0000
  S   S81       1.0  0.00627  0.60019  0.44297  1.0000
  H   H364      1.0  0.45263  0.61718  0.46854  1.0000
  S   S82       1.0  0.45995  0.55130  0.44115  1.0000
  C   C311      1.0  0.10219  0.61482  0.40521  1.0000
  H   H365      1.0  0.12881  0.56425  0.43662  1.0000
  C   C312      1.0  0.46666  0.50307  0.64583  1.0000
  S   S83       1.0  0.27994  0.50788  0.65296  1.0000
  H   H366      1.0  0.46561  0.53029  0.65058  1.0000
  H   H367      1.0  0.14896  0.61970  0.36890  1.0000
  H   H368      1.0  0.12283  0.51502  0.38255  1.0000
  C   C313      1.0  0.32559  0.52113  0.61073  1.0000
  S   S84       1.0  0.47611  0.70135  0.39473  1.0000
  Fe  Fe44      1.0  0.46526  0.52294  0.48326  1.0000
  H   H369      1.0  0.08120  0.62070  0.41989  1.0000
  H   H370      1.0  0.12557  0.62313  0.41576  1.0000
  H   H371      1.0  0.04518  0.81353  0.66892  1.0000
  C   C314      1.0  0.47413  0.65950  0.40793  1.0000
  C   C315      1.0  0.46682  0.59331  0.42963  1.0000
  H   H372      1.0  0.98667  0.69372  0.50884  1.0000
  H   H373      1.0  0.39592  0.50806  0.43592  1.0000
  H   H374      1.0  0.98746  0.56989  0.49755  1.0000
  H   H375      1.0  0.36067  0.53210  0.57713  1.0000
  C   C316      1.0  0.41413  0.49791  0.38196  1.0000
  S   S85       1.0  0.47339  0.53706  0.52904  1.0000
  S   S86       1.0  0.03199  0.50454  0.42422  1.0000
  H   H376      1.0  0.10166  0.53248  0.42283  1.0000
  H   H377      1.0  0.08418  0.56766  0.44006  1.0000
  H   H378      1.0  0.47643  0.50879  0.58962  1.0000
  H   H379      1.0  0.44354  0.49722  0.63367  1.0000
  C   C317      1.0  0.46085  0.62099  0.44700  1.0000
  C   C318      1.0  0.13838  0.53479  0.37410  1.0000
  H   H380      1.0  0.45852  0.67504  0.44947  1.0000
  C   C319      1.0  0.07203  0.56996  0.38354  1.0000
  H   H381      1.0  0.09777  0.63047  0.38605  1.0000
  C   C320      1.0  0.47682  0.59898  0.40149  1.0000
  C   C321      1.0  0.31682  0.49955  0.63313  1.0000
  Fe  Fe45      1.0  0.44190  0.49187  0.54044  1.0000
  H   H382      1.0  0.15634  0.96565  0.36742  1.0000
  N   N21       1.0  0.10341  0.57853  0.39830  1.0000
  C   C322      1.0  0.10472  0.55993  0.42555  1.0000
  H   H383      1.0  0.04985  0.57712  0.39630  1.0000
  H   H384      1.0  0.99974  0.66829  0.46224  1.0000
  S   S87       1.0  0.48439  0.96076  0.62776  1.0000
  C   C323      1.0  0.05181  0.83307  0.68383  1.0000
  Fe  Fe46      1.0  0.99627  0.54780  0.42499  1.0000
  C   C324      1.0  0.07832  0.85450  0.67810  1.0000
  C   C325      1.0  0.46408  0.65384  0.43607  1.0000
  H   H385      1.0  0.46534  0.48922  0.66625  1.0000
  Fe  Fe47      1.0  0.02014  0.49861  0.37809  1.0000
  H   H386      1.0  0.30993  0.54251  0.60603  1.0000
  H   H387      1.0  0.09261  0.85112  0.65887  1.0000
  C   C326      1.0  0.35440  0.51529  0.59428  1.0000
  H   H388      1.0  0.42269  0.80216  0.35792  1.0000
  H   H389      1.0  0.35974  0.49883  0.41523  1.0000
  S   S88       1.0  0.98816  0.54499  0.37779  1.0000
  H   H390      1.0  0.00856  0.89494  0.64448  1.0000
  H   H391      1.0  0.39244  0.51116  0.37256  1.0000
  H   H392      1.0  0.48128  0.57784  0.38774  1.0000
  H   H393      1.0  0.41689  0.68667  0.36170  1.0000
  H   H394      1.0  0.05845  0.98102  0.39567  1.0000
  H   H395      1.0  0.99706  0.92788  0.68801  1.0000
  H   H396      1.0  0.07017  0.58305  0.36278  1.0000
  C   C327      1.0  0.48096  0.63180  0.39082  1.0000
  C   C328      1.0  0.99079  0.88564  0.65977  1.0000
  C   C329      1.0  0.99451  0.61718  0.47647  1.0000
  C   C330      1.0  0.99401  0.65220  0.48001  1.0000
  C   C331      1.0  0.98699  0.59685  0.49978  1.0000
  C   C332      1.0  0.98657  0.66676  0.50649  1.0000
  H   H397      1.0  0.43058  0.74527  0.35734  1.0000
  C   C333      1.0  0.47114  0.71373  0.80431  1.0000
  H   H398      1.0  0.03039  0.71899  0.98020  1.0000
  H   H399      1.0  0.09142  0.94829  0.70669  1.0000
  H   H400      1.0  0.12516  0.49908  0.89742  1.0000
  C   C334      1.0  0.19832  0.49570  0.84254  1.0000
  C   C335      1.0  0.07253  0.94681  0.72378  1.0000
  C   C336      1.0  0.06678  0.88638  0.72142  1.0000
  H   H401      1.0  0.01182  0.82124  0.71215  1.0000
  H   H402      1.0  0.43841  0.79462  0.90836  1.0000
  N   N22       1.0  0.43888  0.71025  0.81917  1.0000
  H   H403      1.0  0.12810  0.91194  0.73467  1.0000
  H   H404      1.0  0.43953  0.81691  0.85948  1.0000
  H   H405      1.0  0.04754  0.94955  0.71372  1.0000
  N   N23       1.0  0.07461  0.91507  0.74011  1.0000
  H   H406      1.0  0.05796  0.94014  0.77807  1.0000
  H   H407      1.0  0.38710  0.71978  0.81036  1.0000
  C   C337      1.0  0.05161  0.91819  0.76454  1.0000
  C   C338      1.0  0.43883  0.72089  0.87233  1.0000
  H   H408      1.0  0.47097  0.89548  0.71271  1.0000
  H   H409      1.0  0.24939  0.52110  0.78789  1.0000
  H   H410      1.0  0.26215  0.51181  0.85125  1.0000
  H   H411      1.0  0.02607  0.59152  0.98190  1.0000
  H   H412      1.0  0.06046  0.67534  0.95562  1.0000
  H   H413      1.0  0.10062  0.53582  0.77672  1.0000
  H   H414      1.0  0.04249  0.63092  0.02018  1.0000
  S   S89       1.0  0.15332  0.49733  0.75138  1.0000
  H   H415      1.0  0.06513  0.52772  0.81929  1.0000
  H   H416      1.0  0.02540  0.92184  0.75735  1.0000
  C   C339      1.0  0.01636  0.62646  0.01597  1.0000
  C   C340      1.0  0.03365  0.67708  0.95319  1.0000
  C   C341      1.0  0.43835  0.77754  0.89058  1.0000
  C   C342      1.0  0.43873  0.79007  0.86307  1.0000
  H   H417      1.0  0.40973  0.70139  0.78142  1.0000
  H   H418      1.0  0.05266  0.89574  0.77852  1.0000
  H   H419      1.0  0.99781  0.74615  0.01052  1.0000
  C   C343      1.0  0.01693  0.65355  0.93674  1.0000
  H   H420      1.0  0.45599  0.66491  0.83972  1.0000
  H   H421      1.0  0.43872  0.73336  0.91664  1.0000
  H   H422      1.0  0.11167  0.88736  0.76327  1.0000
  C   C344      1.0  0.41159  0.71935  0.79932  1.0000
  S   S90       1.0  0.98901  0.96139  0.80204  1.0000
  C   C345      1.0  0.43853  0.74305  0.89519  1.0000
  H   H423      1.0  0.47269  0.69729  0.78541  1.0000
  C   C346      1.0  0.43904  0.76817  0.84006  1.0000
  H   H424      1.0  0.02358  0.86632  0.74466  1.0000
  C   C347      1.0  0.14733  0.52192  0.86086  1.0000
  C   C348      1.0  0.43471  0.67430  0.82672  1.0000
  H   H425      1.0  0.11515  0.93216  0.76644  1.0000
  C   C349      1.0  0.10301  0.51307  0.78905  1.0000
  H   H426      1.0  0.43971  0.69453  0.87750  1.0000
  H   H427      1.0  0.07670  0.96909  0.73753  1.0000
  H   H428      1.0  0.46013  0.84624  0.74377  1.0000
  C   C350      1.0  0.01591  0.70222  0.96723  1.0000
  C   C351      1.0  0.00711  0.60402  0.99420  1.0000
  H   H429      1.0  0.44067  0.77923  0.81918  1.0000
  H   H430      1.0  0.17162  0.53859  0.82386  1.0000
  C   C352      1.0  0.10887  0.91145  0.75155  1.0000
  H   H431      1.0  0.43412  0.65804  0.80764  1.0000
  H   H432      1.0  0.41112  0.67000  0.83854  1.0000
  C   C353      1.0  0.43856  0.73287  0.84395  1.0000
  C   C354      1.0  0.17294  0.52055  0.84088  1.0000
  H   H433      1.0  0.03061  0.63358  0.92648  1.0000
  C   C355      1.0  0.08593  0.88065  0.69665  1.0000
  H   H434      1.0  0.20529  0.52407  0.78814  1.0000
  S   S91       1.0  0.44929  0.49926  0.99782  1.0000
  H   H435      1.0  0.22968  0.54654  0.81417  1.0000
  H   H436      1.0  0.47757  0.66163  0.95872  1.0000
  C   C356      1.0  0.04013  0.86374  0.72681  1.0000
  C   C357      1.0  0.08268  0.50848  0.81317  1.0000
  C   C358      1.0  0.12660  0.48877  0.78090  1.0000
  H   H437      1.0  0.47574  0.73983  0.79692  1.0000
  Fe  Fe48      1.0  0.01485  0.49331  0.88049  1.0000
  H   H438      1.0  0.41542  0.74436  0.78940  1.0000
  S   S92       1.0  0.48166  0.59358  0.97812  1.0000
  H   H439      1.0  0.12765  0.54042  0.85875  1.0000
  C   C359      1.0  0.22752  0.52265  0.80228  1.0000
  C   C360      1.0  0.03300  0.83748  0.70824  1.0000
  N   N24       1.0  0.22574  0.49334  0.82171  1.0000
  S   S93       1.0  0.00945  0.48933  0.92818  1.0000
  H   H440      1.0  0.27954  0.49070  0.82092  1.0000
  C   C361      1.0  0.25847  0.49067  0.83629  1.0000
  H   H441      1.0  0.99736  0.76986  0.97778  1.0000
  C   C362      1.0  0.48492  0.85680  0.74284  1.0000
  C   C363      1.0  0.14578  0.49845  0.88262  1.0000
  H   H442      1.0  0.42104  0.98306  0.02384  1.0000
  H   H443      1.0  0.10660  0.89670  0.69116  1.0000
  C   C364      1.0  0.97123  0.12393  0.19873  1.0000
  H   H444      1.0  0.95301  0.03253  0.18160  1.0000
  H   H445      1.0  0.89791  0.37951  0.02857  1.0000
  H   H446      1.0  0.49594  0.03330  0.29522  1.0000
  H   H447      1.0  0.89850  0.48167  0.32459  1.0000
  Fe  Fe49      1.0  0.94665  0.01058  0.29899  1.0000
  H   H448      1.0  0.62980  0.44629  0.04447  1.0000
  H   H449      1.0  0.50014  0.10397  0.19940  1.0000
  C   C365      1.0  0.50848  0.05736  0.29543  1.0000
  C   C366      1.0  0.51889  0.11174  0.31811  1.0000
  C   C367      1.0  0.94100  0.45394  0.02766  1.0000
  H   H450      1.0  0.57080  0.39686  0.03678  1.0000
  H   H451      1.0  0.86338  0.47354  0.28177  1.0000
  H   H452      1.0  0.52261  0.18132  0.32043  1.0000
  H   H453      1.0  0.93462  0.02877  0.14776  1.0000
  C   C368      1.0  0.96516  0.41332  0.06109  1.0000
  H   H454      1.0  0.92173  0.00122  0.17638  1.0000
  S   S94       1.0  0.89392  0.01303  0.31774  1.0000
  H   H455      1.0  0.57112  0.44163  0.04093  1.0000
  C   C369      1.0  0.53879  0.12034  0.29428  1.0000
  H   H456      1.0  0.94472  0.16999  0.18966  1.0000
  C   C370      1.0  0.53143  0.16715  0.33937  1.0000
  H   H457      1.0  0.55789  0.10524  0.25366  1.0000
  S   S95       1.0  0.48751  0.03877  0.13562  1.0000
  H   H458      1.0  0.50870  0.16087  0.21962  1.0000
  S   S96       1.0  0.97939  0.20337  0.14403  1.0000
  C   C371      1.0  0.49169  0.14364  0.22981  1.0000
  C   C372      1.0  0.94339  0.01378  0.16620  1.0000
  C   C373      1.0  0.50389  0.07949  0.31797  1.0000
  C   C374      1.0  0.54344  0.09785  0.27201  1.0000
  H   H459      1.0  0.64746  0.99027  0.10184  1.0000
  C   C375      1.0  0.52828  0.06650  0.27255  1.0000
  H   H460      1.0  0.48803  0.07133  0.33507  1.0000
  H   H461      1.0  0.95488  0.11665  0.21584  1.0000
  H   H462      1.0  0.53086  0.04970  0.25467  1.0000
  S   S97       1.0  0.49833  0.46018  0.04264  1.0000
  C   C376      1.0  0.87659  0.99626  0.34959  1.0000
  N   N25       1.0  0.51372  0.13463  0.34233  1.0000
  S   S98       1.0  0.57873  0.99698  0.11794  1.0000
  Fe  Fe50      1.0  0.52414  0.99590  0.13237  1.0000
  H   H463      1.0  0.55887  0.16359  0.33771  1.0000
  C   C377      1.0  0.63232  0.42414  0.03023  1.0000
  H   H464      1.0  0.55032  0.14460  0.29187  1.0000
  H   H465      1.0  0.63239  0.40167  0.04423  1.0000
  S   S99       1.0  0.98487  0.05187  0.29448  1.0000
  C   C378      1.0  0.91628  0.39815  0.03443  1.0000
  C   C379      1.0  0.96550  0.44476  0.04798  1.0000
  C   C380      1.0  0.94059  0.39010  0.05436  1.0000
  S   S100      1.0  0.94990  0.99847  0.25249  1.0000
  C   C381      1.0  0.84171  0.99603  0.35298  1.0000
  C   C382      1.0  0.96550  0.15419  0.18381  1.0000
  H   H466      1.0  0.82606  0.00588  0.33626  1.0000
  C   C383      1.0  0.57307  0.42104  0.02515  1.0000
  C   C384      1.0  0.48689  0.11142  0.21828  1.0000
  H   H467      1.0  0.94125  0.36531  0.06382  1.0000
  H   H468      1.0  0.98590  0.46129  0.05311  1.0000
  H   H469      1.0  0.98489  0.40620  0.07565  1.0000
  N   N26       1.0  0.96944  0.98907  0.15811  1.0000
  H   H470      1.0  0.94884  0.38635  0.46692  1.0000
  H   H471      1.0  0.97173  0.35373  0.61031  1.0000
  C   C385      1.0  0.58171  0.99942  0.47536  1.0000
  S   S101      1.0  0.97664  0.46389  0.38599  1.0000
  Fe  Fe51      1.0  0.50327  0.04652  0.66311  1.0000
  H   H472      1.0  0.94476  0.41752  0.53171  1.0000
  C   C386      1.0  0.49381  0.45811  0.62145  1.0000
  C   C387      1.0  0.61182  0.47050  0.60871  1.0000
  H   H473      1.0  0.55244  0.11091  0.36666  1.0000
  C   C388      1.0  0.96783  0.37710  0.48121  1.0000
  H   H474      1.0  0.96206  0.37745  0.56714  1.0000
  H   H475      1.0  0.57283  0.46086  0.57802  1.0000
  H   H476      1.0  0.93922  0.33385  0.49426  1.0000
  S   S102      1.0  0.68491  0.99941  0.50697  1.0000
  H   H477      1.0  0.65135  0.03996  0.54844  1.0000
  C   C389      1.0  0.55856  0.01237  0.49452  1.0000
  H   H478      1.0  0.49447  0.38814  0.37685  1.0000
  H   H479      1.0  0.59565  0.46328  0.67751  1.0000
  H   H480      1.0  0.97469  0.47094  0.52531  1.0000
  H   H481      1.0  0.56520  0.03357  0.50768  1.0000
  H   H482      1.0  0.63014  0.99802  0.43264  1.0000
  H   H483      1.0  0.98514  0.06127  0.68560  1.0000
  S   S103      1.0  0.97798  0.29791  0.53578  1.0000
  H   H484      1.0  0.61131  0.44535  0.61727  1.0000
  S   S104      1.0  0.54252  0.00691  0.65627  1.0000
  H   H485      1.0  0.52374  0.13555  0.38719  1.0000
  C   C390      1.0  0.63689  0.01729  0.54591  1.0000
  C   C391      1.0  0.60692  0.01330  0.56122  1.0000
  H   H486      1.0  0.59840  0.03291  0.57519  1.0000
  C   C392      1.0  0.97562  0.40081  0.56633  1.0000
  S   S105      1.0  0.66140  0.48167  0.64841  1.0000
  H   H487      1.0  0.51556  0.44980  0.60861  1.0000
  Fe  Fe52      1.0  0.52133  0.99952  0.61284  1.0000
  H   H488      1.0  0.49116  0.44138  0.64015  1.0000
  C   C393      1.0  0.96243  0.34731  0.49681  1.0000
  C   C394      1.0  0.58981  0.47930  0.58651  1.0000
  C   C395      1.0  0.98203  0.45397  0.54216  1.0000
  S   S106      1.0  0.51609  0.09656  0.68438  1.0000
  H   H489      1.0  0.49755  0.41369  0.42476  1.0000
  H   H490      1.0  0.60558  0.01191  0.47463  1.0000
  C   C396      1.0  0.57793  0.48283  0.67202  1.0000
  H   H491      1.0  0.54652  0.44927  0.65029  1.0000
  C   C397      1.0  0.64802  0.99246  0.52706  1.0000
  H   H492      1.0  0.51047  0.00638  0.51386  1.0000
  C   C398      1.0  0.52581  0.11843  0.36870  1.0000
  C   C399      1.0  0.96521  0.42378  0.54576  1.0000
  H   H493      1.0  0.51123  0.09569  0.37420  1.0000
  C   C400      1.0  0.52768  0.99705  0.49805  1.0000
  C   C401      1.0  0.54955  0.47520  0.65609  1.0000
  C   C402      1.0  0.98474  0.15800  0.67517  1.0000
  H   H494      1.0  0.98434  0.18490  0.67235  1.0000
  C   C403      1.0  0.98516  0.08818  0.68294  1.0000
  H   H495      1.0  0.52697  0.18383  0.35784  1.0000
  S   S107      1.0  0.48600  0.45683  0.54092  1.0000
  C   C404      1.0  0.63262  0.36946  0.99110  1.0000
  C   C405      1.0  0.51093  0.14821  0.72284  1.0000
  C   C406      1.0  0.85822  0.00768  0.85669  1.0000
  H   H496      1.0  0.52029  0.09609  0.82196  1.0000
  C   C407      1.0  0.57710  0.02177  0.72536  1.0000
  H   H497      1.0  0.55286  0.14334  0.80315  1.0000
  H   H498      1.0  0.63853  0.00780  0.91335  1.0000
  C   C408      1.0  0.82634  0.00741  0.86944  1.0000
  C   C409      1.0  0.53598  0.06149  0.78953  1.0000
  H   H499      1.0  0.56375  0.35920  0.93403  1.0000
  C   C410      1.0  0.84450  0.47905  0.78133  1.0000
  C   C411      1.0  0.63335  0.34230  0.97244  1.0000
  H   H500      1.0  0.97070  0.46746  0.97801  1.0000
  H   H501      1.0  0.54238  0.99277  0.78587  1.0000
  H   H502      1.0  0.97021  0.06236  0.92124  1.0000
  C   C412      1.0  0.49214  0.39047  0.94245  1.0000
  H   H503      1.0  0.58398  0.45698  0.97824  1.0000
  Fe  Fe53      1.0  0.49342  0.46452  0.99529  1.0000
  H   H504      1.0  0.86181  0.01986  0.83647  1.0000
  Fe  Fe54      1.0  0.96491  0.45762  0.91857  1.0000
  H   H505      1.0  0.60325  0.02603  0.73231  1.0000
  H   H506      1.0  0.58606  0.00013  0.77962  1.0000
  H   H507      1.0  0.97837  0.04746  0.87113  1.0000
  H   H508      1.0  0.65242  0.37061  0.00655  1.0000
  C   C413      1.0  0.50096  0.16358  0.74835  1.0000
  H   H509      1.0  0.91162  0.47590  0.97692  1.0000
  H   H510      1.0  0.58667  0.08391  0.73441  1.0000
  C   C414      1.0  0.97495  0.38856  0.97162  1.0000
  H   H511      1.0  0.89755  0.43348  0.00516  1.0000
  H   H512      1.0  0.52035  0.04193  0.79805  1.0000
  S   S108      1.0  0.92920  0.00062  0.76762  1.0000
  C   C415      1.0  0.97432  0.14365  0.70101  1.0000
  H   H513      1.0  0.60917  0.31748  0.93761  1.0000
  C   C416      1.0  0.51950  0.01881  0.73821  1.0000
  H   H514      1.0  0.58577  0.13662  0.75941  1.0000
  H   H515      1.0  0.49255  0.38977  0.81869  1.0000
  H   H516      1.0  0.96598  0.15979  0.71791  1.0000
  H   H517      1.0  0.96831  0.31745  0.01238  1.0000
  C   C417      1.0  0.58222  0.38944  0.96835  1.0000
  S   S109      1.0  0.97104  0.45977  0.87102  1.0000
  H   H518      1.0  0.51684  0.99391  0.72800  1.0000
  S   S110      1.0  0.95368  0.40893  0.94299  1.0000
  C   C418      1.0  0.55474  0.05655  0.76442  1.0000
  C   C419      1.0  0.88531  0.99243  0.87030  1.0000
  C   C420      1.0  0.57255  0.11529  0.76815  1.0000
  H   H519      1.0  0.52733  0.16153  0.70857  1.0000
  C   C421      1.0  0.56154  0.99604  0.76918  1.0000
  S   S111      1.0  0.49037  0.41202  0.97548  1.0000
  C   C422      1.0  0.53580  0.09234  0.80346  1.0000
  H   H520      1.0  0.94186  0.34603  0.97123  1.0000
  H   H521      1.0  0.83995  0.45332  0.77532  1.0000
  H   H522      1.0  0.55092  0.42323  0.01114  1.0000
  C   C423      1.0  0.60865  0.33865  0.95193  1.0000
  C   C424      1.0  0.58313  0.36218  0.94989  1.0000
  H   H523      1.0  0.87937  0.46556  0.81461  1.0000
  H   H524      1.0  0.51355  0.03806  0.72196  1.0000
  H   H525      1.0  0.57612  0.99668  0.71507  1.0000
  C   C425      1.0  0.57285  0.08460  0.75396  1.0000
  H   H526      1.0  0.50004  0.02031  0.75484  1.0000
  H   H527      1.0  0.80563  0.01943  0.85880  1.0000
  C   C426      1.0  0.82102  0.99170  0.89577  1.0000
  C   C427      1.0  0.55412  0.11913  0.79284  1.0000
  C   C428      1.0  0.97823  0.34099  0.00475  1.0000
  C   C429      1.0  0.50060  0.11551  0.71596  1.0000
  C   C430      1.0  0.60558  0.45451  0.99281  1.0000
  H   H528      1.0  0.56177  0.40686  0.96596  1.0000
  C   C431      1.0  0.60686  0.39392  0.98962  1.0000
  H   H529      1.0  0.65312  0.32382  0.97396  1.0000
  Fe  Fe55      1.0  0.96807  0.04022  0.75775  1.0000
  H   H530      1.0  0.57078  0.04024  0.70844  1.0000
  H   H531      1.0  0.65705  0.42649  0.01977  1.0000
  N   N27       1.0  0.55352  0.02397  0.74949  1.0000
  Fe  Fe56      1.0  0.95001  0.00032  0.81187  1.0000
  S   S112      1.0  0.78016  0.99130  0.91065  1.0000
  S   S113      1.0  0.96045  0.09200  0.73799  1.0000
  H   H532      1.0  0.62865  0.45631  0.97986  1.0000
  C   C432      1.0  0.97431  0.10868  0.70504  1.0000
  H   H533      1.0  0.48713  0.40656  0.78363  1.0000
  C   C433      1.0  0.96317  0.35738  0.98143  1.0000
  H   H534      1.0  0.51002  0.18830  0.75364  1.0000
  C   C434      1.0  0.50180  0.40598  0.91717  1.0000
  H   H535      1.0  0.60474  0.47682  0.00694  1.0000
  C   C435      1.0  0.49478  0.35304  0.89129  1.0000
  N   N28       1.0  0.94300  0.48672  0.01295  1.0000
  H   H536      1.0  0.50844  0.43224  0.91718  1.0000
  C   C436      1.0  0.86696  0.48591  0.80370  1.0000
  S   S114      1.0  0.49881  0.32991  0.85921  1.0000
  C   C437      1.0  0.50356  0.38723  0.89186  1.0000
  H   H537      1.0  0.51186  0.39929  0.87262  1.0000
  H   H538      1.0  0.61656  0.99432  0.94402  1.0000
  N   N29       1.0  0.60480  0.42276  0.00919  1.0000
  S   S115      1.0  0.92596  0.99057  0.85509  1.0000
  C   C438      1.0  0.91640  0.42949  0.02110  1.0000
  S   S116      1.0  0.98541  0.04285  0.80306  1.0000
  C   C439      1.0  0.97290  0.48689  0.99470  1.0000
  Fe  Fe57      1.0  0.53211  0.50497  0.04106  1.0000
  C   C440      1.0  0.85573  0.87393  0.06234  1.0000
  C   C441      1.0  0.69619  0.63951  0.33270  1.0000
  S   S117      1.0  0.91987  0.71586  0.07810  1.0000
  H   H539      1.0  0.83638  0.57570  0.18421  1.0000
  S   S118      1.0  0.92190  0.78705  0.11376  1.0000
  Fe  Fe58      1.0  0.92059  0.73207  0.12349  1.0000
  S   S119      1.0  0.88358  0.71855  0.15729  1.0000
  Fe  Fe59      1.0  0.92681  0.77054  0.06885  1.0000
  C   C442      1.0  0.85100  0.55483  0.19359  1.0000
  S   S120      1.0  0.97466  0.90878  0.24807  1.0000
  C   C443      1.0  0.85304  0.90549  0.34469  1.0000
  Fe  Fe60      1.0  0.70207  0.53877  0.19612  1.0000
  S   S121      1.0  0.71030  0.59193  0.18253  1.0000
  Fe  Fe61      1.0  0.76695  0.53860  0.23372  1.0000
  S   S122      1.0  0.77813  0.59177  0.22202  1.0000
  Fe  Fe62      1.0  0.72352  0.60103  0.22789  1.0000
  S   S123      1.0  0.70746  0.64888  0.24881  1.0000
  Fe  Fe63      1.0  0.76383  0.57725  0.17790  1.0000
  S   S124      1.0  0.79399  0.59044  0.13931  1.0000
  S   S125      1.0  0.71236  0.54873  0.24262  1.0000
  S   S126      1.0  0.75542  0.52316  0.18862  1.0000
  S   S127      1.0  0.55655  0.69605  0.34829  1.0000
  C   C444      1.0  0.83295  0.88226  0.04092  1.0000
  H   H540      1.0  0.59385  0.55225  0.19213  1.0000
  C   C445      1.0  0.63460  0.51323  0.14770  1.0000
  Fe  Fe64      1.0  0.52010  0.77690  0.31304  1.0000
  S   S128      1.0  0.57048  0.75627  0.30158  1.0000
  H   H541      1.0  0.74377  0.55831  0.30901  1.0000
  C   C446      1.0  0.87348  0.82520  0.03569  1.0000
  Fe  Fe65      1.0  0.54464  0.70629  0.30278  1.0000
  S   S129      1.0  0.55349  0.66407  0.27218  1.0000
  H   H542      1.0  0.77006  0.88532  0.30625  1.0000
  H   H543      1.0  0.86061  0.92659  0.26062  1.0000
  C   C447      1.0  0.57895  0.97685  0.06126  1.0000
  H   H544      1.0  0.85783  0.88974  0.08076  1.0000
  C   C448      1.0  0.83269  0.51711  0.28868  1.0000
  H   H545      1.0  0.83105  0.72656  0.07481  1.0000
  C   C449      1.0  0.92719  0.64178  0.17760  1.0000
  H   H546      1.0  0.56949  0.57735  0.21575  1.0000
  H   H547      1.0  0.56068  0.91972  0.11852  1.0000
  N   N30       1.0  0.87953  0.56797  0.21012  1.0000
  C   C450      1.0  0.49630  0.84501  0.26243  1.0000
  C   C451      1.0  0.66433  0.65258  0.25349  1.0000
  C   C452      1.0  0.65016  0.68450  0.25582  1.0000
  C   C453      1.0  0.61604  0.68808  0.26132  1.0000
  C   C454      1.0  0.59599  0.65975  0.26461  1.0000
  C   C455      1.0  0.61001  0.62777  0.26183  1.0000
  C   C456      1.0  0.64418  0.62418  0.25612  1.0000
  H   H548      1.0  0.66563  0.70652  0.25347  1.0000
  H   H549      1.0  0.60527  0.71280  0.26284  1.0000
  H   H550      1.0  0.59455  0.60581  0.26456  1.0000
  H   H551      1.0  0.65512  0.59949  0.25454  1.0000
  H   H552      1.0  0.62079  0.62455  0.14705  1.0000
  H   H553      1.0  0.78320  0.72273  0.10641  1.0000
  C   C457      1.0  0.84686  0.54867  0.33120  1.0000
  C   C458      1.0  0.82722  0.54444  0.30658  1.0000
  H   H554      1.0  0.71891  0.70508  0.33031  1.0000
  H   H555      1.0  0.80744  0.56190  0.30172  1.0000
  H   H556      1.0  0.65222  0.61084  0.31901  1.0000
  C   C459      1.0  0.97673  0.93351  0.13368  1.0000
  C   C460      1.0  0.63266  0.98385  0.08351  1.0000
  C   C461      1.0  0.95684  0.96216  0.13941  1.0000
  C   C462      1.0  0.60915  0.87684  0.13058  1.0000
  N   N31       1.0  0.81291  0.76753  0.10065  1.0000
  H   H557      1.0  0.87277  0.95640  0.28691  1.0000
  H   H558      1.0  0.67582  0.97493  0.05701  1.0000
  H   H559      1.0  0.85737  0.73751  0.10344  1.0000
  C   C463      1.0  0.55839  0.90657  0.13926  1.0000
  C   C464      1.0  0.87597  0.84533  0.05976  1.0000
  S   S130      1.0  0.80806  0.91833  0.04395  1.0000
  H   H560      1.0  0.89395  0.83933  0.07600  1.0000
  C   C465      1.0  0.56895  0.88576  0.22894  1.0000
  C   C466      1.0  0.85891  0.68299  0.15163  1.0000
  C   C467      1.0  0.83348  0.67565  0.17089  1.0000
  C   C468      1.0  0.81314  0.64756  0.16689  1.0000
  C   C469      1.0  0.81837  0.62651  0.14377  1.0000
  C   C470      1.0  0.84370  0.63394  0.12438  1.0000
  C   C471      1.0  0.86397  0.66221  0.12829  1.0000
  H   H561      1.0  0.82937  0.69181  0.18888  1.0000
  H   H562      1.0  0.79313  0.64251  0.18152  1.0000
  H   H563      1.0  0.84788  0.61759  0.10653  1.0000
  H   H564      1.0  0.88381  0.66750  0.11354  1.0000
  H   H565      1.0  0.98103  0.88613  0.11217  1.0000
  C   C472      1.0  0.98388  0.88647  0.21627  1.0000
  H   H566      1.0  0.91524  0.87514  0.27045  1.0000
  H   H567      1.0  0.87177  0.86696  0.26736  1.0000
  H   H568      1.0  0.91980  0.89416  0.33098  1.0000
  H   H569      1.0  0.89415  0.85240  0.29797  1.0000
  C   C473      1.0  0.76652  0.83103  0.05418  1.0000
  S   S131      1.0  0.80758  0.50931  0.25803  1.0000
  H   H570      1.0  0.48759  0.56678  0.11034  1.0000
  Fe  Fe66      1.0  0.97546  0.71407  0.08149  1.0000
  S   S132      1.0  0.50178  0.82821  0.29718  1.0000
  C   C474      1.0  0.60174  0.50133  0.14451  1.0000
  S   S133      1.0  0.65317  0.51374  0.18208  1.0000
  C   C475      1.0  0.90113  0.58845  0.19144  1.0000
  H   H571      1.0  0.84496  0.81010  0.10761  1.0000
  H   H572      1.0  0.84928  0.57094  0.24783  1.0000
  H   H573      1.0  0.57397  0.84127  0.25429  1.0000
  H   H574      1.0  0.59749  0.80757  0.21537  1.0000
  C   C476      1.0  0.54058  0.57369  0.11403  1.0000
  H   H575      1.0  0.61398  0.58145  0.21494  1.0000
  C   C477      1.0  0.58156  0.63659  0.19250  1.0000
  C   C478      1.0  0.59554  0.84788  0.18482  1.0000
  H   H576      1.0  0.55796  0.90017  0.24595  1.0000
  C   C479      1.0  0.64888  0.97514  0.05805  1.0000
  N   N32       1.0  0.88445  0.90539  0.29777  1.0000
  C   C480      1.0  0.88006  0.93248  0.27653  1.0000
  S   S134      1.0  0.51550  0.98074  0.17786  1.0000
  C   C481      1.0  0.89158  0.87359  0.28276  1.0000
  C   C482      1.0  0.85364  0.90178  0.31478  1.0000
  H   H577      1.0  0.50347  0.79873  0.24004  1.0000
  C   C483      1.0  0.75657  0.77557  0.03611  1.0000
  C   C484      1.0  0.87893  0.49941  0.31966  1.0000
  S   S135      1.0  0.49342  0.72699  0.31148  1.0000
  H   H578      1.0  0.90694  0.52161  0.20516  1.0000
  H   H579      1.0  0.61278  0.89030  0.11009  1.0000
  C   C485      1.0  0.86569  0.58695  0.23441  1.0000
  H   H580      1.0  0.93950  0.64931  0.03891  1.0000
  H   H581      1.0  0.85509  0.76435  0.07290  1.0000
  C   C486      1.0  0.65141  0.52481  0.12368  1.0000
  C   C487      1.0  0.96558  0.90807  0.11577  1.0000
  S   S136      1.0  0.89921  0.79014  0.03092  1.0000
  C   C488      1.0  0.94161  0.62670  0.15411  1.0000
  H   H582      1.0  0.84174  0.56940  0.34518  1.0000
  C   C489      1.0  0.69254  0.69956  0.32500  1.0000
  H   H583      1.0  0.67667  0.53403  0.12567  1.0000
  H   H584      1.0  0.80964  0.80733  0.13136  1.0000
  H   H585      1.0  0.52168  0.60134  0.19073  1.0000
  C   C490      1.0  0.93475  0.91075  0.10242  1.0000
  H   H586      1.0  0.77862  0.73500  0.05860  1.0000
  C   C491      1.0  0.78616  0.81771  0.07593  1.0000
  H   H587      1.0  0.77126  0.75773  0.12802  1.0000
  C   C492      1.0  0.63577  0.52398  0.09690  1.0000
  C   C493      1.0  0.69605  0.58230  0.31357  1.0000
  H   H588      1.0  0.63056  0.58183  0.15721  1.0000
  S   S137      1.0  0.58501  0.51118  0.05910  1.0000
  H   H589      1.0  0.93092  0.66838  0.18116  1.0000
  H   H590      1.0  0.59170  0.58102  0.12270  1.0000
  H   H591      1.0  0.54272  0.88380  0.13636  1.0000
  H   H592      1.0  0.60180  0.81800  0.34869  1.0000
  H   H593      1.0  0.92095  0.54792  0.23361  1.0000
  H   H594      1.0  0.56080  0.63547  0.20805  1.0000
  C   C494      1.0  0.52777  0.59433  0.16929  1.0000
  C   C495      1.0  0.61102  0.92940  0.15480  1.0000
  H   H595      1.0  0.96975  0.51389  0.04552  1.0000
  C   C496      1.0  0.75213  0.81009  0.03411  1.0000
  C   C497      1.0  0.56700  0.58324  0.13156  1.0000
  H   H596      1.0  0.88578  0.59655  0.24844  1.0000
  H   H597      1.0  0.55202  0.97761  0.06221  1.0000
  H   H598      1.0  0.54394  0.92345  0.15316  1.0000
  C   C498      1.0  0.79290  0.74449  0.11849  1.0000
  H   H599      1.0  0.76341  0.85798  0.05234  1.0000
  C   C499      1.0  0.89856  0.53922  0.22184  1.0000
  H   H600      1.0  0.64126  0.61534  0.17985  1.0000
  C   C500      1.0  0.62160  0.60650  0.16500  1.0000
  C   C501      1.0  0.93628  0.59279  0.14901  1.0000
  C   C502      1.0  0.59152  0.57770  0.20152  1.0000
  N   N33       1.0  0.58868  0.60366  0.17917  1.0000
  H   H601      1.0  0.60335  0.64619  0.20462  1.0000
  H   H602      1.0  0.93976  0.85586  0.21947  1.0000
  H   H603      1.0  0.57515  0.65581  0.17630  1.0000
  H   H604      1.0  0.77517  0.60643  0.32823  1.0000
  H   H605      1.0  0.94732  0.58128  0.13052  1.0000
  C   C503      1.0  0.56131  0.59425  0.15972  1.0000
  H   H606      1.0  0.95187  0.82199  0.17669  1.0000
  C   C504      1.0  0.85887  0.49485  0.29532  1.0000
  C   C505      1.0  0.87278  0.52612  0.33806  1.0000
  C   C506      1.0  0.90711  0.62317  0.19600  1.0000
  C   C507      1.0  0.60294  0.51207  0.09370  1.0000
  H   H607      1.0  0.89615  0.63685  0.21330  1.0000
  S   S138      1.0  0.48959  0.54121  0.04674  1.0000
  C   C508      1.0  0.96887  0.84157  0.18309  1.0000
  H   H608      1.0  0.59675  0.94946  0.16573  1.0000
  H   H609      1.0  0.67829  0.72308  0.32913  1.0000
  H   H610      1.0  0.88305  0.52409  0.23676  1.0000
  C   C509      1.0  0.59762  0.98495  0.08530  1.0000
  C   C510      1.0  0.98314  0.97469  0.18472  1.0000
  H   H611      1.0  0.55073  0.65981  0.03092  1.0000
  H   H612      1.0  0.79742  0.83568  0.09003  1.0000
  H   H613      1.0  0.63437  0.92484  0.16691  1.0000
  H   H614      1.0  0.68250  0.56124  0.30481  1.0000
  H   H615      1.0  0.63436  0.86967  0.13838  1.0000
  C   C511      1.0  0.82285  0.89418  0.30139  1.0000
  H   H616      1.0  0.95663  0.64150  0.13966  1.0000
  H   H617      1.0  0.84487  0.78039  0.13588  1.0000
  H   H618      1.0  0.80806  0.73374  0.13612  1.0000
  C   C512      1.0  0.58679  0.88186  0.17937  1.0000
  H   H619      1.0  0.64930  0.53265  0.07852  1.0000
  C   C513      1.0  0.82863  0.79258  0.11964  1.0000
  H   H620      1.0  0.59468  0.85387  0.12548  1.0000
  C   C514      1.0  0.92561  0.96428  0.12517  1.0000
  H   H621      1.0  0.56456  0.92573  0.19942  1.0000
  C   C515      1.0  0.57794  0.85253  0.23365  1.0000
  H   H622      1.0  0.83376  0.53970  0.20692  1.0000
  C   C516      1.0  0.59106  0.83359  0.21163  1.0000
  C   C517      1.0  0.91643  0.57384  0.16737  1.0000
  H   H623      1.0  0.60565  0.83175  0.16873  1.0000
  H   H624      1.0  0.92642  0.89113  0.08830  1.0000
  H   H625      1.0  0.61815  0.94047  0.13403  1.0000
  C   C518      1.0  0.79158  0.78260  0.07840  1.0000
  C   C519      1.0  0.84018  0.74817  0.08731  1.0000
  H   H626      1.0  0.85877  0.53838  0.17591  1.0000
  H   H627      1.0  0.82133  0.89115  0.27874  1.0000
  N   N34       1.0  0.59140  0.89810  0.15144  1.0000
  H   H628      1.0  0.91267  0.54775  0.16232  1.0000
  C   C520      1.0  0.91436  0.91376  0.31487  1.0000
  Fe  Fe67      1.0  0.97731  0.78113  0.11639  1.0000
  S   S139      1.0  0.98252  0.76853  0.06991  1.0000
  H   H629      1.0  0.84998  0.60832  0.22715  1.0000
  H   H630      1.0  0.69151  0.69455  0.30188  1.0000
  H   H631      1.0  0.93709  0.91578  0.30146  1.0000
  C   C521      1.0  0.57293  0.90018  0.20220  1.0000
  C   C522      1.0  0.67892  0.61117  0.32187  1.0000
  C   C523      1.0  0.79369  0.89447  0.34618  1.0000
  H   H632      1.0  0.63640  0.66583  0.31398  1.0000
  C   C524      1.0  0.64246  0.66996  0.33659  1.0000
  C   C525      1.0  0.96205  0.86093  0.20739  1.0000
  C   C526      1.0  0.79338  0.89070  0.31692  1.0000
  C   C527      1.0  0.77575  0.76191  0.05802  1.0000
  S   S140      1.0  0.97602  0.72626  0.12844  1.0000
  H   H633      1.0  0.92506  0.51368  0.04920  1.0000
  H   H634      1.0  0.90349  0.93727  0.26454  1.0000
  H   H635      1.0  0.54559  0.56493  0.09274  1.0000
  Fe  Fe68      1.0  0.57752  0.74810  0.34821  1.0000
  C   C528      1.0  0.49270  0.83963  0.21115  1.0000
  H   H636      1.0  0.91147  0.93841  0.32555  1.0000
  C   C529      1.0  0.49807  0.82518  0.23812  1.0000
  H   H637      1.0  0.96470  0.95796  0.19528  1.0000
  C   C530      1.0  0.73062  0.58062  0.31587  1.0000
  C   C531      1.0  0.91489  0.93885  0.10698  1.0000
  H   H638      1.0  0.74617  0.65733  0.34293  1.0000
  H   H639      1.0  0.63013  0.65020  0.34948  1.0000
  C   C532      1.0  0.58593  0.50087  0.11776  1.0000
  H   H640      1.0  0.63049  0.69411  0.34244  1.0000
  N   N35       1.0  0.67906  0.67076  0.34130  1.0000
  C   C533      1.0  0.74825  0.60778  0.32667  1.0000
  C   C534      1.0  0.94585  0.51447  0.03367  1.0000
  C   C535      1.0  0.73139  0.63680  0.33501  1.0000
  H   H641      1.0  0.89108  0.94102  0.09618  1.0000
  C   C536      1.0  0.63024  0.96789  0.03380  1.0000
  H   H642      1.0  0.90906  0.98540  0.12754  1.0000
  C   C537      1.0  0.50152  0.58479  0.15155  1.0000
  H   H643      1.0  0.56072  0.49158  0.11577  1.0000
  C   C538      1.0  0.59518  0.96868  0.03565  1.0000
  H   H644      1.0  0.49401  0.82402  0.19253  1.0000
  C   C539      1.0  0.48904  0.87936  0.25934  1.0000
  C   C540      1.0  0.50793  0.57452  0.12396  1.0000
  C   C541      1.0  0.95850  0.63714  0.02639  1.0000
  H   H645      1.0  0.58841  0.49231  0.16288  1.0000
  S   S141      1.0  0.98393  0.97181  0.31219  1.0000
  H   H646      1.0  0.62054  0.87668  0.35565  1.0000
  S   S142      1.0  0.48674  0.96006  0.11453  1.0000
  H   H647      1.0  0.48743  0.89498  0.27793  1.0000
  H   H648      1.0  0.87491  0.91200  0.35680  1.0000
  C   C542      1.0  0.97489  0.85469  0.65488  1.0000
  H   H649      1.0  0.88305  0.86979  0.49636  1.0000
  Fe  Fe69      1.0  0.77459  0.94309  0.44349  1.0000
  S   S143      1.0  0.75551  0.89099  0.43473  1.0000
  Fe  Fe70      1.0  0.71098  0.96100  0.47879  1.0000
  S   S144      1.0  0.68835  0.91063  0.47171  1.0000
  Fe  Fe71      1.0  0.73944  0.89060  0.48026  1.0000
  S   S145      1.0  0.74379  0.85009  0.51317  1.0000
  Fe  Fe72      1.0  0.70624  0.91618  0.42705  1.0000
  S   S146      1.0  0.67105  0.90581  0.39080  1.0000
  S   S147      1.0  0.76159  0.94065  0.49001  1.0000
  H   H650      1.0  0.64363  0.67527  0.45183  1.0000
  H   H651      1.0  0.83926  0.67307  0.68949  1.0000
  S   S148      1.0  0.51006  0.48907  0.48138  1.0000
  C   C543      1.0  0.58627  0.95534  0.41041  1.0000
  S   S149      1.0  0.82913  0.95467  0.43193  1.0000
  H   H652      1.0  0.95972  0.58835  0.63639  1.0000
  C   C544      1.0  0.65365  0.93823  0.59313  1.0000
  C   C545      1.0  0.65807  0.86395  0.38652  1.0000
  C   C546      1.0  0.67316  0.83790  0.40169  1.0000
  C   C547      1.0  0.66290  0.80462  0.39739  1.0000
  C   C548      1.0  0.63714  0.79730  0.37829  1.0000
  H   H653      1.0  0.69222  0.65023  0.66547  1.0000
  H   H654      1.0  0.51987  0.59730  0.47633  1.0000
  H   H655      1.0  0.69303  0.84332  0.41647  1.0000
  H   H656      1.0  0.67492  0.78454  0.40895  1.0000
  H   H657      1.0  0.58138  0.98149  0.40331  1.0000
  C   C549      1.0  0.64421  0.87904  0.58526  1.0000
  H   H658      1.0  0.56281  0.94088  0.40794  1.0000
  H   H659      1.0  0.60460  0.94404  0.39543  1.0000
  Fe  Fe73      1.0  0.94508  0.51122  0.38840  1.0000
  C   C550      1.0  0.78298  0.83071  0.51327  1.0000
  C   C551      1.0  0.80354  0.83277  0.48952  1.0000
  C   C552      1.0  0.83563  0.81901  0.49031  1.0000
  H   H660      1.0  0.79477  0.84509  0.47056  1.0000
  H   H661      1.0  0.85156  0.82087  0.47193  1.0000
  C   C553      1.0  0.89437  0.91230  0.54073  1.0000
  H   H662      1.0  0.62081  0.56341  0.46873  1.0000
  C   C554      1.0  0.84655  0.97088  0.39990  1.0000
  C   C555      1.0  0.59598  0.68114  0.43176  1.0000
  C   C556      1.0  0.90771  0.58855  0.44031  1.0000
  H   H663      1.0  0.53216  0.62621  0.43498  1.0000
  H   H664      1.0  0.54617  0.68075  0.41500  1.0000
  H   H665      1.0  0.84726  0.58936  0.62082  1.0000
  C   C557      1.0  0.52702  0.50072  0.64726  1.0000
  H   H666      1.0  0.74445  0.69728  0.64866  1.0000
  C   C558      1.0  0.94394  0.90620  0.58344  1.0000
  H   H667      1.0  0.90273  0.65985  0.64757  1.0000
  H   H668      1.0  0.64792  0.96241  0.60205  1.0000
  Fe  Fe74      1.0  0.95354  0.71516  0.57724  1.0000
  S   S150      1.0  0.89806  0.71828  0.57233  1.0000
  Fe  Fe75      1.0  0.95605  0.78648  0.60604  1.0000
  S   S151      1.0  0.90085  0.79341  0.60135  1.0000
  Fe  Fe76      1.0  0.89770  0.73990  0.61602  1.0000
  S   S152      1.0  0.86632  0.72323  0.65294  1.0000
  Fe  Fe77      1.0  0.90757  0.77108  0.55817  1.0000
  S   S153      1.0  0.88919  0.79086  0.51636  1.0000
  S   S154      1.0  0.95270  0.73355  0.62258  1.0000
  S   S155      1.0  0.96324  0.76750  0.56123  1.0000
  H   H669      1.0  0.86157  0.64276  0.40142  1.0000
  S   S156      1.0  0.76431  0.60614  0.63028  1.0000
  H   H670      1.0  0.90789  0.56926  0.42334  1.0000
  H   H671      1.0  0.59197  0.88504  0.65851  1.0000
  H   H672      1.0  0.69397  0.96004  0.56911  1.0000
  H   H673      1.0  0.82808  0.91084  0.54930  1.0000
  C   C559      1.0  0.58489  0.51579  0.67947  1.0000
  N   N36       1.0  0.60621  0.90890  0.61928  1.0000
  C   C560      1.0  0.59875  0.95967  0.53876  1.0000
  C   C561      1.0  0.62911  0.96328  0.52410  1.0000
  H   H674      1.0  0.58380  0.93752  0.53539  1.0000
  H   H675      1.0  0.63765  0.94367  0.51025  1.0000
  C   C562      1.0  0.84758  0.80390  0.51508  1.0000
  C   C563      1.0  0.82687  0.80121  0.53873  1.0000
  C   C564      1.0  0.79441  0.81438  0.53772  1.0000
  H   H676      1.0  0.83601  0.78950  0.55789  1.0000
  H   H677      1.0  0.77852  0.81277  0.55613  1.0000
  C   C565      1.0  0.83827  0.69057  0.64636  1.0000
  H   H678      1.0  0.90213  0.90786  0.48444  1.0000
  C   C566      1.0  0.80652  0.64296  0.66382  1.0000
  C   C567      1.0  0.79317  0.63811  0.63685  1.0000
  C   C568      1.0  0.80260  0.65933  0.61462  1.0000
  C   C569      1.0  0.82520  0.68551  0.61934  1.0000
  H   H679      1.0  0.92094  0.65433  0.39634  1.0000
  H   H680      1.0  0.79226  0.65562  0.59371  1.0000
  H   H681      1.0  0.83214  0.70203  0.60217  1.0000
  C   C570      1.0  0.53441  0.53396  0.65592  1.0000
  S   S157      1.0  0.97371  0.66332  0.56461  1.0000
  C   C571      1.0  0.86781  0.61963  0.41339  1.0000
  C   C572      1.0  0.67087  0.87847  0.56620  1.0000
  N   N37       1.0  0.91331  0.61342  0.62640  1.0000
  C   C573      1.0  0.63508  0.52624  0.60840  1.0000
  C   C574      1.0  0.61351  0.53485  0.58587  1.0000
  H   H682      1.0  0.86828  0.59891  0.39756  1.0000
  H   H683      1.0  0.65245  0.54450  0.61658  1.0000
  H   H684      1.0  0.61463  0.55980  0.57697  1.0000
  H   H685      1.0  0.53726  0.56985  0.43323  1.0000
  S   S158      1.0  0.95266  0.51539  0.43597  1.0000
  C   C575      1.0  0.90521  0.64239  0.47974  1.0000
  C   C576      1.0  0.90324  0.66796  0.49982  1.0000
  C   C577      1.0  0.88741  0.70734  0.46352  1.0000
  C   C578      1.0  0.89440  0.70030  0.49173  1.0000
  H   H686      1.0  0.91317  0.61820  0.48747  1.0000
  H   H687      1.0  0.90941  0.66290  0.52177  1.0000
  H   H688      1.0  0.89339  0.72010  0.50733  1.0000
  H   H689      1.0  0.67149  0.69990  0.37910  1.0000
  C   C579      1.0  0.72236  0.70865  0.65934  1.0000
  H   H690      1.0  0.63106  0.62086  0.47233  1.0000
  H   H691      1.0  0.92323  0.98358  0.36940  1.0000
  H   H692      1.0  0.57829  0.94102  0.64738  1.0000
  H   H693      1.0  0.55289  0.90094  0.61779  1.0000
  H   H694      1.0  0.95080  0.63492  0.41929  1.0000
  H   H695      1.0  0.91106  0.63807  0.58565  1.0000
  H   H696      1.0  0.93593  0.56953  0.60844  1.0000
  C   C580      1.0  0.61247  0.88469  0.64257  1.0000
  H   H697      1.0  0.59120  0.54214  0.49045  1.0000
  C   C581      1.0  0.58017  0.61743  0.45526  1.0000
  H   H698      1.0  0.87284  0.63814  0.60477  1.0000
  H   H699      1.0  0.81674  0.89869  0.51398  1.0000
  C   C582      1.0  0.51938  0.96921  0.48184  1.0000
  H   H700      1.0  0.67771  0.85548  0.55542  1.0000
  H   H701      1.0  0.89713  0.85754  0.54077  1.0000
  H   H702      1.0  0.60620  0.58174  0.50161  1.0000
  C   C583      1.0  0.59979  0.94202  0.63247  1.0000
  C   C584      1.0  0.54281  0.58787  0.48688  1.0000
  C   C585      1.0  0.68886  0.90754  0.56063  1.0000
  H   H703      1.0  0.53607  0.56349  0.49685  1.0000
  H   H704      1.0  0.54911  0.60551  0.50427  1.0000
  C   C586      1.0  0.98443  0.90436  0.68457  1.0000
  Fe  Fe78      1.0  0.50422  0.96980  0.67171  1.0000
  H   H705      1.0  0.84699  0.61444  0.42832  1.0000
  C   C587      1.0  0.82676  0.98334  0.37785  1.0000
  C   C588      1.0  0.59870  0.56738  0.48248  1.0000
  N   N38       1.0  0.89999  0.62229  0.42875  1.0000
  H   H706      1.0  0.63614  0.89068  0.65378  1.0000
  N   N39       1.0  0.57107  0.58416  0.46694  1.0000
  C   C589      1.0  0.63195  0.97158  0.43995  1.0000
  H   H707      1.0  0.79992  0.98347  0.38003  1.0000
  C   C590      1.0  0.63475  0.90896  0.59937  1.0000
  H   H708      1.0  0.97561  0.59534  0.54442  1.0000
  C   C591      1.0  0.89293  0.59356  0.64647  1.0000
  S   S159      1.0  0.89551  0.53188  0.37036  1.0000
  H   H709      1.0  0.88879  0.58032  0.45603  1.0000
  C   C592      1.0  0.90662  0.88056  0.54966  1.0000
  H   H710      1.0  0.84142  0.87153  0.53536  1.0000
  H   H711      1.0  0.82349  0.90499  0.38279  1.0000
  H   H712      1.0  0.49533  0.95732  0.48479  1.0000
  C   C593      1.0  0.82888  0.66934  0.66860  1.0000
  N   N40       1.0  0.86787  0.91448  0.51894  1.0000
  H   H713      1.0  0.70924  0.90707  0.54555  1.0000
  H   H714      1.0  0.62431  0.90708  0.43558  1.0000
  H   H715      1.0  0.67547  0.65549  0.38481  1.0000
  C   C594      1.0  0.89525  0.62273  0.60006  1.0000
  H   H716      1.0  0.56877  0.56693  0.67734  1.0000
  C   C595      1.0  0.54225  0.95614  0.46248  1.0000
  C   C596      1.0  0.63455  0.49390  0.61993  1.0000
  S   S160      1.0  0.72582  0.96864  0.43305  1.0000
  S   S161      1.0  0.68979  0.57092  0.67091  1.0000
  C   C597      1.0  0.56074  0.56156  0.44364  1.0000
  C   C598      1.0  0.93115  0.87771  0.57054  1.0000
  H   H717      1.0  0.94022  0.85320  0.57694  1.0000
  H   H718      1.0  0.90017  0.96613  0.54916  1.0000
  H   H719      1.0  0.57109  0.91506  0.58532  1.0000
  C   C599      1.0  0.56466  0.66714  0.42731  1.0000
  C   C600      1.0  0.90803  0.94097  0.55429  1.0000
  C   C601      1.0  0.88145  0.97100  0.39649  1.0000
  C   C602      1.0  0.55682  0.63585  0.43887  1.0000
  C   C603      1.0  0.68469  0.67687  0.37186  1.0000
  H   H720      1.0  0.63085  0.85590  0.58866  1.0000
  C   C604      1.0  0.87862  0.89695  0.49284  1.0000
  C   C605      1.0  0.95218  0.84294  0.67503  1.0000
  H   H721      1.0  0.61430  0.85847  0.63492  1.0000
  H   H722      1.0  0.58037  0.55996  0.42710  1.0000
  C   C606      1.0  0.98020  0.64644  0.53005  1.0000
  H   H723      1.0  0.57643  0.87255  0.59651  1.0000
  H   H724      1.0  0.93978  0.81921  0.67171  1.0000
  C   C607      1.0  0.57443  0.97039  0.45907  1.0000
  Fe  Fe79      1.0  0.69839  0.51572  0.67172  1.0000
  H   H725      1.0  0.83955  0.94987  0.49386  1.0000
  H   H726      1.0  0.88408  0.68880  0.42153  1.0000
  C   C608      1.0  0.83725  0.89824  0.52985  1.0000
  C   C609      1.0  0.82347  0.90164  0.36001  1.0000
  H   H727      1.0  0.84851  0.96365  0.52881  1.0000
  H   H728      1.0  0.60187  0.70552  0.42279  1.0000
  C   C610      1.0  0.60435  0.91918  0.44833  1.0000
  C   C611      1.0  0.85900  0.94935  0.51073  1.0000
  H   H729      1.0  0.58185  0.90344  0.44529  1.0000
  C   C612      1.0  0.94317  0.59385  0.61811  1.0000
  C   C613      1.0  0.89794  0.64861  0.45072  1.0000
  C   C614      1.0  0.88919  0.68197  0.44322  1.0000
  H   H730      1.0  0.55577  0.53569  0.45140  1.0000
  S   S162      1.0  0.54740  0.97987  0.57307  1.0000
  Fe  Fe80      1.0  0.51674  0.50107  0.52770  1.0000
  S   S163      1.0  0.98592  0.83057  0.62448  1.0000
  C   C615      1.0  0.49825  0.51396  0.60347  1.0000
  S   S164      1.0  0.75401  0.51924  0.66522  1.0000
  H   H731      1.0  0.94112  0.64067  0.65830  1.0000
  C   C616      1.0  0.84167  0.56358  0.65948  1.0000
  C   C617      1.0  0.92657  0.63100  0.40826  1.0000
  H   H732      1.0  0.71146  0.68060  0.37694  1.0000
  C   C618      1.0  0.61184  0.63259  0.45973  1.0000
  H   H733      1.0  0.88092  0.73279  0.45749  1.0000
  H   H734      1.0  0.88757  0.60025  0.58784  1.0000
  C   C619      1.0  0.58735  0.98470  0.55729  1.0000
  C   C620      1.0  0.98031  0.61140  0.52641  1.0000
  S   S165      1.0  0.56482  0.52378  0.54570  1.0000
  C   C621      1.0  0.92440  0.64499  0.63995  1.0000
  H   H735      1.0  0.93128  0.59059  0.67922  1.0000
  C   C622      1.0  0.62165  0.82342  0.36349  1.0000
  C   C623      1.0  0.68035  0.93728  0.57412  1.0000
  C   C624      1.0  0.57542  0.89881  0.60412  1.0000
  H   H736      1.0  0.93037  0.61073  0.39238  1.0000
  Fe  Fe81      1.0  0.74541  0.57481  0.66660  1.0000
  H   H737      1.0  0.93287  0.58781  0.45029  1.0000
  H   H738      1.0  0.49804  0.54134  0.60737  1.0000
  N   N41       1.0  0.71534  0.69206  0.68678  1.0000
  C   C625      1.0  0.71197  0.65560  0.68138  1.0000
  C   C626      1.0  0.61947  0.66397  0.44803  1.0000
  C   C627      1.0  0.93242  0.93776  0.57535  1.0000
  H   H739      1.0  0.70078  0.70629  0.64465  1.0000
  S   S166      1.0  0.62521  0.75531  0.37285  1.0000
  H   H740      1.0  0.59333  0.96129  0.61632  1.0000
  H   H741      1.0  0.94236  0.95986  0.58563  1.0000
  H   H742      1.0  0.85943  0.89877  0.47580  1.0000
  H   H743      1.0  0.61174  0.91728  0.47094  1.0000
  C   C628      1.0  0.85991  0.58289  0.64025  1.0000
  H   H744      1.0  0.64349  0.97122  0.46136  1.0000
  H   H745      1.0  0.89708  0.96150  0.41335  1.0000
  H   H746      1.0  0.53481  0.93428  0.45063  1.0000
  H   H747      1.0  0.79981  0.62633  0.68094  1.0000
  H   H748      1.0  0.64995  0.95910  0.42554  1.0000
  N   N42       1.0  0.59898  0.95464  0.43986  1.0000
  C   C629      1.0  0.85550  0.55430  0.68536  1.0000
  H   H749      1.0  0.81649  0.55599  0.65423  1.0000
  C   C630      1.0  0.63227  0.85664  0.36747  1.0000
  H   H750      1.0  0.88087  0.96302  0.50198  1.0000
  H   H751      1.0  0.73528  0.64476  0.67272  1.0000
  H   H752      1.0  0.72790  0.73576  0.66179  1.0000
  H   H753      1.0  0.62165  0.95089  0.64483  1.0000
  C   C631      1.0  0.59071  0.51153  0.57476  1.0000
  C   C632      1.0  0.90630  0.58362  0.67305  1.0000
  H   H754      1.0  0.95869  0.60771  0.60241  1.0000
  H   H755      1.0  0.52113  0.50819  0.59118  1.0000
  H   H756      1.0  0.51837  0.55464  0.65019  1.0000
  H   H757      1.0  0.93861  0.66106  0.62491  1.0000
  H   H758      1.0  0.48851  0.63566  0.36909  1.0000
  N   N43       1.0  0.49707  0.49382  0.62985  1.0000
  C   C633      1.0  0.89639  0.98343  0.37151  1.0000
  H   H759      1.0  0.96270  0.90363  0.59986  1.0000
  H   H760      1.0  0.77077  0.89215  0.35820  1.0000
  C   C634      1.0  0.56305  0.54130  0.67162  1.0000
  S   S167      1.0  0.52913  0.77199  0.36012  1.0000
  Fe  Fe82      1.0  0.50746  0.71995  0.35745  1.0000
  H   H761      1.0  0.55611  0.60748  0.00361  1.0000
  N   N44       1.0  0.73745  0.54288  0.81012  1.0000
  Fe  Fe83      1.0  0.76394  0.96039  0.94923  1.0000
  S   S168      1.0  0.79031  0.91324  0.96166  1.0000
  Fe  Fe84      1.0  0.70396  0.94598  0.99045  1.0000
  S   S169      1.0  0.72655  0.89730  0.00484  1.0000
  Fe  Fe85      1.0  0.77464  0.92611  0.00602  1.0000
  C   C635      1.0  0.83012  0.85872  0.83083  1.0000
  Fe  Fe86      1.0  0.74021  0.88869  0.95955  1.0000
  S   S170      1.0  0.73339  0.84098  0.93510  1.0000
  C   C636      1.0  0.54251  0.85637  0.75764  1.0000
  S   S171      1.0  0.71440  0.93475  0.94462  1.0000
  H   H762      1.0  0.68654  0.58874  0.80682  1.0000
  Fe  Fe87      1.0  0.76029  0.52377  0.71272  1.0000
  S   S172      1.0  0.75507  0.57994  0.71337  1.0000
  Fe  Fe88      1.0  0.70009  0.56968  0.71744  1.0000
  S   S173      1.0  0.66206  0.58799  0.74872  1.0000
  C   C637      1.0  0.84814  0.97650  0.90934  1.0000
  S   S174      1.0  0.70546  0.51389  0.71906  1.0000
  H   H763      1.0  0.77180  0.86263  0.88320  1.0000
  C   C638      1.0  0.87306  0.51897  0.81203  1.0000
  H   H764      1.0  0.65297  0.66241  0.69944  1.0000
  H   H765      1.0  0.70880  0.64481  0.88098  1.0000
  C   C639      1.0  0.69485  0.61835  0.84328  1.0000
  H   H766      1.0  0.90443  0.88730  0.78052  1.0000
  C   C640      1.0  0.63575  0.98651  0.92835  1.0000
  Fe  Fe89      1.0  0.53855  0.78039  0.81084  1.0000
  S   S175      1.0  0.58885  0.80003  0.82331  1.0000
  Fe  Fe90      1.0  0.54560  0.71684  0.84935  1.0000
  S   S176      1.0  0.59646  0.73245  0.86407  1.0000
  Fe  Fe91      1.0  0.57465  0.78406  0.86714  1.0000
  S   S177      1.0  0.58195  0.81667  0.90534  1.0000
  Fe  Fe92      1.0  0.60619  0.74663  0.81898  1.0000
  S   S178      1.0  0.65583  0.73426  0.79926  1.0000
  S   S179      1.0  0.52288  0.76782  0.85555  1.0000
  S   S180      1.0  0.55695  0.72773  0.80327  1.0000
  C   C641      1.0  0.51059  0.84233  0.75920  1.0000
  H   H767      1.0  0.76976  0.50004  0.80399  1.0000
  C   C642      1.0  0.56206  0.63136  0.99380  1.0000
  S   S181      1.0  0.75158  0.97593  0.99413  1.0000
  H   H768      1.0  0.58043  0.96319  0.01710  1.0000
  Fe  Fe93      1.0  0.93983  0.50701  0.87121  1.0000
  C   C643      1.0  0.80375  0.84893  0.84843  1.0000
  C   C644      1.0  0.66179  0.62846  0.76312  1.0000
  C   C645      1.0  0.68960  0.64949  0.76178  1.0000
  C   C646      1.0  0.68792  0.68189  0.77337  1.0000
  C   C647      1.0  0.65862  0.69302  0.78654  1.0000
  C   C648      1.0  0.63149  0.67131  0.78894  1.0000
  C   C649      1.0  0.63306  0.63919  0.77721  1.0000
  H   H769      1.0  0.71230  0.64070  0.75204  1.0000
  H   H770      1.0  0.70915  0.69848  0.77204  1.0000
  H   H771      1.0  0.60918  0.67927  0.79969  1.0000
  H   H772      1.0  0.61177  0.62267  0.77890  1.0000
  H   H773      1.0  0.72874  0.96314  0.86570  1.0000
  H   H774      1.0  0.65935  0.98357  0.94057  1.0000
  H   H775      1.0  0.92592  0.91454  0.82299  1.0000
  C   C650      1.0  0.83435  0.53812  0.77478  1.0000
  H   H776      1.0  0.86542  0.95519  0.81843  1.0000
  H   H777      1.0  0.82248  0.55849  0.76352  1.0000
  C   C651      1.0  0.69134  0.83386  0.92712  1.0000
  C   C652      1.0  0.66624  0.84831  0.94356  1.0000
  C   C653      1.0  0.63265  0.84228  0.93711  1.0000
  C   C654      1.0  0.62410  0.82279  0.91365  1.0000
  C   C655      1.0  0.64916  0.80833  0.89718  1.0000
  C   C656      1.0  0.68277  0.81353  0.90414  1.0000
  H   H778      1.0  0.67278  0.86376  0.96149  1.0000
  H   H779      1.0  0.61332  0.85293  0.95024  1.0000
  H   H780      1.0  0.64273  0.79323  0.87902  1.0000
  H   H781      1.0  0.70216  0.80231  0.89141  1.0000
  H   H782      1.0  0.70641  0.64145  0.70110  1.0000
  H   H783      1.0  0.75606  0.60696  0.89192  1.0000
  C   C657      1.0  0.68107  0.96172  0.88666  1.0000
  C   C658      1.0  0.96250  0.89203  0.70513  1.0000
  C   C659      1.0  0.70199  0.59156  0.82535  1.0000
  H   H784      1.0  0.91557  0.51922  0.98454  1.0000
  N   N45       1.0  0.62660  0.95481  0.91381  1.0000
  C   C660      1.0  0.48956  0.64755  0.94207  1.0000
  C   C661      1.0  0.51454  0.64624  0.89506  1.0000
  H   H785      1.0  0.57337  0.60947  0.95360  1.0000
  C   C662      1.0  0.94128  0.71367  0.00258  1.0000
  C   C663      1.0  0.68531  0.74118  0.70820  1.0000
  H   H786      1.0  0.75156  0.72345  0.70822  1.0000
  C   C664      1.0  0.65160  0.90886  0.88411  1.0000
  C   C665      1.0  0.72904  0.56946  0.83070  1.0000
  C   C666      1.0  0.49100  0.88482  0.72516  1.0000
  C   C667      1.0  0.97342  0.59874  0.98788  1.0000
  H   H787      1.0  0.56175  0.71380  0.00918  1.0000
  H   H788      1.0  0.84283  0.93645  0.85862  1.0000
  H   H789      1.0  0.72846  0.57443  0.77374  1.0000
  H   H790      1.0  0.95793  0.70407  0.01953  1.0000
  H   H791      1.0  0.84459  0.96444  0.92963  1.0000
  C   C668      1.0  0.62828  0.70311  0.71860  1.0000
  H   H792      1.0  0.92927  0.85143  0.71566  1.0000
  H   H793      1.0  0.91765  0.73042  0.95244  1.0000
  H   H794      1.0  0.83826  0.84069  0.81535  1.0000
  H   H795      1.0  0.86193  0.87410  0.77862  1.0000
  H   H796      1.0  0.60513  0.90760  0.92777  1.0000
  H   H797      1.0  0.96937  0.63572  0.92247  1.0000
  H   H798      1.0  0.60204  0.94031  0.95287  1.0000
  C   C669      1.0  0.76457  0.52012  0.81977  1.0000
  H   H799      1.0  0.49381  0.69036  0.91408  1.0000
  S   S182      1.0  0.90006  0.52946  0.84094  1.0000
  N   N46       1.0  0.57981  0.72628  0.95239  1.0000
  C   C670      1.0  0.61310  0.72691  0.93872  1.0000
  C   C671      1.0  0.55376  0.73004  0.93036  1.0000
  C   C672      1.0  0.57782  0.75602  0.97116  1.0000
  C   C673      1.0  0.57476  0.69399  0.96728  1.0000
  C   C674      1.0  0.57778  0.66328  0.95238  1.0000
  C   C675      1.0  0.56516  0.69191  0.99618  1.0000
  H   H800      1.0  0.95100  0.75791  0.94182  1.0000
  H   H801      1.0  0.58725  0.93778  0.88634  1.0000
  C   C676      1.0  0.74836  0.57571  0.85537  1.0000
  H   H802      1.0  0.61580  0.70755  0.92208  1.0000
  H   H803      1.0  0.61794  0.75136  0.92803  1.0000
  H   H804      1.0  0.63331  0.72287  0.95452  1.0000
  H   H805      1.0  0.55591  0.75430  0.91894  1.0000
  H   H806      1.0  0.52842  0.72904  0.93983  1.0000
  H   H807      1.0  0.55519  0.71007  0.91406  1.0000
  H   H808      1.0  0.59675  0.75476  0.98835  1.0000
  H   H809      1.0  0.58263  0.77974  0.95929  1.0000
  H   H810      1.0  0.55257  0.75885  0.98057  1.0000
  H   H811      1.0  0.58366  0.66281  0.93008  1.0000
  H   H812      1.0  0.60645  0.68815  0.72340  1.0000
  H   H813      1.0  0.67444  0.63526  0.83823  1.0000
  C   C677      1.0  0.94630  0.86133  0.70003  1.0000
  H   H814      1.0  0.69701  0.51138  0.82381  1.0000
  N   N47       1.0  0.87421  0.90164  0.81640  1.0000
  C   C678      1.0  0.79186  0.87047  0.86927  1.0000
  C   C679      1.0  0.86706  0.93450  0.80285  1.0000
  H   H815      1.0  0.57347  0.89463  0.73885  1.0000
  C   C680      1.0  0.84535  0.89073  0.83369  1.0000
  C   C681      1.0  0.65554  0.68854  0.70491  1.0000
  H   H816      1.0  0.81155  0.86678  0.00136  1.0000
  C   C682      1.0  0.57181  0.63252  0.96560  1.0000
  S   S183      1.0  0.52438  0.66531  0.86182  1.0000
  H   H817      1.0  0.84322  0.93381  0.79082  1.0000
  H   H818      1.0  0.88717  0.94208  0.78792  1.0000
  C   C683      1.0  0.70511  0.91510  0.86113  1.0000
  C   C684      1.0  0.82786  0.50501  0.76678  1.0000
  S   S184      1.0  0.79882  0.49452  0.73935  1.0000
  H   H819      1.0  0.63073  0.89261  0.88861  1.0000
  H   H820      1.0  0.75806  0.50743  0.83998  1.0000
  H   H821      1.0  0.84787  0.81738  0.99621  1.0000
  C   C685      1.0  0.88775  0.56435  0.69216  1.0000
  H   H822      1.0  0.91051  0.88115  0.84523  1.0000
  Fe  Fe94      1.0  0.97001  0.96356  0.75715  1.0000
  C   C686      1.0  0.96441  0.67988  0.94832  1.0000
  S   S185      1.0  0.64933  0.95906  0.00051  1.0000
  C   C687      1.0  0.80604  0.90204  0.87243  1.0000
  S   S186      1.0  0.98416  0.54102  0.87875  1.0000
  C   C688      1.0  0.90380  0.90533  0.83494  1.0000
  N   N48       1.0  0.96085  0.73028  0.98006  1.0000
  C   C689      1.0  0.98154  0.75666  0.99356  1.0000
  H   H823      1.0  0.79692  0.91878  0.88879  1.0000
  H   H824      1.0  0.78865  0.53362  0.82244  1.0000
  S   S187      1.0  0.53277  0.93371  0.70133  1.0000
  H   H825      1.0  0.56259  0.97149  0.75793  1.0000
  H   H826      1.0  0.92403  0.76841  0.97089  1.0000
  H   H827      1.0  0.57554  0.97078  0.91003  1.0000
  C   C690      1.0  0.94926  0.61526  0.00432  1.0000
  C   C691      1.0  0.61849  0.92980  0.93613  1.0000
  H   H828      1.0  0.68777  0.53591  0.79276  1.0000
  H   H829      1.0  0.64149  0.92088  0.94701  1.0000
  H   H830      1.0  0.77029  0.57554  0.78713  1.0000
  H   H831      1.0  0.89841  0.55701  0.71235  1.0000
  H   H832      1.0  0.71408  0.50051  0.78981  1.0000
  H   H833      1.0  0.79262  0.82433  0.84618  1.0000
  C   C692      1.0  0.65322  0.94195  0.89502  1.0000
  H   H834      1.0  0.56257  0.84563  0.76999  1.0000
  C   C693      1.0  0.74083  0.60246  0.87335  1.0000
  C   C694      1.0  0.93748  0.74737  0.96034  1.0000
  C   C695      1.0  0.74846  0.55891  0.78348  1.0000
  S   S188      1.0  0.95586  0.91249  0.73827  1.0000
  H   H835      1.0  0.76721  0.68411  0.69726  1.0000
  C   C696      1.0  0.52298  0.89869  0.72350  1.0000
  H   H836      1.0  0.53082  0.59726  0.88179  1.0000
  C   C697      1.0  0.70680  0.94816  0.87034  1.0000
  H   H837      1.0  0.76971  0.56061  0.86104  1.0000
  H   H838      1.0  0.89124  0.85319  0.80205  1.0000
  C   C698      1.0  0.59628  0.96109  0.89672  1.0000
  C   C699      1.0  0.88313  0.87787  0.79348  1.0000
  H   H839      1.0  0.72547  0.90450  0.84906  1.0000
  C   C700      1.0  0.85651  0.54496  0.79736  1.0000
  H   H840      1.0  0.90075  0.96532  0.90760  1.0000
  H   H841      1.0  0.60896  0.74710  0.73902  1.0000
  Fe  Fe95      1.0  0.48702  0.54146  0.99879  1.0000
  S   S189      1.0  0.53079  0.50677  0.99324  1.0000
  C   C701      1.0  0.54861  0.88426  0.73990  1.0000
  C   C702      1.0  0.49923  0.66407  0.91692  1.0000
  H   H842      1.0  0.86113  0.57066  0.80339  1.0000
  H   H843      1.0  0.92312  0.61121  0.99987  1.0000
  C   C703      1.0  0.62961  0.73634  0.72737  1.0000
  Fe  Fe96      1.0  0.97464  0.53375  0.92560  1.0000
  C   C704      1.0  0.83235  0.91201  0.85498  1.0000
  H   H844      1.0  0.92359  0.73116  0.01278  1.0000
  C   C705      1.0  0.49487  0.61290  0.94584  1.0000
  S   S190      1.0  0.95973  0.57253  0.95954  1.0000
  H   H845      1.0  0.92632  0.69230  0.99457  1.0000
  H   H846      1.0  0.94523  0.53947  0.02302  1.0000
  C   C706      1.0  0.51961  0.61155  0.89869  1.0000
  H   H847      1.0  0.89952  0.92369  0.85220  1.0000
  S   S191      1.0  0.92955  0.50144  0.91785  1.0000
  H   H848      1.0  0.97627  0.51144  0.98395  1.0000
  H   H849      1.0  0.93759  0.67895  0.94667  1.0000
  H   H850      1.0  0.51420  0.56837  0.92632  1.0000
  C   C707      1.0  0.98063  0.70460  0.96494  1.0000
  C   C708      1.0  0.88005  0.97711  0.89677  1.0000
  C   C709      1.0  0.71423  0.62380  0.86726  1.0000
  H   H851      1.0  0.84121  0.53921  0.70015  1.0000
  C   C710      1.0  0.70778  0.52185  0.80401  1.0000
  C   C711      1.0  0.85023  0.83312  0.01468  1.0000
  H   H852      1.0  0.49203  0.70673  0.81862  1.0000
  C   C712      1.0  0.67738  0.89562  0.86771  1.0000
  C   C713      1.0  0.65797  0.75539  0.72202  1.0000
  C   C714      1.0  0.82985  0.86139  0.01741  1.0000
  C   C715      1.0  0.51011  0.59501  0.92394  1.0000
  H   H853      1.0  0.75580  0.53990  0.76752  1.0000
  H   H854      1.0  0.96583  0.77600  0.00414  1.0000
  S   S192      1.0  0.50171  0.80669  0.78099  1.0000
  H   H855      1.0  0.67612  0.86984  0.86060  1.0000
  H   H856      1.0  0.65905  0.78104  0.72944  1.0000
  H   H857      1.0  0.60128  0.97976  0.87973  1.0000
  H   H858      1.0  0.68457  0.98720  0.89365  1.0000
  H   H859      1.0  0.73788  0.82074  0.01674  1.0000
  C   C716      1.0  0.55884  0.66095  0.00908  1.0000
  H   H860      1.0  0.73971  0.68627  0.72706  1.0000
  H   H861      1.0  0.70680  0.75693  0.70473  1.0000
  C   C717      1.0  0.74458  0.69671  0.70567  1.0000
  C   C718      1.0  0.68526  0.70706  0.69979  1.0000
  C   C719      1.0  0.98239  0.65492  0.93436  1.0000
  H   H862      1.0  0.74550  0.75941  0.02030  1.0000
  H   H863      1.0  0.89010  0.49361  0.00708  1.0000
  C   C720      1.0  0.91366  0.49403  0.99471  1.0000
  H   H864      1.0  0.60769  0.52156  0.69083  1.0000
