data_image0
_chemical_formula_structural       SCFeHSFeHSCHSHSH2FeS2FeS2FeSFeS3FeS2H2FeCS2FeS2FeS2FeSFeS3FeS2H4S2C6H5SH3C3H7CSC7H4C6H4C6H4C6HCSH7C3SNHC2FeHCHCHNHC4HCH7C4H6NC9H14CFeC2HC2NHC3HFeNH3C2HC2N2C9HCH4CH8SC2H3C5HCH3CFeHC2H2CH2CH3C4H3CH2CH2CHC3HFeH3C2H4C3H3SH4SH2CHCHCH2C2SHCSHSHSNHFeSH4C2NHCH2FeSH6CH2C2H2C5H4NH2C2HC7H2CHCH4CHCHC3H2CHSH3CSC2H2C2HCHCH3C2HNC2H3CH2C3HC5HCS2H3C2HFeS2H2CFeSCHS2H2FeS2CFeS2FeS2FeSFeS3HC6H4C6H4C6H4C6H4C5H6CH2CFeHCH2C3HC3HC5H5CH3NCH3SCHCH2CSCNCH3C3N2C9H11CH2CSCH4FeNC2HFe2H5CH4CHCFeH4C3HC2HCSH3CH2CSH4CFe3S2FeS2FeSFeS3FeS2FeHFeS3CHSHC3HCSHC6H4CH6C6H5CHC3HC3H2C2HCH2CFeCHC3HCH2NC9H14SHCHC4HC3H2SNH8NC4HNCH3CSHC7NHNC5HCHCH7CHC2H10CH2CH2CH3SCHC2FeCH2SH4FeS4FeSFeSC2FeS2FeS2FeSFeS3FeS2FeSFeSFeS4FeH5C6H2SHC6H4CHC7H4C6H3C7H4C6H4NHCHCH8C2H2CSHCHNCNC3H8NC9H7FeH6NC9H17C3HNH4C3HCH2CHC4H2CH2CHSCH3SCH2C2HSCH4CSHSHC3H2CHCH3C2HC2H3NHFeHCH6SC2H4FeSHFeSH4SFeS2H2CHNFeS3FeS2FeS2FeSFeS3HC6H3C7H6C4H4C3SH4C2H2C3H3C2H2FeH2C2HC6H3CH2NC5SC2H9C2FeH5C2SFeSHC3FeH2CNHCH2CH2C2HNC2HCH2CHCHFeH3SC4H3C3HC3FeH3CSCH3CHSNSHC3HCHCHCFeS2FeS2FeSFeS3FeS2FeSFeHS2C6H4CH2CFeCH2C4H2NC5H5CH2CH6CH3C2H5CHCH2C2H3C3HCH2CSC2HC2HCHNCHNC2HNCNH8C2H3CHC3HCHSCHCH6C2HCH4CSCHSH3CH2C2H3NHCH2CHC2H3CSHCH2FeS2FeS2FeSFeS3FeHSFeS2FeSCS2HCHFeS2FeS2Fe2S3H2CHC2H2C2H3C6H4C2HC3HCH2C6HSH2C6H4C6H4C6H4CHFeH3NC6H11CSH2CH4C2H2CHCH2C3NHC2HSC2HFeHCHCHNCNCHCHNCH3CHC5H3SH2CHCHCHCFeHCH2CH9C2HCH4C4HCH2CNH4CHC2SHSCH8CHCSNHC3SCH2CH2FeSHSH2CH2SCHCHCFeS2FeS2FeSFeS3FeS2FeSFeS3FeS2FeS2FeSFeS3FeS2FeCFeS3CHC3HCH2C6H4CSHCH2CHC2HC7H4C3H2C6H5C5H4C5H3Fe2C2H2C3H6CH2CH2CHCHC2NC2HC5H5CH2C2HCH3C2HC2HCH2NC9H21CS2C2H3C2HNHC7H10C2H2C2NHCH2CHCNHNH3CH3CH3CHC2HCHCH2CHCSH6CHC2SCH2CH2CHCH2CS2H2CHC2HNCHC3H5C6H4C6HC2H2CNHCHCH2C3H2CHCHFeC2H3CFeH6CHC2HCH2C2HCHCH2NH
_chemical_formula_sum              "S224 C840 Fe112 H1008 N56"
_cell_length_a       50.3489
_cell_length_b       50.3341
_cell_length_c       64.2874
_cell_angle_alpha    87.7469
_cell_angle_beta     88.1097
_cell_angle_gamma    120

_space_group_name_H-M_alt    "P 1"
_space_group_IT_number       1

loop_
  _space_group_symop_operation_xyz
  'x, y, z'

loop_
  _atom_site_type_symbol
  _atom_site_label
  _atom_site_symmetry_multiplicity
  _atom_site_fract_x
  _atom_site_fract_y
  _atom_site_fract_z
  _atom_site_occupancy
  S   S1        1.0  0.46280  0.25303  0.28879  1.0000
  C   C1        1.0  0.48363  0.30466  0.23125  1.0000
  Fe  Fe1       1.0  0.47674  0.24524  0.32035  1.0000
  H   H1        1.0  0.26374  0.41629  0.32261  1.0000
  S   S2        1.0  0.19948  0.47203  0.28987  1.0000
  Fe  Fe2       1.0  0.21280  0.44952  0.31530  1.0000
  H   H2        1.0  0.46664  0.17320  0.21282  1.0000
  S   S3        1.0  0.26163  0.47203  0.30235  1.0000
  C   C2        1.0  0.47972  0.33004  0.22863  1.0000
  H   H3        1.0  0.47243  0.28854  0.24469  1.0000
  S   S4        1.0  0.48150  0.20442  0.25002  1.0000
  H   H4        1.0  0.46562  0.33355  0.24007  1.0000
  S   S5        1.0  0.18696  0.39804  0.32317  1.0000
  H   H5        1.0  0.21596  0.49156  0.22983  1.0000
  H   H6        1.0  0.28586  0.27611  0.32880  1.0000
  Fe  Fe3       1.0  0.13735  0.29179  0.42420  1.0000
  S   S6        1.0  0.11015  0.26027  0.39975  1.0000
  S   S7        1.0  0.16928  0.34297  0.41663  1.0000
  Fe  Fe4       1.0  0.10745  0.24043  0.45941  1.0000
  S   S8        1.0  0.07757  0.20583  0.43723  1.0000
  S   S9        1.0  0.10330  0.21985  0.49224  1.0000
  Fe  Fe5       1.0  0.12065  0.22646  0.41618  1.0000
  S   S10       1.0  0.13296  0.19399  0.40075  1.0000
  Fe  Fe6       1.0  0.07021  0.24288  0.42335  1.0000
  S   S11       1.0  0.02591  0.24178  0.41654  1.0000
  S   S12       1.0  0.15087  0.25928  0.43902  1.0000
  S   S13       1.0  0.09685  0.27627  0.44718  1.0000
  Fe  Fe7       1.0  0.12359  0.28870  0.60141  1.0000
  S   S14       1.0  0.10976  0.24160  0.61532  1.0000
  S   S15       1.0  0.12950  0.30529  0.56752  1.0000
  H   H7        1.0  0.23881  0.18630  0.38010  1.0000
  H   H8        1.0  0.41039  0.22499  0.38745  1.0000
  Fe  Fe8       1.0  0.15147  0.26532  0.63416  1.0000
  C   C3        1.0  0.24804  0.38064  0.34710  1.0000
  S   S16       1.0  0.09779  0.29977  0.62549  1.0000
  S   S17       1.0  0.16681  0.31138  0.61816  1.0000
  Fe  Fe9       1.0  0.25469  0.14808  0.43231  1.0000
  S   S18       1.0  0.30334  0.15765  0.43328  1.0000
  S   S19       1.0  0.24895  0.18971  0.43241  1.0000
  Fe  Fe10      1.0  0.22800  0.07898  0.43316  1.0000
  S   S20       1.0  0.27413  0.08274  0.43415  1.0000
  S   S21       1.0  0.18303  0.03412  0.43537  1.0000
  Fe  Fe11      1.0  0.28389  0.11817  0.45749  1.0000
  S   S22       1.0  0.30799  0.11776  0.48645  1.0000
  Fe  Fe12      1.0  0.28959  0.12190  0.40988  1.0000
  S   S23       1.0  0.31729  0.12491  0.38046  1.0000
  S   S24       1.0  0.23647  0.11141  0.45845  1.0000
  S   S25       1.0  0.24223  0.11524  0.40699  1.0000
  Fe  Fe13      1.0  0.26926  0.13858  0.60138  1.0000
  S   S26       1.0  0.22666  0.10011  0.61805  1.0000
  S   S27       1.0  0.26326  0.15345  0.56891  1.0000
  H   H9        1.0  0.34949  0.11240  0.65013  1.0000
  H   H10       1.0  0.35831  0.18226  0.39912  1.0000
  H   H11       1.0  0.28112  0.45796  0.34612  1.0000
  H   H12       1.0  0.42085  0.14578  0.37230  1.0000
  S   S28       1.0  0.30010  0.12290  0.61483  1.0000
  S   S29       1.0  0.27844  0.17208  0.62603  1.0000
  C   C4        1.0  0.29539  0.12745  0.50942  1.0000
  C   C5        1.0  0.30370  0.12139  0.52893  1.0000
  C   C6        1.0  0.29362  0.12876  0.54739  1.0000
  C   C7        1.0  0.27563  0.14274  0.54636  1.0000
  C   C8        1.0  0.26750  0.14893  0.52685  1.0000
  C   C9        1.0  0.27720  0.14119  0.50847  1.0000
  H   H13       1.0  0.31783  0.11082  0.52981  1.0000
  H   H14       1.0  0.30010  0.12400  0.56236  1.0000
  H   H15       1.0  0.25376  0.15990  0.52591  1.0000
  H   H16       1.0  0.27107  0.14644  0.49354  1.0000
  H   H17       1.0  0.28054  0.14662  0.35831  1.0000
  S   S30       1.0  0.25398  0.03985  0.63783  1.0000
  H   H18       1.0  0.22337  0.25600  0.59713  1.0000
  H   H19       1.0  0.23049  0.02668  0.41369  1.0000
  H   H20       1.0  0.10304  0.31349  0.37047  1.0000
  C   C10       1.0  0.19361  0.22565  0.64140  1.0000
  C   C11       1.0  0.22153  0.22583  0.63928  1.0000
  C   C12       1.0  0.22275  0.19894  0.64374  1.0000
  H   H21       1.0  0.07177  0.14395  0.43858  1.0000
  H   H22       1.0  0.24241  0.24691  0.63424  1.0000
  H   H23       1.0  0.24443  0.19949  0.64220  1.0000
  H   H24       1.0  0.19043  0.02558  0.63507  1.0000
  H   H25       1.0  0.03108  0.23513  0.61331  1.0000
  H   H26       1.0  0.35025  0.06359  0.65524  1.0000
  H   H27       1.0  0.23280  0.34988  0.37455  1.0000
  C   C13       1.0  0.16820  0.17156  0.65303  1.0000
  S   S31       1.0  0.19370  0.26023  0.63552  1.0000
  C   C14       1.0  0.21871  0.00485  0.63750  1.0000
  C   C15       1.0  0.16551  0.19291  0.40906  1.0000
  C   C16       1.0  0.18877  0.21776  0.41855  1.0000
  C   C17       1.0  0.21416  0.21635  0.42554  1.0000
  C   C18       1.0  0.21655  0.19007  0.42318  1.0000
  C   C19       1.0  0.19350  0.16520  0.41346  1.0000
  C   C20       1.0  0.16809  0.16670  0.40634  1.0000
  H   H28       1.0  0.18760  0.23840  0.42014  1.0000
  H   H29       1.0  0.23210  0.23581  0.43279  1.0000
  H   H30       1.0  0.19516  0.14482  0.41152  1.0000
  H   H31       1.0  0.15023  0.14740  0.39893  1.0000
  C   C21       1.0  0.10944  0.24345  0.51310  1.0000
  C   C22       1.0  0.10326  0.23049  0.53366  1.0000
  C   C23       1.0  0.10848  0.24901  0.55059  1.0000
  C   C24       1.0  0.12016  0.28061  0.54696  1.0000
  C   C25       1.0  0.12611  0.29343  0.52640  1.0000
  C   C26       1.0  0.12068  0.27491  0.50950  1.0000
  H   H32       1.0  0.09405  0.20604  0.53647  1.0000
  H   H33       1.0  0.10341  0.23889  0.56640  1.0000
  H   H34       1.0  0.13512  0.31788  0.52353  1.0000
  H   H35       1.0  0.12544  0.28505  0.49369  1.0000
  C   C27       1.0  0.18137  0.38305  0.34928  1.0000
  C   C28       1.0  0.17017  0.35150  0.35331  1.0000
  C   C29       1.0  0.16614  0.33894  0.37389  1.0000
  C   C30       1.0  0.17295  0.35778  0.39063  1.0000
  C   C31       1.0  0.18342  0.38920  0.38664  1.0000
  C   C32       1.0  0.18762  0.40180  0.36604  1.0000
  H   H36       1.0  0.10057  0.13858  0.42552  1.0000
  H   H37       1.0  0.15853  0.31482  0.37670  1.0000
  H   H38       1.0  0.18826  0.40381  0.39953  1.0000
  H   H39       1.0  0.19546  0.42591  0.36307  1.0000
  C   C33       1.0  0.35377  0.15643  0.37230  1.0000
  C   C34       1.0  0.36777  0.15613  0.35311  1.0000
  C   C35       1.0  0.39703  0.18062  0.34624  1.0000
  C   C36       1.0  0.41262  0.20541  0.35868  1.0000
  C   C37       1.0  0.39836  0.20590  0.37773  1.0000
  C   C38       1.0  0.36896  0.18164  0.38445  1.0000
  H   H40       1.0  0.35607  0.13675  0.34357  1.0000
  C   C39       1.0  0.25322  0.39710  0.38236  1.0000
  S   S32       1.0  0.45057  0.23524  0.35189  1.0000
  H   H41       1.0  0.20030  0.31210  0.65763  1.0000
  H   H42       1.0  0.48226  0.21605  0.41035  1.0000
  H   H43       1.0  0.14750  0.15059  0.65854  1.0000
  H   H44       1.0  0.22068  0.29930  0.59468  1.0000
  H   H45       1.0  0.24883  0.15091  0.36643  1.0000
  H   H46       1.0  0.25423  0.23118  0.59395  1.0000
  H   H47       1.0  0.02872  0.29429  0.39507  1.0000
  C   C40       1.0  0.21997  0.26205  0.56370  1.0000
  C   C41       1.0  0.18289  0.00228  0.42480  1.0000
  C   C42       1.0  0.99924  0.21215  0.49577  1.0000
  S   S33       1.0  0.03949  0.22085  0.65601  1.0000
  N   N1        1.0  0.29193  0.19380  0.36096  1.0000
  H   H48       1.0  0.38984  0.25301  0.65911  1.0000
  C   C43       1.0  0.39508  0.13522  0.45863  1.0000
  C   C44       1.0  0.09116  0.38543  0.38653  1.0000
  Fe  Fe14      1.0  0.23713  0.13300  0.64331  1.0000
  H   H49       1.0  0.26869  0.22094  0.55929  1.0000
  C   C45       1.0  0.29025  0.23896  0.34287  1.0000
  H   H50       1.0  0.24838  0.38976  0.39873  1.0000
  C   C46       1.0  0.26149  0.41109  0.33932  1.0000
  H   H51       1.0  0.31501  0.21803  0.38755  1.0000
  N   N2        1.0  0.38466  0.14622  0.44064  1.0000
  H   H52       1.0  0.28162  0.43121  0.41646  1.0000
  C   C47       1.0  0.37954  0.17135  0.44721  1.0000
  C   C48       1.0  0.35451  0.12039  0.43535  1.0000
  C   C49       1.0  0.40835  0.15769  0.42312  1.0000
  C   C50       1.0  0.43785  0.18363  0.42523  1.0000
  H   H53       1.0  0.20928  0.01862  0.47183  1.0000
  C   C51       1.0  0.26934  0.44340  0.41147  1.0000
  H   H54       1.0  0.39989  0.19008  0.45410  1.0000
  H   H55       1.0  0.36030  0.16296  0.45939  1.0000
  H   H56       1.0  0.37382  0.18177  0.43377  1.0000
  H   H57       1.0  0.21439  0.21710  0.37459  1.0000
  H   H58       1.0  0.35612  0.09993  0.43128  1.0000
  H   H59       1.0  0.34504  0.12726  0.42210  1.0000
  H   H60       1.0  0.44370  0.19512  0.43962  1.0000
  C   C52       1.0  0.27583  0.25635  0.33995  1.0000
  C   C53       1.0  0.46021  0.19566  0.40866  1.0000
  C   C54       1.0  0.19575  0.28848  0.54573  1.0000
  C   C55       1.0  0.17203  0.25684  0.57719  1.0000
  H   H61       1.0  0.18090  0.26885  0.53630  1.0000
  H   H62       1.0  0.18313  0.30120  0.54808  1.0000
  H   H63       1.0  0.15833  0.23605  0.56848  1.0000
  H   H64       1.0  0.15815  0.26826  0.57937  1.0000
  H   H65       1.0  0.17456  0.24901  0.59303  1.0000
  H   H66       1.0  0.20695  0.31904  0.57891  1.0000
  N   N3        1.0  0.17194  0.13778  0.58941  1.0000
  C   C56       1.0  0.14972  0.12379  0.60784  1.0000
  C   C57       1.0  0.17523  0.11289  0.58019  1.0000
  C   C58       1.0  0.20188  0.16065  0.59700  1.0000
  C   C59       1.0  0.16266  0.15310  0.57345  1.0000
  C   C60       1.0  0.13656  0.15677  0.57646  1.0000
  C   C61       1.0  0.18029  0.16539  0.55421  1.0000
  C   C62       1.0  0.12840  0.17117  0.56092  1.0000
  C   C63       1.0  0.17183  0.17962  0.53875  1.0000
  C   C64       1.0  0.14591  0.18248  0.54208  1.0000
  H   H67       1.0  0.12662  0.10605  0.60334  1.0000
  H   H68       1.0  0.15735  0.11231  0.61947  1.0000
  H   H69       1.0  0.14757  0.14144  0.61643  1.0000
  H   H70       1.0  0.19502  0.12184  0.56847  1.0000
  H   H71       1.0  0.15409  0.09671  0.57253  1.0000
  H   H72       1.0  0.17965  0.09925  0.59220  1.0000
  H   H73       1.0  0.20047  0.17997  0.60371  1.0000
  H   H74       1.0  0.20952  0.15026  0.60936  1.0000
  H   H75       1.0  0.22049  0.17045  0.58442  1.0000
  H   H76       1.0  0.12200  0.14866  0.59068  1.0000
  H   H77       1.0  0.20087  0.16412  0.55105  1.0000
  H   H78       1.0  0.10828  0.17355  0.56350  1.0000
  H   H79       1.0  0.18554  0.18853  0.52412  1.0000
  H   H80       1.0  0.13939  0.19352  0.53005  1.0000
  C   C65       1.0  0.23741  0.03968  0.51914  1.0000
  Fe  Fe15      1.0  0.30534  0.15275  0.64145  1.0000
  C   C66       1.0  0.00656  0.20790  0.64139  1.0000
  C   C67       1.0  0.00881  0.21883  0.62071  1.0000
  H   H81       1.0  0.37745  0.12598  0.47201  1.0000
  C   C68       1.0  0.22859  0.25573  0.54400  1.0000
  C   C69       1.0  0.45407  0.18195  0.38968  1.0000
  N   N4        1.0  0.07518  0.32946  0.38554  1.0000
  H   H82       1.0  0.06871  0.30539  0.35736  1.0000
  C   C70       1.0  0.09146  0.36131  0.37595  1.0000
  C   C71       1.0  0.10746  0.36936  0.35598  1.0000
  C   C72       1.0  0.24413  0.37369  0.36855  1.0000
  H   H83       1.0  0.10952  0.35291  0.34679  1.0000
  Fe  Fe16      1.0  0.14039  0.31891  0.64358  1.0000
  N   N5        1.0  0.27641  0.45393  0.38902  1.0000
  H   H84       1.0  0.33082  0.18926  0.35096  1.0000
  H   H85       1.0  0.19905  0.44088  0.63277  1.0000
  H   H86       1.0  0.22569  0.00980  0.54681  1.0000
  C   C73       1.0  0.20136  0.45759  0.64382  1.0000
  C   C74       1.0  0.24975  0.20561  0.36870  1.0000
  H   H87       1.0  0.13326  0.44620  0.35140  1.0000
  C   C75       1.0  0.22940  0.25235  0.58164  1.0000
  C   C76       1.0  0.21887  0.30541  0.57817  1.0000
  N   N6        1.0  0.20203  0.27793  0.56595  1.0000
  N   N7        1.0  0.10024  0.13517  0.45898  1.0000
  C   C77       1.0  0.08406  0.13074  0.43942  1.0000
  C   C78       1.0  0.07710  0.12138  0.47687  1.0000
  C   C79       1.0  0.11861  0.16874  0.46153  1.0000
  C   C80       1.0  0.11898  0.12003  0.45807  1.0000
  C   C81       1.0  0.15146  0.13638  0.45914  1.0000
  C   C82       1.0  0.10479  0.08796  0.45554  1.0000
  C   C83       1.0  0.16845  0.12140  0.45775  1.0000
  C   C84       1.0  0.12207  0.07326  0.45400  1.0000
  C   C85       1.0  0.15384  0.08997  0.45507  1.0000
  H   H88       1.0  0.13528  0.18108  0.44799  1.0000
  C   C86       1.0  0.22778  0.48647  0.64282  1.0000
  H   H89       1.0  0.06661  0.10633  0.43763  1.0000
  H   H90       1.0  0.06040  0.09666  0.47531  1.0000
  H   H91       1.0  0.06332  0.13308  0.47836  1.0000
  H   H92       1.0  0.08839  0.12337  0.49178  1.0000
  C   C87       1.0  0.19608  0.17164  0.65059  1.0000
  H   H93       1.0  0.14525  0.19809  0.65009  1.0000
  H   H94       1.0  0.13111  0.17390  0.47612  1.0000
  H   H95       1.0  0.16455  0.16094  0.46045  1.0000
  H   H96       1.0  0.08025  0.07409  0.45435  1.0000
  H   H97       1.0  0.19327  0.13459  0.45815  1.0000
  H   H98       1.0  0.11092  0.04886  0.45165  1.0000
  H   H99       1.0  0.16716  0.07854  0.45354  1.0000
  H   H100      1.0  0.38131  0.12436  0.40030  1.0000
  S   S34       1.0  0.19672  0.13720  0.65571  1.0000
  C   C88       1.0  0.24601  0.24113  0.54254  1.0000
  C   C89       1.0  0.25519  0.23229  0.56048  1.0000
  H   H101      1.0  0.21738  0.30457  0.53641  1.0000
  H   H102      1.0  0.31050  0.18031  0.38634  1.0000
  H   H103      1.0  0.25256  0.23668  0.52738  1.0000
  C   C90       1.0  0.27026  0.16162  0.35616  1.0000
  C   C91       1.0  0.26674  0.42846  0.37493  1.0000
  C   C92       1.0  0.12155  0.42274  0.35818  1.0000
  C   C93       1.0  0.04188  0.31859  0.38849  1.0000
  C   C94       1.0  0.02097  0.21960  0.52937  1.0000
  H   H104      1.0  0.06625  0.28349  0.38059  1.0000
  C   C95       1.0  0.99227  0.18129  0.40571  1.0000
  H   H105      1.0  0.47102  0.19191  0.37661  1.0000
  H   H106      1.0  0.24486  0.06400  0.48940  1.0000
  H   H107      1.0  0.40785  0.17997  0.33158  1.0000
  C   C96       1.0  0.40306  0.14389  0.40364  1.0000
  Fe  Fe17      1.0  0.08654  0.25402  0.64073  1.0000
  H   H108      1.0  0.23979  0.36235  0.33645  1.0000
  C   C97       1.0  0.23557  0.22315  0.36568  1.0000
  C   C98       1.0  0.24856  0.24846  0.35133  1.0000
  H   H109      1.0  0.41652  0.15387  0.46458  1.0000
  H   H110      1.0  0.33718  0.11249  0.44876  1.0000
  C   C99       1.0  0.08721  0.32865  0.40618  1.0000
  H   H111      1.0  0.08257  0.34194  0.41766  1.0000
  H   H112      1.0  0.07660  0.30478  0.41333  1.0000
  C   C100      1.0  0.10610  0.41566  0.37776  1.0000
  H   H113      1.0  0.01378  0.18137  0.40426  1.0000
  H   H114      1.0  0.24254  0.32086  0.57116  1.0000
  H   H115      1.0  0.39958  0.11657  0.45429  1.0000
  C   C101      1.0  0.42572  0.15593  0.38727  1.0000
  C   C102      1.0  0.24695  0.23797  0.57999  1.0000
  C   C103      1.0  0.19077  0.00426  0.63609  1.0000
  C   C104      1.0  0.07853  0.30714  0.37283  1.0000
  H   H116      1.0  0.00862  0.26222  0.65438  1.0000
  H   H117      1.0  0.04082  0.22658  0.53859  1.0000
  H   H118      1.0  0.07939  0.38106  0.40171  1.0000
  C   C105      1.0  0.23263  0.04183  0.49809  1.0000
  H   H119      1.0  0.11247  0.33815  0.40477  1.0000
  H   H120      1.0  0.22223  0.26189  0.52948  1.0000
  C   C106      1.0  0.27752  0.21290  0.35739  1.0000
  H   H121      1.0  0.33888  0.22795  0.35148  1.0000
  H   H122      1.0  0.03705  0.33232  0.39952  1.0000
  C   C107      1.0  0.29931  0.19418  0.38313  1.0000
  H   H123      1.0  0.10385  0.17926  0.46264  1.0000
  C   C108      1.0  0.16686  0.19841  0.64823  1.0000
  C   C109      1.0  0.22185  0.01130  0.53039  1.0000
  C   C110      1.0  0.32086  0.20436  0.34799  1.0000
  H   H124      1.0  0.26711  0.49066  0.39473  1.0000
  Fe  Fe18      1.0  0.25784  0.08676  0.63362  1.0000
  H   H125      1.0  0.27855  0.18441  0.39399  1.0000
  H   H126      1.0  0.26351  0.16043  0.33976  1.0000
  H   H127      1.0  0.25324  0.06011  0.52674  1.0000
  C   C111      1.0  0.12207  0.39963  0.34731  1.0000
  C   C112      1.0  0.21223  0.01563  0.48819  1.0000
  H   H128      1.0  0.03216  0.31978  0.37341  1.0000
  H   H129      1.0  0.10575  0.43374  0.38618  1.0000
  H   H130      1.0  0.23525  0.45637  0.38596  1.0000
  H   H131      1.0  0.16520  0.33683  0.34043  1.0000
  C   C113      1.0  0.20956  0.00466  0.41546  1.0000
  C   C114      1.0  0.27094  0.43472  0.35296  1.0000
  C   C115      1.0  0.02463  0.22116  0.50770  1.0000
  H   H132      1.0  0.23742  0.26196  0.34906  1.0000
  H   H133      1.0  0.24417  0.42774  0.41493  1.0000
  H   H134      1.0  0.30883  0.08979  0.65031  1.0000
  S   S35       1.0  0.35381  0.18248  0.65243  1.0000
  H   H135      1.0  0.04718  0.22922  0.50013  1.0000
  H   H136      1.0  0.30936  0.04117  0.65692  1.0000
  H   H137      1.0  0.00218  0.21319  0.47888  1.0000
  H   H138      1.0  0.99017  0.20779  0.55605  1.0000
  S   S36       1.0  0.16783  0.36766  0.65410  1.0000
  H   H139      1.0  0.31133  0.24643  0.33360  1.0000
  H   H140      1.0  0.31694  0.20384  0.33104  1.0000
  C   C116      1.0  0.99190  0.20906  0.53919  1.0000
  H   H141      1.0  0.13436  0.40529  0.33212  1.0000
  C   C117      1.0  0.31006  0.47499  0.38584  1.0000
  H   H142      1.0  0.27648  0.46301  0.42162  1.0000
  C   C118      1.0  0.26063  0.47150  0.38428  1.0000
  H   H143      1.0  0.32281  0.46254  0.38872  1.0000
  H   H144      1.0  0.26652  0.48234  0.36817  1.0000
  C   C119      1.0  0.32826  0.10127  0.66057  1.0000
  C   C120      1.0  0.17806  0.44961  0.65936  1.0000
  S   S37       1.0  0.12742  0.27402  0.66085  1.0000
  H   H145      1.0  0.15858  0.42660  0.65934  1.0000
  C   C121      1.0  0.99195  0.20753  0.41179  1.0000
  S   S38       1.0  0.22209  0.48508  0.33839  1.0000
  H   H146      1.0  0.31694  0.48578  0.36969  1.0000
  S   S39       1.0  0.26448  0.11594  0.66085  1.0000
  H   H147      1.0  0.22222  0.35063  0.66522  1.0000
  S   S40       1.0  0.46507  0.23511  0.78123  1.0000
  N   N8        1.0  0.15659  0.46281  0.69130  1.0000
  H   H148      1.0  0.42601  0.14035  0.72309  1.0000
  Fe  Fe19      1.0  0.45240  0.21021  0.75145  1.0000
  S   S41       1.0  0.40204  0.18512  0.74349  1.0000
  H   H149      1.0  0.26642  0.41173  0.71721  1.0000
  H   H150      1.0  0.38350  0.28311  0.74811  1.0000
  H   H151      1.0  0.18400  0.45829  0.71459  1.0000
  H   H152      1.0  0.16635  0.28159  0.69806  1.0000
  C   C122      1.0  0.17338  0.37775  0.68028  1.0000
  C   C123      1.0  0.41037  0.12649  0.69250  1.0000
  N   N9        1.0  0.32788  0.07929  0.67676  1.0000
  H   H153      1.0  0.41217  0.20665  0.96718  1.0000
  C   C124      1.0  0.18076  0.47045  0.67459  1.0000
  H   H154      1.0  0.29424  0.08276  0.69638  1.0000
  H   H155      1.0  0.11880  0.42361  0.67838  1.0000
  Fe  Fe20      1.0  0.21540  0.46212  0.75282  1.0000
  S   S42       1.0  0.18316  0.41219  0.74627  1.0000
  H   H156      1.0  0.41039  0.32018  0.73576  1.0000
  H   H157      1.0  0.14174  0.41456  0.69519  1.0000
  H   H158      1.0  0.12351  0.47655  0.69946  1.0000
  H   H159      1.0  0.37392  0.11393  0.74017  1.0000
  H   H160      1.0  0.42908  0.26653  0.76548  1.0000
  H   H161      1.0  0.13220  0.47798  0.67185  1.0000
  C   C125      1.0  0.18899  0.28320  0.69480  1.0000
  H   H162      1.0  0.41442  0.20706  0.66709  1.0000
  H   H163      1.0  0.33071  0.03804  0.67789  1.0000
  C   C126      1.0  0.41715  0.27890  0.71502  1.0000
  C   C127      1.0  0.43820  0.29010  0.69719  1.0000
  H   H164      1.0  0.41067  0.19930  0.92931  1.0000
  H   H165      1.0  0.02040  0.28101  0.68960  1.0000
  C   C128      1.0  0.19845  0.40628  0.68449  1.0000
  C   C129      1.0  0.20204  0.41680  0.70469  1.0000
  C   C130      1.0  0.18061  0.39877  0.72096  1.0000
  C   C131      1.0  0.15625  0.36958  0.71696  1.0000
  C   C132      1.0  0.15261  0.35905  0.69668  1.0000
  H   H166      1.0  0.26083  0.33729  0.67673  1.0000
  H   H167      1.0  0.22130  0.43896  0.70759  1.0000
  H   H168      1.0  0.13975  0.35534  0.72953  1.0000
  H   H169      1.0  0.13324  0.33697  0.69364  1.0000
  N   N10       1.0  0.21369  0.31545  0.68938  1.0000
  H   H170      1.0  0.45855  0.21307  0.90841  1.0000
  H   H171      1.0  0.18317  0.32738  0.67480  1.0000
  C   C133      1.0  0.20055  0.32694  0.72538  1.0000
  C   C134      1.0  0.37628  0.24905  0.69163  1.0000
  H   H172      1.0  0.46546  0.33303  0.72754  1.0000
  C   C135      1.0  0.45961  0.31172  0.73712  1.0000
  C   C136      1.0  0.38910  0.18428  0.71800  1.0000
  C   C137      1.0  0.35733  0.16928  0.71528  1.0000
  C   C138      1.0  0.34610  0.16791  0.69530  1.0000
  C   C139      1.0  0.36661  0.18160  0.67779  1.0000
  C   C140      1.0  0.39836  0.19634  0.68051  1.0000
  C   C141      1.0  0.40958  0.19779  0.70049  1.0000
  H   H173      1.0  0.34130  0.15869  0.72873  1.0000
  H   H174      1.0  0.32162  0.15675  0.69352  1.0000
  C   C142      1.0  0.46107  0.22473  0.96780  1.0000
  H   H175      1.0  0.43406  0.20926  0.70230  1.0000
  C   C143      1.0  0.42130  0.26067  0.74943  1.0000
  H   H176      1.0  0.43336  0.13869  0.68505  1.0000
  H   H177      1.0  0.27817  0.05347  0.67837  1.0000
  H   H178      1.0  0.41595  0.30901  0.76148  1.0000
  H   H179      1.0  0.44469  0.28933  0.66390  1.0000
  C   C144      1.0  0.38490  0.11068  0.68058  1.0000
  H   H180      1.0  0.43396  0.25008  0.74243  1.0000
  C   C145      1.0  0.24207  0.31473  0.68350  1.0000
  H   H181      1.0  0.25068  0.30792  0.69727  1.0000
  C   C146      1.0  0.22979  0.37793  0.73795  1.0000
  C   C147      1.0  0.24326  0.36745  0.70400  1.0000
  C   C148      1.0  0.40632  0.12733  0.71393  1.0000
  H   H182      1.0  0.32628  0.11991  0.66780  1.0000
  H   H183      1.0  0.47503  0.30306  0.73181  1.0000
  C   C149      1.0  0.42827  0.28103  0.67726  1.0000
  H   H184      1.0  0.35248  0.23226  0.68943  1.0000
  S   S43       1.0  0.47967  0.18664  0.75795  1.0000
  H   H185      1.0  0.15237  0.46137  0.72502  1.0000
  H   H186      1.0  0.32907  0.08619  0.72025  1.0000
  H   H187      1.0  0.23319  0.39404  0.74973  1.0000
  C   C150      1.0  0.21924  0.33628  0.70644  1.0000
  S   S44       1.0  0.24525  0.47655  0.78044  1.0000
  C   C151      1.0  0.24843  0.38785  0.71958  1.0000
  C   C152      1.0  0.20588  0.34761  0.74081  1.0000
  H   H188      1.0  0.46582  0.31861  0.75331  1.0000
  H   H189      1.0  0.18568  0.26811  0.68171  1.0000
  C   C153      1.0  0.43227  0.20852  0.93678  1.0000
  C   C154      1.0  0.35446  0.09541  0.68983  1.0000
  H   H190      1.0  0.38924  0.11096  0.66398  1.0000
  C   C155      1.0  0.45916  0.21620  0.92504  1.0000
  H   H191      1.0  0.21499  0.42060  0.67199  1.0000
  C   C156      1.0  0.35117  0.09660  0.71179  1.0000
  H   H192      1.0  0.46015  0.22742  0.98434  1.0000
  H   H193      1.0  0.19442  0.27303  0.70855  1.0000
  H   H194      1.0  0.25775  0.37654  0.68978  1.0000
  C   C157      1.0  0.37684  0.11230  0.72355  1.0000
  C   C158      1.0  0.13199  0.42995  0.69267  1.0000
  H   H195      1.0  0.39669  0.24237  0.75103  1.0000
  N   N11       1.0  0.42666  0.28800  0.73636  1.0000
  C   C159      1.0  0.40830  0.30060  0.74579  1.0000
  C   C160      1.0  0.38595  0.25771  0.71163  1.0000
  H   H196      1.0  0.19088  0.34041  0.75490  1.0000
  H   H197      1.0  0.11495  0.42447  0.70597  1.0000
  H   H198      1.0  0.46252  0.30549  0.69822  1.0000
  C   C161      1.0  0.39737  0.26071  0.67448  1.0000
  H   H199      1.0  0.36886  0.24706  0.72448  1.0000
  H   H200      1.0  0.18129  0.30400  0.72854  1.0000
  C   C162      1.0  0.99049  0.26096  0.66473  1.0000
  C   C163      1.0  0.43320  0.21271  0.95811  1.0000
  C   C164      1.0  0.99718  0.27157  0.68462  1.0000
  H   H201      1.0  0.23797  0.29799  0.67138  1.0000
  C   C165      1.0  0.20458  0.32689  0.67096  1.0000
  C   C166      1.0  0.14218  0.48185  0.68740  1.0000
  C   C167      1.0  0.17021  0.46960  0.71190  1.0000
  C   C168      1.0  0.29763  0.06512  0.68870  1.0000
  C   C169      1.0  0.32973  0.05448  0.66629  1.0000
  H   H202      1.0  0.29501  0.04726  0.70066  1.0000
  C   C170      1.0  0.48705  0.22806  0.93457  1.0000
  S   S45       1.0  0.19512  0.49196  0.76012  1.0000
  S   S46       1.0  0.26157  0.53715  0.29949  1.0000
  H   H203      1.0  0.42357  0.73997  0.24775  1.0000
  H   H204      1.0  0.29474  0.66009  0.32085  1.0000
  H   H205      1.0  0.33012  0.51866  0.27026  1.0000
  C   C171      1.0  0.23390  0.51073  0.22026  1.0000
  C   C172      1.0  0.43654  0.70735  0.09014  1.0000
  H   H206      1.0  0.36726  0.64024  0.06642  1.0000
  Fe  Fe21      1.0  0.23064  0.70369  0.28999  1.0000
  S   S47       1.0  0.27131  0.71053  0.30707  1.0000
  S   S48       1.0  0.22089  0.67288  0.26328  1.0000
  H   H207      1.0  0.45285  0.72942  0.08137  1.0000
  H   H208      1.0  0.37210  0.77175  0.26320  1.0000
  C   C173      1.0  0.24916  0.67935  0.03361  1.0000
  Fe  Fe22      1.0  0.27865  0.75711  0.31275  1.0000
  S   S49       1.0  0.32339  0.80158  0.30919  1.0000
  C   C174      1.0  0.25636  0.60104  0.27752  1.0000
  H   H209      1.0  0.37445  0.57384  0.30729  1.0000
  S   S50       1.0  0.24076  0.75214  0.29302  1.0000
  S   S51       1.0  0.19749  0.68546  0.31822  1.0000
  H   H210      1.0  0.17288  0.58172  0.31117  1.0000
  H   H211      1.0  0.36420  0.75240  0.19761  1.0000
  Fe  Fe23      1.0  0.44417  0.75249  0.29990  1.0000
  S   S52       1.0  0.44471  0.79626  0.29088  1.0000
  S   S53       1.0  0.40060  0.70815  0.29873  1.0000
  C   C175      1.0  0.35656  0.75669  0.21234  1.0000
  Fe  Fe24      1.0  0.30558  0.65097  0.11430  1.0000
  S   S54       1.0  0.26232  0.63499  0.13480  1.0000
  S   S55       1.0  0.31221  0.66740  0.07946  1.0000
  Fe  Fe25      1.0  0.34320  0.65753  0.15274  1.0000
  S   S56       1.0  0.30312  0.64167  0.17578  1.0000
  S   S57       1.0  0.39171  0.67741  0.16300  1.0000
  Fe  Fe26      1.0  0.27734  0.60618  0.15305  1.0000
  S   S58       1.0  0.24082  0.55899  0.16616  1.0000
  Fe  Fe27      1.0  0.29115  0.67142  0.15627  1.0000
  S   S59       1.0  0.27543  0.70216  0.17028  1.0000
  S   S60       1.0  0.31869  0.61926  0.13121  1.0000
  S   S61       1.0  0.33319  0.69011  0.13461  1.0000
  H   H212      1.0  0.34047  0.52565  0.29635  1.0000
  C   C176      1.0  0.30992  0.65265  0.05429  1.0000
  C   C177      1.0  0.29937  0.62155  0.05159  1.0000
  C   C178      1.0  0.29719  0.61100  0.03129  1.0000
  C   C179      1.0  0.30570  0.63130  0.01339  1.0000
  C   C180      1.0  0.31648  0.66245  0.01610  1.0000
  C   C181      1.0  0.31855  0.67298  0.03640  1.0000
  H   H213      1.0  0.29255  0.60555  0.06510  1.0000
  H   H214      1.0  0.28881  0.58686  0.02945  1.0000
  H   H215      1.0  0.24932  0.69420  0.00218  1.0000
  H   H216      1.0  0.32676  0.69708  0.03823  1.0000
  C   C182      1.0  0.39808  0.66355  0.23322  1.0000
  C   C183      1.0  0.37228  0.64247  0.22312  1.0000
  C   C184      1.0  0.37007  0.64680  0.20169  1.0000
  C   C185      1.0  0.39410  0.67179  0.19001  1.0000
  C   C186      1.0  0.42042  0.69238  0.19997  1.0000
  C   C187      1.0  0.42221  0.68860  0.22163  1.0000
  H   H217      1.0  0.35401  0.62247  0.23186  1.0000
  H   H218      1.0  0.35014  0.63023  0.19409  1.0000
  H   H219      1.0  0.43934  0.71143  0.19093  1.0000
  H   H220      1.0  0.42408  0.61235  0.26088  1.0000
  C   C188      1.0  0.24212  0.68720  0.23919  1.0000
  C   C189      1.0  0.26054  0.67536  0.23214  1.0000
  C   C190      1.0  0.27208  0.68096  0.21123  1.0000
  C   C191      1.0  0.26441  0.69756  0.19711  1.0000
  C   C192      1.0  0.24712  0.71051  0.20440  1.0000
  C   C193      1.0  0.23595  0.70531  0.22536  1.0000
  H   H221      1.0  0.26481  0.66078  0.24264  1.0000
  H   H222      1.0  0.28615  0.67167  0.20595  1.0000
  H   H223      1.0  0.24138  0.72368  0.19362  1.0000
  H   H224      1.0  0.22117  0.71393  0.23054  1.0000
  C   C194      1.0  0.35635  0.79896  0.30384  1.0000
  C   C195      1.0  0.38326  0.82516  0.29581  1.0000
  C   C196      1.0  0.41018  0.82401  0.29192  1.0000
  C   C197      1.0  0.41057  0.79681  0.29644  1.0000
  C   C198      1.0  0.38369  0.77061  0.30470  1.0000
  C   C199      1.0  0.35648  0.77156  0.30811  1.0000
  H   H225      1.0  0.38327  0.84643  0.29255  1.0000
  H   H226      1.0  0.43084  0.84435  0.28557  1.0000
  H   H227      1.0  0.38390  0.74986  0.30892  1.0000
  H   H228      1.0  0.33598  0.75151  0.31475  1.0000
  C   C200      1.0  0.26440  0.52428  0.22582  1.0000
  C   C201      1.0  0.28757  0.54870  0.21304  1.0000
  C   C202      1.0  0.28043  0.55960  0.19486  1.0000
  C   C203      1.0  0.25011  0.54562  0.18900  1.0000
  C   C204      1.0  0.22684  0.52118  0.20174  1.0000
  H   H229      1.0  0.39153  0.67518  0.00321  1.0000
  H   H230      1.0  0.31114  0.55944  0.21720  1.0000
  H   H231      1.0  0.29852  0.57837  0.18512  1.0000
  H   H232      1.0  0.41244  0.74285  0.08165  1.0000
  H   H233      1.0  0.24625  0.56901  0.23096  1.0000
  H   H234      1.0  0.37285  0.71349  0.08502  1.0000
  C   C205      1.0  0.28726  0.60955  0.23880  1.0000
  H   H235      1.0  0.35971  0.65959  0.09660  1.0000
  H   H236      1.0  0.26238  0.64511  0.30502  1.0000
  C   C206      1.0  0.30194  0.62981  0.25430  1.0000
  Fe  Fe28      1.0  0.24944  0.49803  0.27912  1.0000
  H   H237      1.0  0.31916  0.61833  0.30239  1.0000
  C   C207      1.0  0.38119  0.66003  0.05583  1.0000
  H   H238      1.0  0.24298  0.59604  0.29210  1.0000
  H   H239      1.0  0.42935  0.81124  0.22313  1.0000
  C   C208      1.0  0.39635  0.72022  0.08981  1.0000
  C   C209      1.0  0.32806  0.64283  0.29711  1.0000
  C   C210      1.0  0.40062  0.68989  0.06278  1.0000
  H   H240      1.0  0.34591  0.64881  0.28432  1.0000
  C   C211      1.0  0.32910  0.75731  0.21254  1.0000
  C   C212      1.0  0.25749  0.58498  0.24277  1.0000
  C   C213      1.0  0.38587  0.58180  0.29137  1.0000
  H   H241      1.0  0.29920  0.61252  0.22378  1.0000
  C   C214      1.0  0.37878  0.57463  0.25358  1.0000
  C   C215      1.0  0.36176  0.55956  0.23637  1.0000
  C   C216      1.0  0.40947  0.59897  0.24895  1.0000
  C   C217      1.0  0.24508  0.67472  0.01237  1.0000
  C   C218      1.0  0.42172  0.60807  0.22837  1.0000
  H   H242      1.0  0.36701  0.52477  0.27724  1.0000
  H   H243      1.0  0.32116  0.56150  0.26591  1.0000
  H   H244      1.0  0.34903  0.59904  0.27261  1.0000
  H   H245      1.0  0.45031  0.79551  0.23595  1.0000
  H   H246      1.0  0.44253  0.70452  0.22922  1.0000
  C   C219      1.0  0.23611  0.62663  0.04021  1.0000
  H   H247      1.0  0.29546  0.76212  0.23096  1.0000
  H   H248      1.0  0.32648  0.69659  0.29456  1.0000
  H   H249      1.0  0.27439  0.62013  0.31729  1.0000
  N   N12       1.0  0.30290  0.64775  0.29040  1.0000
  C   C220      1.0  0.41710  0.71403  0.04713  1.0000
  H   H250      1.0  0.38298  0.71662  0.24522  1.0000
  H   H251      1.0  0.26418  0.85690  0.30785  1.0000
  H   H252      1.0  0.33448  0.68702  0.26979  1.0000
  S   S62       1.0  0.27486  0.50968  0.24747  1.0000
  C   C221      1.0  0.41388  0.70873  0.02590  1.0000
  H   H253      1.0  0.39001  0.65026  0.09772  1.0000
  C   C222      1.0  0.28265  0.64304  0.30914  1.0000
  H   H254      1.0  0.29779  0.68385  0.27553  1.0000
  H   H255      1.0  0.39674  0.72403  0.10678  1.0000
  C   C223      1.0  0.33261  0.76689  0.24906  1.0000
  S   S63       1.0  0.39934  0.65664  0.26015  1.0000
  C   C224      1.0  0.19991  0.56632  0.32740  1.0000
  N   N13       1.0  0.40424  0.69623  0.08516  1.0000
  C   C225      1.0  0.37318  0.76161  0.23062  1.0000
  H   H256      1.0  0.22690  0.59932  0.01439  1.0000
  H   H257      1.0  0.44472  0.62752  0.22521  1.0000
  H   H258      1.0  0.31702  0.75392  0.19833  1.0000
  C   C226      1.0  0.25651  0.85006  0.32414  1.0000
  C   C227      1.0  0.31597  0.68014  0.28218  1.0000
  C   C228      1.0  0.39447  0.67926  0.01965  1.0000
  N   N14       1.0  0.36411  0.56601  0.27502  1.0000
  N   N15       1.0  0.19286  0.59574  0.20244  1.0000
  C   C229      1.0  0.19035  0.62379  0.19904  1.0000
  C   C230      1.0  0.22570  0.60497  0.20031  1.0000
  C   C231      1.0  0.17681  0.57522  0.18552  1.0000
  C   C232      1.0  0.18033  0.57993  0.22335  1.0000
  C   C233      1.0  0.17344  0.54913  0.22759  1.0000
  C   C234      1.0  0.17734  0.59540  0.24053  1.0000
  C   C235      1.0  0.16254  0.53429  0.24746  1.0000
  C   C236      1.0  0.16684  0.58051  0.26038  1.0000
  C   C237      1.0  0.15911  0.54992  0.26381  1.0000
  H   H259      1.0  0.20537  0.64226  0.20912  1.0000
  H   H260      1.0  0.19822  0.63440  0.18285  1.0000
  H   H261      1.0  0.16629  0.61860  0.20203  1.0000
  H   H262      1.0  0.22888  0.58470  0.20093  1.0000
  H   H263      1.0  0.23840  0.61912  0.21322  1.0000
  H   H264      1.0  0.23680  0.61832  0.18524  1.0000
  H   H265      1.0  0.15147  0.56478  0.18788  1.0000
  H   H266      1.0  0.18415  0.58779  0.16986  1.0000
  H   H267      1.0  0.18225  0.55645  0.18423  1.0000
  H   H268      1.0  0.17701  0.53639  0.21577  1.0000
  H   H269      1.0  0.18349  0.61928  0.23921  1.0000
  C   C238      1.0  0.42746  0.79387  0.23525  1.0000
  H   H270      1.0  0.16521  0.59305  0.27326  1.0000
  H   H271      1.0  0.15750  0.51080  0.25039  1.0000
  C   C239      1.0  0.24465  0.65533  0.04750  1.0000
  S   S64       1.0  0.43826  0.67416  0.31308  1.0000
  C   C240      1.0  0.33966  0.57418  0.27666  1.0000
  H   H272      1.0  0.33975  0.65690  0.31038  1.0000
  H   H273      1.0  0.24440  0.88455  0.32756  1.0000
  H   H274      1.0  0.39511  0.60712  0.29002  1.0000
  H   H275      1.0  0.32870  0.56892  0.29275  1.0000
  Fe  Fe29      1.0  0.21270  0.50947  0.31214  1.0000
  N   N16       1.0  0.40303  0.76249  0.23090  1.0000
  C   C241      1.0  0.40168  0.74044  0.24751  1.0000
  C   C242      1.0  0.41223  0.75456  0.21093  1.0000
  H   H276      1.0  0.36037  0.55723  0.20300  1.0000
  Fe  Fe30      1.0  0.21172  0.73467  0.32327  1.0000
  Fe  Fe31      1.0  0.26997  0.50924  0.32345  1.0000
  H   H277      1.0  0.39810  0.74658  0.26335  1.0000
  H   H278      1.0  0.39471  0.73110  0.20675  1.0000
  H   H279      1.0  0.25641  0.70181  0.03934  1.0000
  H   H280      1.0  0.41577  0.77138  0.19786  1.0000
  H   H281      1.0  0.43433  0.75464  0.21185  1.0000
  C   C243      1.0  0.37424  0.56873  0.21586  1.0000
  H   H282      1.0  0.42301  0.80099  0.25053  1.0000
  H   H283      1.0  0.32546  0.64784  0.25079  1.0000
  H   H284      1.0  0.43981  0.71131  0.10705  1.0000
  H   H285      1.0  0.38705  0.67437  0.11615  1.0000
  C   C244      1.0  0.36040  0.76694  0.24892  1.0000
  H   H286      1.0  0.23363  0.60831  0.05102  1.0000
  C   C245      1.0  0.28671  0.62646  0.27405  1.0000
  Fe  Fe32      1.0  0.42849  0.69092  0.28297  1.0000
  H   H287      1.0  0.40537  0.57732  0.29067  1.0000
  H   H288      1.0  0.32328  0.67845  0.00261  1.0000
  H   H289      1.0  0.43243  0.73726  0.05119  1.0000
  H   H290      1.0  0.21956  0.56081  0.26545  1.0000
  C   C246      1.0  0.37841  0.65498  0.03456  1.0000
  C   C247      1.0  0.34995  0.53238  0.27985  1.0000
  C   C248      1.0  0.38439  0.66884  0.09945  1.0000
  H   H291      1.0  0.44355  0.69026  0.08627  1.0000
  C   C249      1.0  0.31697  0.76206  0.23088  1.0000
  C   C250      1.0  0.40409  0.59313  0.21185  1.0000
  H   H292      1.0  0.32338  0.77109  0.26328  1.0000
  C   C251      1.0  0.23640  0.64574  0.00438  1.0000
  S   S65       1.0  0.18377  0.53161  0.31493  1.0000
  H   H293      1.0  0.36299  0.63216  0.02957  1.0000
  H   H294      1.0  0.33830  0.54102  0.23860  1.0000
  H   H295      1.0  0.24872  0.65918  0.06388  1.0000
  C   C252      1.0  0.24227  0.58055  0.26212  1.0000
  H   H296      1.0  0.20337  0.51012  0.19719  1.0000
  H   H297      1.0  0.41340  0.60079  0.19591  1.0000
  C   C253      1.0  0.23225  0.62179  0.01898  1.0000
  S   S66       1.0  0.47198  0.73677  0.28158  1.0000
  H   H298      1.0  0.42631  0.72756  0.01420  1.0000
  H   H299      1.0  0.15132  0.53860  0.27931  1.0000
  H   H300      1.0  0.26584  0.81272  0.32440  1.0000
  H   H301      1.0  0.19553  0.63141  0.32714  1.0000
  C   C254      1.0  0.19023  0.58725  0.32233  1.0000
  Fe  Fe33      1.0  0.47969  0.72180  0.31343  1.0000
  Fe  Fe34      1.0  0.41314  0.69482  0.32866  1.0000
  Fe  Fe35      1.0  0.13796  0.84566  0.46615  1.0000
  S   S67       1.0  0.11944  0.87173  0.44900  1.0000
  S   S68       1.0  0.16075  0.86226  0.49619  1.0000
  Fe  Fe36      1.0  0.13152  0.80632  0.42965  1.0000
  S   S69       1.0  0.11250  0.82926  0.40915  1.0000
  S   S70       1.0  0.14288  0.76941  0.42243  1.0000
  Fe  Fe37      1.0  0.14877  0.87322  0.42161  1.0000
  S   S71       1.0  0.18234  0.91664  0.40267  1.0000
  Fe  Fe38      1.0  0.08444  0.82568  0.43833  1.0000
  S   S72       1.0  0.03556  0.81600  0.44010  1.0000
  S   S73       1.0  0.17005  0.85045  0.43958  1.0000
  S   S74       1.0  0.10056  0.79924  0.45796  1.0000
  Fe  Fe39      1.0  0.10376  0.81108  0.61106  1.0000
  S   S75       1.0  0.07865  0.83174  0.62637  1.0000
  S   S76       1.0  0.08694  0.79030  0.58034  1.0000
  Fe  Fe40      1.0  0.07322  0.80169  0.65450  1.0000
  H   H302      1.0  0.18392  0.88124  0.36814  1.0000
  Fe  Fe41      1.0  0.12372  0.86594  0.63849  1.0000
  S   S77       1.0  0.12778  0.91305  0.63795  1.0000
  S   S78       1.0  0.09520  0.77830  0.63848  1.0000
  S   S79       1.0  0.14987  0.84773  0.62052  1.0000
  C   C255      1.0  0.16319  0.94802  0.63763  1.0000
  H   H303      1.0  0.09322  0.72864  0.35963  1.0000
  S   S80       1.0  0.31383  0.52806  0.33980  1.0000
  H   H304      1.0  0.30765  0.67785  0.35831  1.0000
  C   C256      1.0  0.15915  0.93001  0.50183  1.0000
  C   C257      1.0  0.32938  0.56710  0.34404  1.0000
  C   C258      1.0  0.18219  0.94959  0.41080  1.0000
  H   H305      1.0  0.03629  0.79018  0.51364  1.0000
  C   C259      1.0  0.15545  0.94734  0.41986  1.0000
  S   S81       1.0  0.25053  0.74219  0.34311  1.0000
  H   H306      1.0  0.13433  0.92545  0.42122  1.0000
  C   C260      1.0  0.13911  0.84314  0.51946  1.0000
  C   C261      1.0  0.11061  0.81625  0.51919  1.0000
  C   C262      1.0  0.09454  0.80049  0.53802  1.0000
  C   C263      1.0  0.10663  0.81184  0.55716  1.0000
  C   C264      1.0  0.13483  0.83909  0.55742  1.0000
  C   C265      1.0  0.15115  0.85460  0.53857  1.0000
  H   H307      1.0  0.10114  0.80729  0.50453  1.0000
  H   H308      1.0  0.07291  0.77919  0.53782  1.0000
  H   H309      1.0  0.14432  0.84784  0.57214  1.0000
  H   H310      1.0  0.17323  0.87539  0.53885  1.0000
  C   C266      1.0  0.14929  0.96379  0.48049  1.0000
  H   H311      1.0  0.02620  0.76732  0.62800  1.0000
  H   H312      1.0  0.39291  0.74034  0.35870  1.0000
  H   H313      1.0  0.15564  0.78981  0.34618  1.0000
  H   H314      1.0  0.36148  0.70350  0.38132  1.0000
  H   H315      1.0  0.03147  0.75869  0.42863  1.0000
  H   H316      1.0  0.19989  0.97397  0.45840  1.0000
  C   C267      1.0  0.07852  0.73939  0.35863  1.0000
  C   C268      1.0  0.15911  0.77823  0.35944  1.0000
  C   C269      1.0  0.15088  0.78213  0.37975  1.0000
  C   C270      1.0  0.15481  0.76668  0.39685  1.0000
  C   C271      1.0  0.16760  0.74789  0.39356  1.0000
  C   C272      1.0  0.17630  0.74439  0.37328  1.0000
  H   H317      1.0  0.14100  0.79660  0.38213  1.0000
  H   H318      1.0  0.17060  0.73576  0.40672  1.0000
  H   H319      1.0  0.18586  0.72961  0.37086  1.0000
  H   H320      1.0  0.05127  0.72652  0.40930  1.0000
  H   H321      1.0  0.37517  0.57466  0.34678  1.0000
  C   C273      1.0  0.22534  0.62305  0.34601  1.0000
  H   H322      1.0  0.13259  0.94387  0.47197  1.0000
  C   C274      1.0  0.17173  0.75927  0.35613  1.0000
  C   C275      1.0  0.23571  0.83121  0.36584  1.0000
  C   C276      1.0  0.00554  0.78192  0.43124  1.0000
  H   H323      1.0  0.14305  0.90996  0.49315  1.0000
  C   C277      1.0  0.04008  0.87546  0.62509  1.0000
  C   C278      1.0  0.35285  0.77866  0.36120  1.0000
  C   C279      1.0  0.99056  0.76571  0.50265  1.0000
  H   H324      1.0  0.25044  0.91806  0.35156  1.0000
  H   H325      1.0  0.42394  0.83459  0.34221  1.0000
  C   C280      1.0  0.41138  0.78792  0.35091  1.0000
  C   C281      1.0  0.99717  0.76345  0.65468  1.0000
  H   H326      1.0  0.26785  0.91119  0.37353  1.0000
  C   C282      1.0  0.15574  0.97365  0.42664  1.0000
  H   H327      1.0  0.25167  0.60726  0.36295  1.0000
  H   H328      1.0  0.13487  0.97176  0.43343  1.0000
  C   C283      1.0  0.00042  0.77237  0.37110  1.0000
  Fe  Fe42      1.0  0.13938  0.81611  0.64947  1.0000
  C   C284      1.0  0.32380  0.70244  0.35327  1.0000
  H   H329      1.0  0.33059  0.77650  0.36402  1.0000
  C   C285      1.0  0.24568  0.90719  0.36763  1.0000
  C   C286      1.0  0.16313  0.97594  0.63621  1.0000
  C   C287      1.0  0.03325  0.84893  0.65867  1.0000
  H   H330      1.0  0.17490  0.93360  0.46218  1.0000
  C   C288      1.0  0.21482  0.86328  0.39106  1.0000
  H   H331      1.0  0.19016  0.96369  0.53033  1.0000
  H   H332      1.0  0.20695  0.87716  0.39958  1.0000
  N   N17       1.0  0.17167  0.78191  0.49844  1.0000
  C   C289      1.0  0.18152  0.76010  0.49181  1.0000
  C   C290      1.0  0.15330  0.78525  0.48206  1.0000
  C   C291      1.0  0.19974  0.81243  0.49968  1.0000
  C   C292      1.0  0.15278  0.76993  0.51838  1.0000
  C   C293      1.0  0.12465  0.74147  0.51953  1.0000
  C   C294      1.0  0.16144  0.78574  0.53705  1.0000
  C   C295      1.0  0.10616  0.72986  0.53807  1.0000
  C   C296      1.0  0.14294  0.77367  0.55555  1.0000
  C   C297      1.0  0.11527  0.74599  0.55602  1.0000
  H   H333      1.0  0.16169  0.73733  0.48870  1.0000
  H   H334      1.0  0.19642  0.76875  0.47710  1.0000
  H   H335      1.0  0.19457  0.75617  0.50404  1.0000
  H   H336      1.0  0.14430  0.80030  0.48706  1.0000
  H   H337      1.0  0.13335  0.76295  0.47837  1.0000
  H   H338      1.0  0.16710  0.79557  0.46703  1.0000
  H   H339      1.0  0.21547  0.81149  0.51107  1.0000
  H   H340      1.0  0.21309  0.82114  0.48438  1.0000
  H   H341      1.0  0.19378  0.83007  0.50421  1.0000
  H   H342      1.0  0.11653  0.72815  0.50601  1.0000
  H   H343      1.0  0.18195  0.80784  0.53776  1.0000
  H   H344      1.0  0.08442  0.70847  0.53850  1.0000
  H   H345      1.0  0.14936  0.78649  0.56949  1.0000
  H   H346      1.0  0.10053  0.73752  0.57026  1.0000
  S   S82       1.0  0.18038  0.75398  0.33034  1.0000
  H   H347      1.0  0.04226  0.81359  0.37665  1.0000
  C   C298      1.0  0.32393  0.61199  0.34750  1.0000
  H   H348      1.0  0.03388  0.88997  0.61523  1.0000
  C   C299      1.0  0.03543  0.74239  0.37362  1.0000
  C   C300      1.0  0.21878  0.97694  0.63891  1.0000
  C   C301      1.0  0.00361  0.72599  0.36984  1.0000
  C   C302      1.0  0.20913  0.97838  0.40833  1.0000
  H   H349      1.0  0.24697  0.79571  0.36114  1.0000
  C   C303      1.0  0.35567  0.63015  0.34934  1.0000
  C   C304      1.0  0.23452  0.60173  0.35162  1.0000
  C   C305      1.0  0.06881  0.73399  0.39604  1.0000
  H   H350      1.0  0.22966  0.55736  0.34610  1.0000
  H   H351      1.0  0.14534  0.93110  0.51529  1.0000
  S   S83       1.0  0.37235  0.66982  0.35150  1.0000
  N   N18       1.0  0.17406  0.95899  0.48832  1.0000
  H   H352      1.0  0.29325  0.72768  0.36844  1.0000
  H   H353      1.0  0.28645  0.56666  0.34252  1.0000
  H   H354      1.0  0.30958  0.62233  0.34804  1.0000
  H   H355      1.0  0.17638  0.92434  0.50781  1.0000
  H   H356      1.0  0.06565  0.88726  0.62484  1.0000
  H   H357      1.0  0.17678  0.84497  0.35917  1.0000
  H   H358      1.0  0.01749  0.68278  0.38763  1.0000
  H   H359      1.0  0.15834  0.98435  0.46942  1.0000
  N   N19       1.0  0.05416  0.72734  0.37576  1.0000
  C   C306      1.0  0.31086  0.58054  0.34437  1.0000
  C   C307      1.0  0.00944  0.75705  0.42683  1.0000
  C   C308      1.0  0.25749  0.82513  0.33343  1.0000
  C   C309      1.0  0.36085  0.58505  0.34676  1.0000
  H   H360      1.0  0.19572  0.83904  0.39327  1.0000
  N   N20       1.0  0.22261  0.87384  0.36864  1.0000
  C   C310      1.0  0.20137  0.98488  0.52065  1.0000
  H   H361      1.0  0.28739  0.69778  0.38659  1.0000
  H   H362      1.0  0.25126  0.86362  0.65184  1.0000
  H   H363      1.0  0.03715  0.91726  0.64811  1.0000
  C   C311      1.0  0.19588  0.98629  0.49916  1.0000
  S   S84       1.0  0.24277  0.65958  0.35638  1.0000
  H   H364      1.0  0.09421  0.76459  0.35884  1.0000
  C   C312      1.0  0.37665  0.80769  0.35373  1.0000
  C   C313      1.0  0.03164  0.78920  0.37439  1.0000
  C   C314      1.0  0.20318  0.61559  0.33137  1.0000
  C   C315      1.0  0.04902  0.77458  0.37536  1.0000
  C   C316      1.0  0.22221  0.57356  0.34202  1.0000
  C   C317      1.0  0.19436  0.86975  0.35931  1.0000
  C   C318      1.0  0.23473  0.85700  0.35690  1.0000
  N   N21       1.0  0.02612  0.87009  0.64666  1.0000
  H   H365      1.0  0.23763  0.92019  0.37716  1.0000
  N   N22       1.0  0.33293  0.72208  0.37123  1.0000
  C   C319      1.0  0.30503  0.72137  0.38035  1.0000
  C   C320      1.0  0.34364  0.70841  0.38751  1.0000
  C   C321      1.0  0.35782  0.75334  0.36401  1.0000
  C   C322      1.0  0.19041  0.95446  0.47039  1.0000
  C   C323      1.0  0.38773  0.75878  0.35825  1.0000
  H   H366      1.0  0.28313  0.84106  0.65990  1.0000
  C   C324      1.0  0.00343  0.76190  0.63357  1.0000
  H   H367      1.0  0.07315  0.78866  0.37782  1.0000
  C   C325      1.0  0.37410  0.61669  0.34891  1.0000
  H   H368      1.0  0.31066  0.73694  0.39333  1.0000
  H   H369      1.0  0.35332  0.72390  0.40047  1.0000
  H   H370      1.0  0.32473  0.68576  0.39422  1.0000
  H   H371      1.0  0.03280  0.85373  0.61731  1.0000
  H   H372      1.0  0.08535  0.75881  0.39728  1.0000
  H   H373      1.0  0.23507  0.86549  0.39899  1.0000
  H   H374      1.0  0.19888  0.87962  0.34295  1.0000
  C   C326      1.0  0.01197  0.77573  0.51802  1.0000
  H   H375      1.0  0.02529  0.82700  0.65109  1.0000
  C   C327      1.0  0.19115  0.94861  0.63893  1.0000
  C   C328      1.0  0.23088  0.50765  0.65724  1.0000
  H   H376      1.0  0.13641  0.96720  0.49351  1.0000
  H   H377      1.0  0.39856  0.63060  0.35064  1.0000
  H   H378      1.0  0.20981  0.95171  0.47559  1.0000
  H   H379      1.0  0.22981  0.98034  0.40114  1.0000
  H   H380      1.0  0.08232  0.72219  0.39854  1.0000
  H   H381      1.0  0.22721  0.82197  0.38162  1.0000
  H   H382      1.0  0.14159  0.97566  0.63524  1.0000
  H   H383      1.0  0.37209  0.82640  0.35099  1.0000
  H   H384      1.0  0.34389  0.70357  0.34472  1.0000
  H   H385      1.0  0.43381  0.79134  0.34611  1.0000
  C   C329      1.0  0.24707  0.81573  0.35420  1.0000
  H   H386      1.0  0.19145  0.92726  0.64004  1.0000
  H   H387      1.0  0.01891  0.77533  0.55090  1.0000
  C   C330      1.0  0.03612  0.69337  0.37496  1.0000
  H   H388      1.0  0.05079  0.68275  0.37696  1.0000
  H   H389      1.0  0.24030  0.97721  0.64000  1.0000
  C   C331      1.0  0.40585  0.81233  0.34868  1.0000
  H   H390      1.0  0.31218  0.70969  0.34185  1.0000
  H   H391      1.0  0.99099  0.70147  0.36840  1.0000
  H   H392      1.0  0.99930  0.77300  0.48659  1.0000
  S   S85       1.0  0.17390  0.80220  0.65925  1.0000
  C   C332      1.0  0.00223  0.76745  0.53901  1.0000
  H   H393      1.0  0.25143  0.53017  0.65647  1.0000
  C   C333      1.0  0.24522  0.86575  0.33561  1.0000
  C   C334      1.0  0.04134  0.90004  0.65647  1.0000
  Fe  Fe43      1.0  0.23897  0.69443  0.33541  1.0000
  C   C335      1.0  0.99233  0.85600  0.64616  1.0000
  H   H394      1.0  0.06682  0.91011  0.65610  1.0000
  H   H395      1.0  0.05845  0.85904  0.66019  1.0000
  S   S86       1.0  0.45482  0.74113  0.33151  1.0000
  H   H396      1.0  0.02574  0.68652  0.35966  1.0000
  H   H397      1.0  0.06846  0.73496  0.34310  1.0000
  H   H398      1.0  0.31842  0.49433  0.39633  1.0000
  H   H399      1.0  0.24591  0.49241  0.63088  1.0000
  Fe  Fe44      1.0  0.45478  0.70676  0.78139  1.0000
  S   S87       1.0  0.41579  0.70600  0.76540  1.0000
  S   S88       1.0  0.44486  0.67824  0.81170  1.0000
  S   S89       1.0  0.02683  0.77623  0.67204  1.0000
  S   S90       1.0  0.46614  0.74917  0.72676  1.0000
  Fe  Fe45      1.0  0.44840  0.75595  0.75738  1.0000
  S   S91       1.0  0.43017  0.78771  0.76301  1.0000
  Fe  Fe46      1.0  0.43678  0.69890  0.73648  1.0000
  S   S92       1.0  0.40464  0.66470  0.71496  1.0000
  C   C336      1.0  0.26389  0.56957  0.86369  1.0000
  C   C337      1.0  0.27154  0.84509  0.67276  1.0000
  Fe  Fe47      1.0  0.26756  0.73199  0.74421  1.0000
  S   S93       1.0  0.26760  0.76573  0.76582  1.0000
  S   S94       1.0  0.30522  0.74357  0.71989  1.0000
  Fe  Fe48      1.0  0.20694  0.68037  0.76288  1.0000
  S   S95       1.0  0.20212  0.70968  0.78645  1.0000
  S   S96       1.0  0.17150  0.63067  0.76177  1.0000
  Fe  Fe49      1.0  0.21782  0.74490  0.75917  1.0000
  S   S97       1.0  0.19509  0.77323  0.75244  1.0000
  Fe  Fe50      1.0  0.25235  0.72737  0.79065  1.0000
  S   S98       1.0  0.28191  0.73682  0.81818  1.0000
  S   S99       1.0  0.21913  0.71396  0.73552  1.0000
  S   S100      1.0  0.25556  0.69499  0.76918  1.0000
  Fe  Fe51      1.0  0.29911  0.59831  0.91167  1.0000
  S   S101      1.0  0.31276  0.64101  0.89162  1.0000
  S   S102      1.0  0.28517  0.55288  0.89774  1.0000
  Fe  Fe52      1.0  0.30981  0.63102  0.95304  1.0000
  S   S103      1.0  0.32473  0.67676  0.93581  1.0000
  Fe  Fe53      1.0  0.28543  0.65024  0.91549  1.0000
  S   S104      1.0  0.25101  0.66451  0.90669  1.0000
  Fe  Fe54      1.0  0.35090  0.66393  0.91298  1.0000
  S   S105      1.0  0.39898  0.69785  0.89976  1.0000
  S   S106      1.0  0.26846  0.60539  0.93401  1.0000
  S   S107      1.0  0.33948  0.62043  0.93172  1.0000
  S   S108      1.0  0.21801  0.52915  0.81336  1.0000
  Fe  Fe55      1.0  0.28017  0.51333  0.75754  1.0000
  H   H400      1.0  0.35802  0.54790  0.79721  1.0000
  H   H401      1.0  0.14591  0.65100  0.72572  1.0000
  H   H402      1.0  0.07551  0.73684  0.72382  1.0000
  H   H403      1.0  0.16022  0.71340  0.74116  1.0000
  H   H404      1.0  0.02193  0.84292  0.67467  1.0000
  C   C338      1.0  0.18715  0.77914  0.72657  1.0000
  C   C339      1.0  0.17013  0.79384  0.72283  1.0000
  C   C340      1.0  0.16505  0.80033  0.70228  1.0000
  C   C341      1.0  0.17733  0.79245  0.68536  1.0000
  C   C342      1.0  0.19382  0.77723  0.68915  1.0000
  C   C343      1.0  0.19843  0.77031  0.70965  1.0000
  H   H405      1.0  0.16119  0.80064  0.73584  1.0000
  H   H406      1.0  0.15230  0.81206  0.69954  1.0000
  S   S109      1.0  0.47363  0.69560  0.75293  1.0000
  H   H407      1.0  0.21140  0.75893  0.71231  1.0000
  C   C344      1.0  0.25843  0.68288  0.88148  1.0000
  C   C345      1.0  0.28634  0.69237  0.87037  1.0000
  C   C346      1.0  0.29241  0.70741  0.85051  1.0000
  C   C347      1.0  0.27076  0.71324  0.84149  1.0000
  C   C348      1.0  0.24247  0.70327  0.85234  1.0000
  C   C349      1.0  0.23637  0.68821  0.87237  1.0000
  H   H408      1.0  0.30386  0.68927  0.87736  1.0000
  H   H409      1.0  0.31448  0.71542  0.84240  1.0000
  H   H410      1.0  0.22589  0.70832  0.84572  1.0000
  H   H411      1.0  0.21476  0.68109  0.88093  1.0000
  C   C350      1.0  0.26070  0.52008  0.86336  1.0000
  H   H412      1.0  0.09792  0.63112  0.74526  1.0000
  C   C351      1.0  0.20909  0.60551  0.85968  1.0000
  C   C352      1.0  0.21265  0.57956  0.72886  1.0000
  C   C353      1.0  0.19048  0.56490  0.74540  1.0000
  C   C354      1.0  0.17713  0.58035  0.75500  1.0000
  C   C355      1.0  0.18689  0.61096  0.74869  1.0000
  C   C356      1.0  0.20931  0.62578  0.73231  1.0000
  C   C357      1.0  0.22168  0.60986  0.72212  1.0000
  H   H413      1.0  0.18316  0.54147  0.75059  1.0000
  H   H414      1.0  0.15974  0.56876  0.76761  1.0000
  H   H415      1.0  0.21688  0.64940  0.72732  1.0000
  H   H416      1.0  0.23869  0.62121  0.70925  1.0000
  C   C358      1.0  0.43222  0.68763  0.83472  1.0000
  C   C359      1.0  0.40105  0.67806  0.83886  1.0000
  C   C360      1.0  0.39039  0.68084  0.85878  1.0000
  C   C361      1.0  0.41090  0.69332  0.87462  1.0000
  C   C362      1.0  0.44210  0.70355  0.87024  1.0000
  C   C363      1.0  0.45262  0.70030  0.85053  1.0000
  H   H417      1.0  0.38500  0.66757  0.82693  1.0000
  H   H418      1.0  0.36635  0.67320  0.86188  1.0000
  H   H419      1.0  0.45812  0.71330  0.88233  1.0000
  C   C364      1.0  0.28935  0.81136  0.72064  1.0000
  C   C365      1.0  0.39564  0.77549  0.75087  1.0000
  C   C366      1.0  0.39100  0.76198  0.73172  1.0000
  C   C367      1.0  0.36346  0.75288  0.72196  1.0000
  C   C368      1.0  0.34016  0.75630  0.73169  1.0000
  C   C369      1.0  0.34452  0.76902  0.75111  1.0000
  C   C370      1.0  0.37243  0.77910  0.76051  1.0000
  H   H420      1.0  0.40890  0.75913  0.72422  1.0000
  H   H421      1.0  0.36011  0.74282  0.70702  1.0000
  H   H422      1.0  0.32662  0.77150  0.75884  1.0000
  H   H423      1.0  0.37587  0.78940  0.77536  1.0000
  C   C371      1.0  0.38487  0.62715  0.72663  1.0000
  C   C372      1.0  0.39746  0.61829  0.74269  1.0000
  C   C373      1.0  0.38126  0.58829  0.75199  1.0000
  C   C374      1.0  0.35179  0.56755  0.74598  1.0000
  C   C375      1.0  0.33903  0.57651  0.73008  1.0000
  C   C376      1.0  0.35585  0.60607  0.72012  1.0000
  H   H424      1.0  0.41994  0.63436  0.74768  1.0000
  H   H425      1.0  0.39137  0.58138  0.76411  1.0000
  H   H426      1.0  0.31638  0.56052  0.72526  1.0000
  H   H427      1.0  0.34613  0.61280  0.70762  1.0000
  N   N23       1.0  0.29187  0.82141  0.69828  1.0000
  H   H428      1.0  0.26459  0.50272  0.87072  1.0000
  C   C377      1.0  0.25781  0.84317  0.70950  1.0000
  H   H429      1.0  0.20331  0.77105  0.67612  1.0000
  C   C378      1.0  0.27365  0.83645  0.69367  1.0000
  H   H430      1.0  0.29866  0.83113  0.73077  1.0000
  H   H431      1.0  0.27071  0.68690  0.97207  1.0000
  H   H432      1.0  0.22760  0.86075  0.71674  1.0000
  H   H433      1.0  0.21685  0.67407  0.97631  1.0000
  H   H434      1.0  0.30262  0.79944  0.72359  1.0000
  H   H435      1.0  0.22159  0.63022  0.85950  1.0000
  H   H436      1.0  0.25753  0.83714  0.72585  1.0000
  H   H437      1.0  0.16826  0.51650  0.86380  1.0000
  C   C379      1.0  0.19391  0.55782  0.87976  1.0000
  C   C380      1.0  0.16191  0.59482  0.81718  1.0000
  H   H438      1.0  0.28054  0.65741  0.97522  1.0000
  H   H439      1.0  0.03356  0.89748  0.67321  1.0000
  C   C381      1.0  0.26239  0.66222  0.97002  1.0000
  S   S110      1.0  0.48625  0.75765  0.77582  1.0000
  H   H440      1.0  0.44712  0.82199  0.82556  1.0000
  C   C382      1.0  0.25378  0.85851  0.66795  1.0000
  H   H441      1.0  0.21908  0.60718  0.95907  1.0000
  N   N24       1.0  0.23266  0.64161  0.98175  1.0000
  C   C383      1.0  0.20955  0.64951  0.97464  1.0000
  N   N25       1.0  0.35696  0.57912  0.81892  1.0000
  C   C384      1.0  0.36540  0.60482  0.80317  1.0000
  C   C385      1.0  0.36929  0.55968  0.81134  1.0000
  C   C386      1.0  0.32288  0.55981  0.82051  1.0000
  H   H442      1.0  0.35494  0.59634  0.78810  1.0000
  H   H443      1.0  0.35758  0.62059  0.80867  1.0000
  H   H444      1.0  0.07882  0.65269  0.74800  1.0000
  H   H445      1.0  0.33929  0.83279  0.69607  1.0000
  H   H446      1.0  0.36555  0.54158  0.82349  1.0000
  H   H447      1.0  0.31174  0.57330  0.82481  1.0000
  H   H448      1.0  0.31365  0.54986  0.80540  1.0000
  H   H449      1.0  0.31498  0.54007  0.83225  1.0000
  N   N26       1.0  0.42147  0.77254  0.82623  1.0000
  C   C387      1.0  0.40588  0.74849  0.81128  1.0000
  C   C388      1.0  0.43728  0.80318  0.81468  1.0000
  C   C389      1.0  0.44566  0.76798  0.83547  1.0000
  C   C390      1.0  0.39820  0.77057  0.84188  1.0000
  C   C391      1.0  0.39585  0.75947  0.86295  1.0000
  C   C392      1.0  0.37588  0.77833  0.83593  1.0000
  C   C393      1.0  0.37300  0.75703  0.87716  1.0000
  C   C394      1.0  0.35350  0.77638  0.85037  1.0000
  C   C395      1.0  0.35203  0.76572  0.87095  1.0000
  H   H450      1.0  0.38970  0.75237  0.80204  1.0000
  H   H451      1.0  0.26977  0.59039  0.87123  1.0000
  H   H452      1.0  0.42269  0.74801  0.79984  1.0000
  H   H453      1.0  0.42183  0.80696  0.80457  1.0000
  H   H454      1.0  0.18711  0.63530  0.98364  1.0000
  H   H455      1.0  0.46336  0.77044  0.82344  1.0000
  H   H456      1.0  0.43592  0.74447  0.84282  1.0000
  Fe  Fe56      1.0  0.23379  0.52755  0.73895  1.0000
  H   H457      1.0  0.45770  0.78481  0.84737  1.0000
  H   H458      1.0  0.41105  0.75202  0.86889  1.0000
  H   H459      1.0  0.37509  0.78533  0.81996  1.0000
  H   H460      1.0  0.37131  0.74784  0.89303  1.0000
  H   H461      1.0  0.33630  0.78185  0.84536  1.0000
  H   H462      1.0  0.33396  0.76321  0.88191  1.0000
  N   N27       1.0  0.31315  0.65404  0.74742  1.0000
  C   C396      1.0  0.29568  0.66691  0.73722  1.0000
  C   C397      1.0  0.34539  0.67116  0.73877  1.0000
  C   C398      1.0  0.29962  0.62174  0.74160  1.0000
  C   C399      1.0  0.31249  0.65716  0.77025  1.0000
  C   C400      1.0  0.30314  0.63194  0.78514  1.0000
  C   C401      1.0  0.32215  0.68634  0.77823  1.0000
  C   C402      1.0  0.30311  0.63584  0.80658  1.0000
  C   C403      1.0  0.32145  0.68986  0.79967  1.0000
  C   C404      1.0  0.31208  0.66467  0.81383  1.0000
  H   H463      1.0  0.30618  0.69196  0.73872  1.0000
  H   H464      1.0  0.29470  0.66382  0.72015  1.0000
  H   H465      1.0  0.27170  0.65566  0.74409  1.0000
  H   H466      1.0  0.35678  0.69607  0.74141  1.0000
  H   H467      1.0  0.34718  0.66931  0.72162  1.0000
  H   H468      1.0  0.35923  0.66205  0.74604  1.0000
  H   H469      1.0  0.27518  0.60758  0.74755  1.0000
  H   H470      1.0  0.29980  0.62007  0.72436  1.0000
  H   H471      1.0  0.31289  0.61106  0.74743  1.0000
  H   H472      1.0  0.29578  0.60897  0.78066  1.0000
  H   H473      1.0  0.33030  0.70675  0.76791  1.0000
  H   H474      1.0  0.29599  0.61633  0.81765  1.0000
  H   H475      1.0  0.32805  0.71228  0.80528  1.0000
  H   H476      1.0  0.31179  0.66746  0.83047  1.0000
  H   H477      1.0  0.24548  0.58152  0.83768  1.0000
  H   H478      1.0  0.07800  0.63566  0.72385  1.0000
  H   H479      1.0  0.32736  0.57646  0.85766  1.0000
  C   C405      1.0  0.09275  0.64763  0.73680  1.0000
  C   C406      1.0  0.26871  0.54716  0.87338  1.0000
  C   C407      1.0  0.11423  0.72499  0.68456  1.0000
  H   H480      1.0  0.12198  0.73241  0.66831  1.0000
  N   N28       1.0  0.12126  0.67582  0.72872  1.0000
  H   H481      1.0  0.19997  0.64686  0.83458  1.0000
  H   H482      1.0  0.39262  0.72526  0.81947  1.0000
  H   H483      1.0  0.12729  0.65273  0.70292  1.0000
  H   H484      1.0  0.12626  0.69769  0.75794  1.0000
  C   C408      1.0  0.13990  0.66608  0.71620  1.0000
  C   C409      1.0  0.37031  0.59176  0.83888  1.0000
  C   C410      1.0  0.35206  0.58860  0.85715  1.0000
  H   H485      1.0  0.23984  0.60291  0.97962  1.0000
  C   C411      1.0  0.13922  0.69160  0.74664  1.0000
  H   H486      1.0  0.21065  0.60990  0.79001  1.0000
  H   H487      1.0  0.08869  0.70263  0.74307  1.0000
  C   C412      1.0  0.36545  0.60137  0.87561  1.0000
  H   H488      1.0  0.35101  0.59877  0.88931  1.0000
  C   C413      1.0  0.41583  0.62112  0.85885  1.0000
  C   C414      1.0  0.11334  0.69648  0.71680  1.0000
  C   C415      1.0  0.09605  0.70819  0.72673  1.0000
  C   C416      1.0  0.24999  0.56445  0.84461  1.0000
  H   H489      1.0  0.14654  0.67719  0.75561  1.0000
  H   H490      1.0  0.16211  0.68624  0.71006  1.0000
  C   C417      1.0  0.12227  0.70553  0.69528  1.0000
  H   H491      1.0  0.16786  0.54298  0.83139  1.0000
  H   H492      1.0  0.16078  0.60751  0.80301  1.0000
  C   C418      1.0  0.08828  0.72773  0.71586  1.0000
  H   H493      1.0  0.39071  0.61894  0.79971  1.0000
  S   S111      1.0  0.22940  0.56043  0.71659  1.0000
  C   C419      1.0  0.40266  0.60851  0.84030  1.0000
  H   H494      1.0  0.20564  0.64570  0.95775  1.0000
  H   H495      1.0  0.21112  0.51731  0.68346  1.0000
  H   H496      1.0  0.40749  0.62827  0.89064  1.0000
  S   S112      1.0  0.26563  0.54733  0.76446  1.0000
  C   C420      1.0  0.39726  0.61770  0.87645  1.0000
  H   H497      1.0  0.32888  0.85010  0.67546  1.0000
  H   H498      1.0  0.13591  0.69841  0.68639  1.0000
  C   C421      1.0  0.24068  0.53690  0.83503  1.0000
  C   C422      1.0  0.23820  0.86433  0.68378  1.0000
  H   H499      1.0  0.44061  0.63465  0.85930  1.0000
  S   S113      1.0  0.33062  0.53100  0.75902  1.0000
  C   C423      1.0  0.32477  0.84315  0.69241  1.0000
  H   H500      1.0  0.41812  0.61293  0.82687  1.0000
  H   H501      1.0  0.19470  0.54583  0.89389  1.0000
  H   H502      1.0  0.09179  0.75172  0.68651  1.0000
  H   H503      1.0  0.28588  0.79931  0.66909  1.0000
  C   C424      1.0  0.20884  0.58981  0.87820  1.0000
  S   S114      1.0  0.30223  0.61625  0.98823  1.0000
  H   H504      1.0  0.22092  0.60260  0.89129  1.0000
  S   S115      1.0  0.11654  0.83702  0.66812  1.0000
  H   H505      1.0  0.26500  0.79491  0.72599  1.0000
  C   C425      1.0  0.24675  0.51495  0.84416  1.0000
  C   C426      1.0  0.17894  0.54135  0.86283  1.0000
  C   C427      1.0  0.24045  0.85694  0.70450  1.0000
  H   H506      1.0  0.20979  0.65032  0.80729  1.0000
  H   H507      1.0  0.14930  0.59849  0.83027  1.0000
  C   C428      1.0  0.22243  0.60970  0.97608  1.0000
  H   H508      1.0  0.33336  0.86448  0.70098  1.0000
  C   C429      1.0  0.19411  0.58941  0.84208  1.0000
  H   H509      1.0  0.45633  0.80593  0.80379  1.0000
  H   H510      1.0  0.15910  0.50687  0.68770  1.0000
  H   H511      1.0  0.26065  0.65929  0.95293  1.0000
  C   C430      1.0  0.09734  0.73609  0.69482  1.0000
  C   C431      1.0  0.20909  0.59737  0.80507  1.0000
  H   H512      1.0  0.22358  0.87371  0.67993  1.0000
  C   C432      1.0  0.28146  0.79371  0.68616  1.0000
  C   C433      1.0  0.21053  0.63923  0.82245  1.0000
  H   H513      1.0  0.23530  0.64880  0.82527  1.0000
  H   H514      1.0  0.14899  0.57007  0.81402  1.0000
  H   H515      1.0  0.25642  0.77755  0.68923  1.0000
  N   N29       1.0  0.19409  0.60517  0.82213  1.0000
  H   H516      1.0  0.23282  0.60334  0.80867  1.0000
  Fe  Fe57      1.0  0.22850  0.50983  0.78529  1.0000
  H   H517      1.0  0.19644  0.57246  0.80224  1.0000
  C   C434      1.0  0.17892  0.55681  0.84428  1.0000
  H   H518      1.0  0.39425  0.57321  0.80675  1.0000
  H   H519      1.0  0.47653  0.70699  0.84768  1.0000
  H   H520      1.0  0.20012  0.59285  0.98438  1.0000
  H   H521      1.0  0.29352  0.78089  0.69026  1.0000
  H   H522      1.0  0.18545  0.49459  0.71356  1.0000
  H   H523      1.0  0.23940  0.49346  0.83696  1.0000
  S   S116      1.0  0.25191  0.49677  0.72961  1.0000
  C   C435      1.0  0.20769  0.49993  0.67280  1.0000
  C   C436      1.0  0.66340  0.23977  0.08682  1.0000
  H   H524      1.0  0.66094  0.22958  0.10236  1.0000
  H   H525      1.0  0.82461  0.23181  0.31457  1.0000
  H   H526      1.0  0.74201  0.38818  0.23590  1.0000
  H   H527      1.0  0.62177  0.22210  0.04362  1.0000
  Fe  Fe58      1.0  0.50604  0.29895  0.28729  1.0000
  S   S117      1.0  0.53581  0.28328  0.27190  1.0000
  H   H528      1.0  0.69830  0.29072  0.24753  1.0000
  Fe  Fe59      1.0  0.67738  0.45974  0.29082  1.0000
  S   S118      1.0  0.63481  0.46281  0.28712  1.0000
  H   H529      1.0  0.60766  0.35340  0.31492  1.0000
  H   H530      1.0  0.66663  0.33754  0.21862  1.0000
  H   H531      1.0  0.52566  0.40620  0.27522  1.0000
  H   H532      1.0  0.61493  0.26711  0.25797  1.0000
  S   S119      1.0  0.68275  0.41977  0.28277  1.0000
  Fe  Fe60      1.0  0.69894  0.21847  0.27469  1.0000
  S   S120      1.0  0.69071  0.25018  0.29360  1.0000
  S   S121      1.0  0.67301  0.20505  0.24529  1.0000
  H   H533      1.0  0.69172  0.31120  0.10418  1.0000
  H   H534      1.0  0.66536  0.27249  0.03077  1.0000
  C   C437      1.0  0.50272  0.21321  0.22582  1.0000
  H   H535      1.0  0.78013  0.38143  0.29013  1.0000
  N   N30       1.0  0.71435  0.28752  0.09330  1.0000
  Fe  Fe61      1.0  0.73920  0.26910  0.30223  1.0000
  S   S122      1.0  0.76893  0.32053  0.29913  1.0000
  S   S123      1.0  0.68379  0.18238  0.30101  1.0000
  S   S124      1.0  0.74880  0.23958  0.28136  1.0000
  Fe  Fe62      1.0  0.59784  0.27106  0.15077  1.0000
  S   S125      1.0  0.60151  0.31185  0.13238  1.0000
  S   S126      1.0  0.55186  0.23001  0.16113  1.0000
  Fe  Fe63      1.0  0.66638  0.29914  0.15232  1.0000
  S   S127      1.0  0.67575  0.34260  0.13459  1.0000
  S   S128      1.0  0.70595  0.29559  0.16482  1.0000
  Fe  Fe64      1.0  0.63704  0.33893  0.15504  1.0000
  S   S129      1.0  0.63466  0.37475  0.17384  1.0000
  Fe  Fe65      1.0  0.63972  0.31164  0.11294  1.0000
  S   S130      1.0  0.65400  0.32531  0.07774  1.0000
  S   S131      1.0  0.63066  0.29808  0.17442  1.0000
  S   S132      1.0  0.63308  0.26826  0.12978  1.0000
  H   H536      1.0  0.69770  0.38778  0.17336  1.0000
  C   C438      1.0  0.62174  0.29581  0.01103  1.0000
  C   C439      1.0  0.60282  0.27870  0.02888  1.0000
  C   C440      1.0  0.61206  0.28729  0.04930  1.0000
  C   C441      1.0  0.64051  0.31329  0.05231  1.0000
  C   C442      1.0  0.65944  0.33034  0.03447  1.0000
  C   C443      1.0  0.65022  0.32173  0.01405  1.0000
  H   H537      1.0  0.58080  0.25855  0.02691  1.0000
  H   H538      1.0  0.59721  0.27374  0.06272  1.0000
  H   H539      1.0  0.68148  0.35048  0.03644  1.0000
  C   C444      1.0  0.76106  0.37016  0.30169  1.0000
  C   C445      1.0  0.68261  0.23138  0.22357  1.0000
  C   C446      1.0  0.65926  0.22857  0.21090  1.0000
  C   C447      1.0  0.66618  0.24846  0.19305  1.0000
  C   C448      1.0  0.69669  0.27056  0.18729  1.0000
  C   C449      1.0  0.72011  0.27317  0.19982  1.0000
  C   C450      1.0  0.71305  0.25399  0.21812  1.0000
  H   H540      1.0  0.63573  0.21080  0.21482  1.0000
  H   H541      1.0  0.64796  0.24607  0.18344  1.0000
  H   H542      1.0  0.74378  0.29011  0.19539  1.0000
  H   H543      1.0  0.73123  0.25596  0.22761  1.0000
  H   H544      1.0  0.62003  0.24067  0.28742  1.0000
  H   H545      1.0  0.74440  0.27422  0.07843  1.0000
  C   C451      1.0  0.69262  0.39547  0.18765  1.0000
  C   C452      1.0  0.66317  0.39088  0.19203  1.0000
  C   C453      1.0  0.65689  0.40112  0.21053  1.0000
  C   C454      1.0  0.68020  0.41677  0.22427  1.0000
  H   H546      1.0  0.55154  0.19331  0.28311  1.0000
  H   H547      1.0  0.63412  0.39742  0.21406  1.0000
  H   H548      1.0  0.67541  0.42526  0.23821  1.0000
  H   H549      1.0  0.66515  0.33525  0.00065  1.0000
  C   C455      1.0  0.68402  0.33870  0.26978  1.0000
  C   C456      1.0  0.50264  0.30049  0.21708  1.0000
  C   C457      1.0  0.74427  0.29537  0.08274  1.0000
  S   S133      1.0  0.59273  0.29045  0.31164  1.0000
  H   H550      1.0  0.61391  0.43409  0.21799  1.0000
  H   H551      1.0  0.70085  0.33982  0.28027  1.0000
  H   H552      1.0  0.71193  0.24981  0.11221  1.0000
  H   H553      1.0  0.69104  0.26695  0.12342  1.0000
  C   C458      1.0  0.50504  0.19848  0.19053  1.0000
  C   C459      1.0  0.66290  0.46502  0.18876  1.0000
  H   H554      1.0  0.73156  0.28622  0.12357  1.0000
  H   H555      1.0  0.74964  0.31038  0.06825  1.0000
  C   C460      1.0  0.53451  0.22386  0.18654  1.0000
  C   C461      1.0  0.54850  0.24375  0.20249  1.0000
  C   C462      1.0  0.53238  0.23874  0.22204  1.0000
  H   H556      1.0  0.57869  0.34197  0.20366  1.0000
  H   H557      1.0  0.57154  0.26297  0.19971  1.0000
  H   H558      1.0  0.54307  0.25411  0.23427  1.0000
  C   C463      1.0  0.84314  0.17698  0.32701  1.0000
  C   C464      1.0  0.75100  0.33997  0.30919  1.0000
  H   H559      1.0  0.73210  0.33060  0.10808  1.0000
  H   H560      1.0  0.70678  0.30259  0.05317  1.0000
  Fe  Fe66      1.0  0.72697  0.45545  0.26638  1.0000
  H   H561      1.0  0.54737  0.21496  0.26198  1.0000
  H   H562      1.0  0.50313  0.28491  0.16754  1.0000
  C   C465      1.0  0.68480  0.46313  0.17595  1.0000
  C   C466      1.0  0.71606  0.41162  0.20121  1.0000
  H   H563      1.0  0.73911  0.31223  0.24175  1.0000
  C   C467      1.0  0.54327  0.37544  0.27996  1.0000
  C   C468      1.0  0.56931  0.37313  0.28380  1.0000
  C   C469      1.0  0.59782  0.39987  0.28570  1.0000
  C   C470      1.0  0.60006  0.42876  0.28420  1.0000
  C   C471      1.0  0.57399  0.43091  0.28043  1.0000
  C   C472      1.0  0.54576  0.40437  0.27812  1.0000
  H   H564      1.0  0.56746  0.35079  0.28527  1.0000
  H   H565      1.0  0.61783  0.39807  0.28861  1.0000
  H   H566      1.0  0.57556  0.45317  0.27937  1.0000
  C   C473      1.0  0.71934  0.31342  0.24896  1.0000
  H   H567      1.0  0.76516  0.37016  0.23654  1.0000
  H   H568      1.0  0.73673  0.33515  0.20992  1.0000
  N   N31       1.0  0.59173  0.21757  0.26211  1.0000
  C   C474      1.0  0.61324  0.22019  0.27822  1.0000
  C   C475      1.0  0.60720  0.24655  0.24864  1.0000
  C   C476      1.0  0.58288  0.19102  0.24913  1.0000
  C   C477      1.0  0.56283  0.18563  0.23281  1.0000
  C   C478      1.0  0.59420  0.17034  0.25181  1.0000
  S   S134      1.0  0.69987  0.46623  0.32121  1.0000
  C   C479      1.0  0.58670  0.14663  0.23844  1.0000
  C   C480      1.0  0.56739  0.14242  0.22233  1.0000
  H   H569      1.0  0.63488  0.22281  0.27100  1.0000
  H   H570      1.0  0.60281  0.19983  0.28962  1.0000
  H   H571      1.0  0.62780  0.24890  0.23985  1.0000
  H   H572      1.0  0.59190  0.24767  0.23703  1.0000
  H   H573      1.0  0.55297  0.19999  0.23000  1.0000
  H   H574      1.0  0.60959  0.17238  0.26376  1.0000
  H   H575      1.0  0.60679  0.45045  0.24023  1.0000
  H   H576      1.0  0.59649  0.13184  0.24041  1.0000
  H   H577      1.0  0.65112  0.29910  0.32050  1.0000
  C   C481      1.0  0.62528  0.45076  0.23005  1.0000
  C   C482      1.0  0.67095  0.48108  0.20730  1.0000
  Fe  Fe67      1.0  0.49406  0.23664  0.27599  1.0000
  H   H578      1.0  0.81535  0.18164  0.30385  1.0000
  H   H579      1.0  0.52474  0.36476  0.18476  1.0000
  H   H580      1.0  0.83747  0.15476  0.32177  1.0000
  H   H581      1.0  0.63941  0.45279  0.18436  1.0000
  H   H582      1.0  0.62005  0.20124  0.07949  1.0000
  C   C483      1.0  0.68892  0.28011  0.05927  1.0000
  C   C484      1.0  0.55532  0.16180  0.21959  1.0000
  S   S135      1.0  0.75507  0.46296  0.29427  1.0000
  Fe  Fe68      1.0  0.54379  0.27263  0.30443  1.0000
  S   S136      1.0  0.50737  0.34271  0.27729  1.0000
  H   H583      1.0  0.76369  0.30811  0.09289  1.0000
  C   C485      1.0  0.71201  0.27176  0.11391  1.0000
  C   C486      1.0  0.63958  0.22311  0.07378  1.0000
  C   C487      1.0  0.66517  0.26311  0.04631  1.0000
  Fe  Fe69      1.0  0.71006  0.42983  0.31112  1.0000
  H   H584      1.0  0.50524  0.28063  0.22012  1.0000
  H   H585      1.0  0.56821  0.36444  0.17315  1.0000
  C   C488      1.0  0.71439  0.31636  0.09719  1.0000
  N   N32       1.0  0.53943  0.31744  0.18544  1.0000
  H   H586      1.0  0.74619  0.37201  0.25992  1.0000
  C   C489      1.0  0.71603  0.33557  0.21613  1.0000
  H   H587      1.0  0.72373  0.31619  0.26580  1.0000
  H   H588      1.0  0.71614  0.35514  0.20741  1.0000
  C   C490      1.0  0.68896  0.26886  0.07987  1.0000
  H   H589      1.0  0.69567  0.31382  0.21203  1.0000
  H   H590      1.0  0.65571  0.33929  0.29531  1.0000
  C   C491      1.0  0.74357  0.36851  0.24301  1.0000
  C   C492      1.0  0.56397  0.21496  0.27297  1.0000
  H   H591      1.0  0.56994  0.23449  0.28302  1.0000
  N   N33       1.0  0.71618  0.33878  0.23901  1.0000
  C   C493      1.0  0.63580  0.33752  0.26600  1.0000
  C   C494      1.0  0.68828  0.33799  0.24792  1.0000
  H   H592      1.0  0.50262  0.22923  0.99781  1.0000
  C   C495      1.0  0.71002  0.42261  0.21944  1.0000
  H   H593      1.0  0.56893  0.33678  0.15730  1.0000
  H   H594      1.0  0.49409  0.18289  0.17839  1.0000
  C   C496      1.0  0.66512  0.33731  0.23543  1.0000
  H   H595      1.0  0.73911  0.41621  0.19733  1.0000
  C   C497      1.0  0.74626  0.38570  0.30883  1.0000
  H   H596      1.0  0.62212  0.33685  0.23464  1.0000
  Fe  Fe70      1.0  0.73288  0.20641  0.30991  1.0000
  H   H597      1.0  0.71854  0.33094  0.08263  1.0000
  H   H598      1.0  0.75404  0.40873  0.30267  1.0000
  H   H599      1.0  0.61581  0.33736  0.27299  1.0000
  S   S137      1.0  0.74041  0.44487  0.23530  1.0000
  C   C498      1.0  0.63927  0.33698  0.24446  1.0000
  C   C499      1.0  0.65820  0.33850  0.27859  1.0000
  C   C500      1.0  0.64049  0.23475  0.05358  1.0000
  C   C501      1.0  0.51372  0.34733  0.19738  1.0000
  H   H600      1.0  0.55658  0.30173  0.21069  1.0000
  H   H601      1.0  0.56190  0.12421  0.21189  1.0000
  H   H602      1.0  0.53778  0.28280  0.16574  1.0000
  C   C502      1.0  0.83040  0.19232  0.31637  1.0000
  C   C503      1.0  0.49461  0.35126  0.21171  1.0000
  C   C504      1.0  0.63428  0.27527  0.32450  1.0000
  H   H603      1.0  0.67789  0.44980  0.16226  1.0000
  C   C505      1.0  0.55345  0.34099  0.16770  1.0000
  C   C506      1.0  0.52256  0.28697  0.17648  1.0000
  C   C507      1.0  0.51841  0.32177  0.19972  1.0000
  Fe  Fe71      1.0  0.67922  0.21582  0.32044  1.0000
  H   H604      1.0  0.49160  0.37108  0.20991  1.0000
  H   H605      1.0  0.54028  0.15863  0.20705  1.0000
  H   H606      1.0  0.53568  0.34095  0.15784  1.0000
  C   C508      1.0  0.83556  0.22068  0.32243  1.0000
  S   S138      1.0  0.75217  0.17551  0.31921  1.0000
  C   C509      1.0  0.56489  0.31900  0.19728  1.0000
  H   H607      1.0  0.58086  0.31501  0.18724  1.0000
  H   H608      1.0  0.73188  0.47422  0.17181  1.0000
  H   H609      1.0  0.51270  0.26759  0.18855  1.0000
  C   C510      1.0  0.71521  0.47677  0.18132  1.0000
  H   H610      1.0  0.63718  0.44179  0.23997  1.0000
  S   S139      1.0  0.51797  0.29278  0.31943  1.0000
  N   N34       1.0  0.64714  0.48212  0.22086  1.0000
  S   S140      1.0  0.50416  0.22440  0.30777  1.0000
  H   H611      1.0  0.64185  0.38789  0.32075  1.0000
  C   C511      1.0  0.72201  0.37159  0.32409  1.0000
  C   C512      1.0  0.62509  0.36403  0.32673  1.0000
  C   C513      1.0  0.72672  0.32570  0.32441  1.0000
  H   H612      1.0  0.61619  0.47724  0.19672  1.0000
  C   C514      1.0  0.60312  0.26468  0.32229  1.0000
  H   H613      1.0  0.55726  0.22559  0.32614  1.0000
  C   C515      1.0  0.58140  0.23382  0.32760  1.0000
  H   H614      1.0  0.63800  0.35141  0.32751  1.0000
  C   C516      1.0  0.48940  0.19308  0.21003  1.0000
  Fe  Fe72      1.0  0.83537  0.11222  0.45858  1.0000
  S   S141      1.0  0.83933  0.07620  0.44164  1.0000
  S   S142      1.0  0.85605  0.12036  0.48988  1.0000
  Fe  Fe73      1.0  0.81040  0.13019  0.42057  1.0000
  S   S143      1.0  0.81240  0.09499  0.40115  1.0000
  S   S144      1.0  0.79815  0.16586  0.40902  1.0000
  Fe  Fe74      1.0  0.79306  0.06350  0.43039  1.0000
  S   S145      1.0  0.75130  0.01574  0.43509  1.0000
  Fe  Fe75      1.0  0.85864  0.11149  0.41462  1.0000
  S   S146      1.0  0.90230  0.12207  0.39609  1.0000
  S   S147      1.0  0.78782  0.09775  0.44906  1.0000
  S   S148      1.0  0.85761  0.14831  0.43233  1.0000
  Fe  Fe76      1.0  0.80665  0.11192  0.60246  1.0000
  S   S149      1.0  0.83992  0.09621  0.61055  1.0000
  S   S150      1.0  0.77821  0.09908  0.57430  1.0000
  Fe  Fe77      1.0  0.87142  0.14536  0.61812  1.0000
  S   S151      1.0  0.92034  0.17610  0.60437  1.0000
  Fe  Fe78      1.0  0.81920  0.09018  0.64312  1.0000
  H   H615      1.0  0.79599  0.00570  0.41177  1.0000
  S   S152      1.0  0.83944  0.16124  0.60737  1.0000
  S   S153      1.0  0.78358  0.10245  0.63457  1.0000
  C   C517      1.0  0.83324  0.11345  0.51290  1.0000
  C   C518      1.0  0.80376  0.10961  0.51268  1.0000
  C   C519      1.0  0.78682  0.10518  0.53162  1.0000
  C   C520      1.0  0.79956  0.10508  0.55071  1.0000
  C   C521      1.0  0.82894  0.10874  0.55081  1.0000
  C   C522      1.0  0.84546  0.11235  0.53195  1.0000
  H   H616      1.0  0.79421  0.11042  0.49801  1.0000
  H   H617      1.0  0.76401  0.10222  0.53153  1.0000
  H   H618      1.0  0.83870  0.10820  0.56542  1.0000
  H   H619      1.0  0.86778  0.11424  0.53213  1.0000
  C   C523      1.0  0.71483  0.11104  0.41214  1.0000
  H   H620      1.0  0.68963  0.07330  0.39306  1.0000
  H   H621      1.0  0.64817  0.36748  0.36471  1.0000
  C   C524      1.0  0.76722  0.00086  0.52514  1.0000
  Fe  Fe79      1.0  0.81938  0.15077  0.64037  1.0000
  C   C525      1.0  0.95308  0.18771  0.61901  1.0000
  H   H622      1.0  0.71938  0.30263  0.33055  1.0000
  H   H623      1.0  0.60684  0.31956  0.35683  1.0000
  C   C526      1.0  0.86561  0.14286  0.34938  1.0000
  C   C527      1.0  0.93659  0.15469  0.40286  1.0000
  C   C528      1.0  0.93644  0.18094  0.40908  1.0000
  C   C529      1.0  0.64178  0.14033  0.38231  1.0000
  H   H624      1.0  0.91528  0.18136  0.41019  1.0000
  H   H625      1.0  0.84021  0.12741  0.35097  1.0000
  N   N35       1.0  0.78960  0.48314  0.35851  1.0000
  C   C530      1.0  0.76823  0.14782  0.35014  1.0000
  C   C531      1.0  0.77847  0.14526  0.36985  1.0000
  C   C532      1.0  0.78482  0.16773  0.38409  1.0000
  C   C533      1.0  0.78038  0.19246  0.37851  1.0000
  C   C534      1.0  0.76992  0.19490  0.35886  1.0000
  H   H626      1.0  0.78826  0.04274  0.56869  1.0000
  H   H627      1.0  0.78137  0.12589  0.37403  1.0000
  H   H628      1.0  0.78523  0.20992  0.38942  1.0000
  H   H629      1.0  0.76707  0.21430  0.35466  1.0000
  H   H630      1.0  0.62472  0.38070  0.37733  1.0000
  C   C535      1.0  0.59116  0.21337  0.33439  1.0000
  H   H631      1.0  0.88798  0.17559  0.53246  1.0000
  H   H632      1.0  0.95699  0.23965  0.64279  1.0000
  C   C536      1.0  0.97745  0.18696  0.65088  1.0000
  H   H633      1.0  0.73003  0.00537  0.35198  1.0000
  H   H634      1.0  0.75907  0.04396  0.50341  1.0000
  H   H635      1.0  0.66810  0.26311  0.33252  1.0000
  H   H636      1.0  0.91751  0.21513  0.36137  1.0000
  H   H637      1.0  0.58049  0.32771  0.37080  1.0000
  H   H638      1.0  0.87551  0.13138  0.35901  1.0000
  C   C537      1.0  0.62257  0.22388  0.33567  1.0000
  H   H639      1.0  0.85737  0.25598  0.34385  1.0000
  H   H640      1.0  0.74060  0.46337  0.36536  1.0000
  H   H641      1.0  0.90278  0.15139  0.55941  1.0000
  C   C538      1.0  0.68790  0.18952  0.38170  1.0000
  C   C539      1.0  0.63471  0.37929  0.36201  1.0000
  H   H642      1.0  0.81306  0.46467  0.37596  1.0000
  H   H643      1.0  0.90651  0.20230  0.64230  1.0000
  H   H644      1.0  0.57461  0.31608  0.34427  1.0000
  H   H645      1.0  0.91917  0.18056  0.36324  1.0000
  H   H646      1.0  0.95144  0.19488  0.49517  1.0000
  C   C540      1.0  0.72171  0.14052  0.41676  1.0000
  H   H647      1.0  0.71327  0.20304  0.37830  1.0000
  C   C541      1.0  0.55907  0.36172  0.34751  1.0000
  H   H648      1.0  0.54373  0.41844  0.33372  1.0000
  H   H649      1.0  0.65194  0.40300  0.35596  1.0000
  C   C542      1.0  0.71253  0.34166  0.33208  1.0000
  C   C543      1.0  0.59215  0.33023  0.35526  1.0000
  H   H650      1.0  0.76365  0.13051  0.33915  1.0000
  H   H651      1.0  0.74735  0.02349  0.48038  1.0000
  H   H652      1.0  0.51718  0.36308  0.34485  1.0000
  C   C544      1.0  0.96398  0.20727  0.41333  1.0000
  C   C545      1.0  0.68100  0.15585  0.35461  1.0000
  C   C546      1.0  0.74885  0.02057  0.49751  1.0000
  H   H653      1.0  0.94486  0.23524  0.54357  1.0000
  C   C547      1.0  0.91045  0.18302  0.52389  1.0000
  H   H654      1.0  0.80171  0.47045  0.32942  1.0000
  H   H655      1.0  0.90692  0.27373  0.65730  1.0000
  C   C548      1.0  0.64395  0.25490  0.33114  1.0000
  S   S154      1.0  0.85365  0.13814  0.65156  1.0000
  C   C549      1.0  0.59171  0.37806  0.34489  1.0000
  C   C550      1.0  0.55698  0.40742  0.33727  1.0000
  H   H656      1.0  0.91368  0.20551  0.56020  1.0000
  C   C551      1.0  0.86409  0.17015  0.37856  1.0000
  C   C552      1.0  0.60609  0.40981  0.33859  1.0000
  H   H657      1.0  0.78242  0.01346  0.63106  1.0000
  C   C553      1.0  0.90872  0.19243  0.35462  1.0000
  H   H658      1.0  0.90643  0.16409  0.51372  1.0000
  N   N36       1.0  0.87469  0.17396  0.35630  1.0000
  C   C554      1.0  0.98218  0.20877  0.60959  1.0000
  H   H659      1.0  0.70598  0.16723  0.35025  1.0000
  N   N37       1.0  0.93508  0.18929  0.53835  1.0000
  C   C555      1.0  0.95077  0.17686  0.63973  1.0000
  C   C556      1.0  0.77930  0.02642  0.53774  1.0000
  H   H660      1.0  0.92469  0.14226  0.54129  1.0000
  N   N38       1.0  0.61034  0.36297  0.34730  1.0000
  C   C557      1.0  0.69485  0.09624  0.39661  1.0000
  N   N39       1.0  0.67540  0.15671  0.37731  1.0000
  H   H661      1.0  0.69403  0.33064  0.34405  1.0000
  H   H662      1.0  0.94191  0.16383  0.56351  1.0000
  H   H663      1.0  0.87517  0.20915  0.64029  1.0000
  H   H664      1.0  0.78872  0.04948  0.53090  1.0000
  H   H665      1.0  0.96505  0.13499  0.39597  1.0000
  H   H666      1.0  0.54596  0.33752  0.35218  1.0000
  H   H667      1.0  0.92852  0.16057  0.64715  1.0000
  H   H668      1.0  0.75057  0.45353  0.34130  1.0000
  C   C558      1.0  0.93658  0.21273  0.55234  1.0000
  C   C559      1.0  0.97007  0.20172  0.50542  1.0000
  H   H669      1.0  0.73406  0.01313  0.65766  1.0000
  H   H670      1.0  0.72501  0.00675  0.50465  1.0000
  H   H671      1.0  0.91768  0.19661  0.33805  1.0000
  C   C560      1.0  0.96556  0.20015  0.52753  1.0000
  H   H672      1.0  0.67814  0.33400  0.65413  1.0000
  C   C561      1.0  0.92578  0.16047  0.55112  1.0000
  C   C562      1.0  0.76398  0.17266  0.34451  1.0000
  C   C563      1.0  0.96048  0.24794  0.65828  1.0000
  H   H673      1.0  0.77333  0.44870  0.38427  1.0000
  C   C564      1.0  0.78983  0.45740  0.37039  1.0000
  H   H674      1.0  0.91591  0.20380  0.51380  1.0000
  S   S155      1.0  0.70368  0.39122  0.33343  1.0000
  C   C565      1.0  0.96467  0.15508  0.40097  1.0000
  H   H675      1.0  0.87202  0.15670  0.38789  1.0000
  C   C566      1.0  0.75803  0.47248  0.35204  1.0000
  H   H676      1.0  0.76090  0.48476  0.39520  1.0000
  H   H677      1.0  0.66636  0.09843  0.37377  1.0000
  H   H678      1.0  0.63063  0.15158  0.37382  1.0000
  H   H679      1.0  0.96358  0.22752  0.41792  1.0000
  H   H680      1.0  0.91305  0.23937  0.63247  1.0000
  H   H681      1.0  0.73778  0.15212  0.42860  1.0000
  C   C567      1.0  0.85385  0.23413  0.33899  1.0000
  C   C568      1.0  0.58892  0.42425  0.33507  1.0000
  H   H682      1.0  0.63651  0.13995  0.39931  1.0000
  C   C569      1.0  0.86164  0.18989  0.34417  1.0000
  H   H683      1.0  0.63043  0.11613  0.37784  1.0000
  H   H684      1.0  0.75676  0.49166  0.34386  1.0000
  H   H685      1.0  0.83861  0.15789  0.38040  1.0000
  H   H686      1.0  0.67148  0.16787  0.34529  1.0000
  C   C570      1.0  0.68922  0.14147  0.38937  1.0000
  S   S156      1.0  0.81031  0.18759  0.65228  1.0000
  C   C571      1.0  0.77928  0.02278  0.55942  1.0000
  H   H687      1.0  0.63068  0.42356  0.33557  1.0000
  S   S157      1.0  0.63579  0.19820  0.34073  1.0000
  H   H688      1.0  0.72542  0.09991  0.42044  1.0000
  H   H689      1.0  0.57455  0.18930  0.33789  1.0000
  H   H690      1.0  0.98421  0.21751  0.59366  1.0000
  C   C572      1.0  0.68194  0.11102  0.38551  1.0000
  H   H691      1.0  0.87265  0.19231  0.38600  1.0000
  H   H692      1.0  0.80971  0.04942  0.49890  1.0000
  C   C573      1.0  0.89964  0.21996  0.64430  1.0000
  C   C574      1.0  0.86690  0.21914  0.34965  1.0000
  H   H693      1.0  0.67016  0.13224  0.34918  1.0000
  H   H694      1.0  0.95194  0.21642  0.56526  1.0000
  H   H695      1.0  0.71648  0.17882  0.40965  1.0000
  N   N40       1.0  0.76712  0.00557  0.50224  1.0000
  H   H696      1.0  0.78320  0.43735  0.36068  1.0000
  C   C575      1.0  0.70934  0.15572  0.40555  1.0000
  H   H697      1.0  0.67790  0.20063  0.37183  1.0000
  H   H698      1.0  0.68243  0.19209  0.39814  1.0000
  C   C576      1.0  0.79903  0.02580  0.49332  1.0000
  H   H699      1.0  0.79984  0.02863  0.47598  1.0000
  C   C577      1.0  0.76753  0.99359  0.56919  1.0000
  C   C578      1.0  0.54210  0.37626  0.34352  1.0000
  H   H700      1.0  0.87403  0.14390  0.33298  1.0000
  H   H701      1.0  0.88060  0.23032  0.36255  1.0000
  H   H702      1.0  0.81403  0.01624  0.49740  1.0000
  C   C579      1.0  0.78251  0.99931  0.64412  1.0000
  S   S158      1.0  0.72717  0.23778  0.33127  1.0000
  H   H703      1.0  0.71896  0.08650  0.65901  1.0000
  C   C580      1.0  0.80972  0.49059  0.33919  1.0000
  H   H704      1.0  0.86829  0.24212  0.66217  1.0000
  H   H705      1.0  0.60046  0.44835  0.32970  1.0000
  Fe  Fe80      1.0  0.67751  0.20889  0.75704  1.0000
  S   S159      1.0  0.70873  0.20423  0.77908  1.0000
  S   S160      1.0  0.62827  0.17158  0.75596  1.0000
  Fe  Fe81      1.0  0.72679  0.27151  0.73933  1.0000
  S   S161      1.0  0.76272  0.27184  0.75915  1.0000
  S   S162      1.0  0.73266  0.31010  0.71748  1.0000
  Fe  Fe82      1.0  0.74299  0.22253  0.75129  1.0000
  S   S163      1.0  0.76867  0.19701  0.74486  1.0000
  Fe  Fe83      1.0  0.72532  0.25368  0.78492  1.0000
  S   S164      1.0  0.73598  0.27937  0.81436  1.0000
  S   S165      1.0  0.71028  0.22400  0.72898  1.0000
  S   S166      1.0  0.69074  0.25651  0.76536  1.0000
  Fe  Fe84      1.0  0.68218  0.44151  0.73887  1.0000
  H   H706      1.0  0.64049  0.46194  0.68302  1.0000
  S   S167      1.0  0.64594  0.41405  0.71681  1.0000
  Fe  Fe85      1.0  0.73950  0.45068  0.75916  1.0000
  S   S168      1.0  0.67879  0.47584  0.75805  1.0000
  S   S169      1.0  0.76958  0.43044  0.76472  1.0000
  Fe  Fe86      1.0  0.69026  0.45418  0.78494  1.0000
  S   S170      1.0  0.66000  0.43515  0.81473  1.0000
  C   C581      1.0  0.59232  0.20229  0.85251  1.0000
  S   S171      1.0  0.68960  0.41774  0.76602  1.0000
  S   S172      1.0  0.73249  0.47115  0.72963  1.0000
  H   H707      1.0  0.64551  0.22256  0.72585  1.0000
  C   C582      1.0  0.65785  0.34644  0.67915  1.0000
  H   H708      1.0  0.68417  0.36092  0.74233  1.0000
  Fe  Fe87      1.0  0.64182  0.27327  0.91121  1.0000
  S   S173      1.0  0.59742  0.25717  0.92992  1.0000
  S   S174      1.0  0.65037  0.23728  0.89776  1.0000
  Fe  Fe88      1.0  0.65834  0.33969  0.91126  1.0000
  S   S175      1.0  0.61539  0.32897  0.93021  1.0000
  S   S176      1.0  0.69268  0.38725  0.89718  1.0000
  Fe  Fe89      1.0  0.62430  0.29662  0.95040  1.0000
  Fe  Fe90      1.0  0.59211  0.29044  0.90884  1.0000
  S   S177      1.0  0.54899  0.28238  0.89364  1.0000
  S   S178      1.0  0.66954  0.31034  0.93278  1.0000
  S   S179      1.0  0.63431  0.30352  0.88874  1.0000
  H   H709      1.0  0.60292  0.30053  0.75613  1.0000
  H   H710      1.0  0.65560  0.30039  0.84185  1.0000
  C   C583      1.0  0.69480  0.14785  0.73022  1.0000
  H   H711      1.0  0.69854  0.32530  0.79199  1.0000
  C   C584      1.0  0.64628  0.31203  0.83275  1.0000
  C   C585      1.0  0.51823  0.22276  0.83730  1.0000
  H   H712      1.0  0.69450  0.30628  0.81703  1.0000
  H   H713      1.0  0.58684  0.38338  0.89180  1.0000
  C   C586      1.0  0.52447  0.26688  0.85539  1.0000
  C   C587      1.0  0.53839  0.25995  0.87168  1.0000
  H   H714      1.0  0.51476  0.20142  0.97186  1.0000
  H   H715      1.0  0.60375  0.43561  0.83237  1.0000
  H   H716      1.0  0.73114  0.33696  0.80738  1.0000
  C   C588      1.0  0.67101  0.41947  0.83554  1.0000
  C   C589      1.0  0.70059  0.43538  0.84277  1.0000
  C   C590      1.0  0.70715  0.42515  0.86159  1.0000
  C   C591      1.0  0.68440  0.39862  0.87306  1.0000
  C   C592      1.0  0.65526  0.38200  0.86530  1.0000
  C   C593      1.0  0.64859  0.39258  0.84676  1.0000
  H   H717      1.0  0.71801  0.45635  0.83439  1.0000
  H   H718      1.0  0.72982  0.43805  0.86744  1.0000
  H   H719      1.0  0.63747  0.36160  0.87395  1.0000
  H   H720      1.0  0.62571  0.38012  0.84131  1.0000
  C   C594      1.0  0.61109  0.38851  0.73077  1.0000
  C   C595      1.0  0.58786  0.36387  0.72096  1.0000
  H   H721      1.0  0.64884  0.46889  0.84769  1.0000
  C   C596      1.0  0.55570  0.34688  0.75317  1.0000
  C   C597      1.0  0.57876  0.37173  0.76288  1.0000
  C   C598      1.0  0.60662  0.39220  0.75182  1.0000
  H   H722      1.0  0.59122  0.36088  0.70470  1.0000
  C   C599      1.0  0.70607  0.32901  0.80821  1.0000
  H   H723      1.0  0.57520  0.37500  0.77905  1.0000
  H   H724      1.0  0.62442  0.41107  0.75956  1.0000
  C   C600      1.0  0.77986  0.19427  0.71904  1.0000
  C   C601      1.0  0.78040  0.21363  0.70263  1.0000
  C   C602      1.0  0.78984  0.21125  0.68229  1.0000
  C   C603      1.0  0.79827  0.18919  0.67811  1.0000
  C   C604      1.0  0.79720  0.16943  0.69444  1.0000
  C   C605      1.0  0.78826  0.17216  0.71487  1.0000
  H   H725      1.0  0.77408  0.23080  0.70567  1.0000
  S   S180      1.0  0.74101  0.48642  0.77974  1.0000
  H   H726      1.0  0.80340  0.15217  0.69138  1.0000
  H   H727      1.0  0.78774  0.15702  0.72750  1.0000
  C   C606      1.0  0.71159  0.26665  0.83726  1.0000
  C   C607      1.0  0.71597  0.28813  0.85197  1.0000
  C   C608      1.0  0.69657  0.27947  0.87016  1.0000
  C   C609      1.0  0.67357  0.24884  0.87430  1.0000
  C   C610      1.0  0.66964  0.22710  0.85984  1.0000
  C   C611      1.0  0.68819  0.23609  0.84114  1.0000
  H   H728      1.0  0.73461  0.31159  0.84930  1.0000
  H   H729      1.0  0.70018  0.29624  0.88141  1.0000
  H   H730      1.0  0.65238  0.20324  0.86318  1.0000
  H   H731      1.0  0.68516  0.21924  0.83012  1.0000
  C   C612      1.0  0.74254  0.34338  0.73069  1.0000
  C   C613      1.0  0.73888  0.36691  0.72139  1.0000
  C   C614      1.0  0.74656  0.39352  0.73195  1.0000
  C   C615      1.0  0.75870  0.39693  0.75158  1.0000
  C   C616      1.0  0.76223  0.37336  0.76088  1.0000
  C   C617      1.0  0.75365  0.34639  0.75063  1.0000
  H   H732      1.0  0.73014  0.36458  0.70601  1.0000
  H   H733      1.0  0.74387  0.41171  0.72468  1.0000
  H   H734      1.0  0.77180  0.37600  0.77599  1.0000
  H   H735      1.0  0.75653  0.32834  0.75792  1.0000
  C   C618      1.0  0.60680  0.18606  0.74408  1.0000
  C   C619      1.0  0.57523  0.17221  0.74918  1.0000
  C   C620      1.0  0.55834  0.18515  0.74113  1.0000
  C   C621      1.0  0.57266  0.21090  0.72699  1.0000
  C   C622      1.0  0.60390  0.22379  0.72108  1.0000
  C   C623      1.0  0.62118  0.21194  0.73005  1.0000
  H   H736      1.0  0.56392  0.15184  0.75970  1.0000
  H   H737      1.0  0.53409  0.17481  0.74548  1.0000
  H   H738      1.0  0.65032  0.06904  0.70673  1.0000
  H   H739      1.0  0.57627  0.30412  0.82459  1.0000
  C   C624      1.0  0.61444  0.30000  0.83466  1.0000
  H   H740      1.0  0.62468  0.21544  0.78493  1.0000
  Fe  Fe91      1.0  0.51827  0.22785  0.74012  1.0000
  H   H741      1.0  0.60873  0.35039  0.80113  1.0000
  H   H742      1.0  0.70320  0.13327  0.73763  1.0000
  H   H743      1.0  0.67925  0.30819  0.74649  1.0000
  N   N41       1.0  0.69942  0.35139  0.81802  1.0000
  C   C625      1.0  0.71669  0.38103  0.80532  1.0000
  C   C626      1.0  0.71179  0.35683  0.83904  1.0000
  C   C627      1.0  0.66572  0.33883  0.81968  1.0000
  C   C628      1.0  0.65111  0.35213  0.80824  1.0000
  C   C629      1.0  0.61919  0.33937  0.80975  1.0000
  C   C630      1.0  0.60091  0.31348  0.82304  1.0000
  H   H744      1.0  0.71269  0.39907  0.81172  1.0000
  H   H745      1.0  0.74200  0.39029  0.80493  1.0000
  H   H746      1.0  0.71072  0.37853  0.78874  1.0000
  H   H747      1.0  0.70699  0.37329  0.84695  1.0000
  H   H748      1.0  0.73715  0.36651  0.83829  1.0000
  H   H749      1.0  0.70189  0.33564  0.84948  1.0000
  H   H750      1.0  0.66391  0.37304  0.79857  1.0000
  H   H751      1.0  0.60018  0.28032  0.84541  1.0000
  H   H752      1.0  0.68522  0.29714  0.67657  1.0000
  H   H753      1.0  0.61480  0.24329  0.70981  1.0000
  H   H754      1.0  0.62185  0.18317  0.79927  1.0000
  C   C631      1.0  0.56041  0.34271  0.73226  1.0000
  S   S181      1.0  0.55204  0.22746  0.71665  1.0000
  H   H755      1.0  0.52089  0.28628  0.85621  1.0000
  H   H756      1.0  0.58041  0.44840  0.88355  1.0000
  C   C632      1.0  0.59302  0.41487  0.84250  1.0000
  H   H757      1.0  0.68760  0.47448  0.70103  1.0000
  H   H758      1.0  0.55246  0.22848  0.88331  1.0000
  H   H759      1.0  0.58407  0.14842  0.88977  1.0000
  H   H760      1.0  0.88355  0.20942  0.69667  1.0000
  C   C633      1.0  0.64346  0.44047  0.88503  1.0000
  C   C634      1.0  0.64900  0.34205  0.70041  1.0000
  H   H761      1.0  0.54265  0.32355  0.72468  1.0000
  H   H762      1.0  0.67278  0.05035  0.68134  1.0000
  C   C635      1.0  0.59253  0.18762  0.83410  1.0000
  H   H763      1.0  0.54681  0.27346  0.93844  1.0000
  C   C636      1.0  0.67477  0.30952  0.68315  1.0000
  H   H764      1.0  0.89132  0.25887  0.68349  1.0000
  H   H765      1.0  0.56639  0.15911  0.79805  1.0000
  C   C637      1.0  0.66579  0.30485  0.70440  1.0000
  C   C638      1.0  0.51507  0.24879  0.83802  1.0000
  C   C639      1.0  0.65330  0.32160  0.71382  1.0000
  N   N42       1.0  0.67122  0.13089  0.71522  1.0000
  H   H766      1.0  0.79057  0.22659  0.66971  1.0000
  C   C640      1.0  0.59991  0.44758  0.89063  1.0000
  C   C641      1.0  0.58964  0.15812  0.83680  1.0000
  H   H767      1.0  0.58971  0.14565  0.82351  1.0000
  S   S182      1.0  0.53668  0.25463  0.76827  1.0000
  C   C642      1.0  0.72280  0.99722  0.67120  1.0000
  C   C643      1.0  0.64311  0.10724  0.72747  1.0000
  H   H768      1.0  0.66939  0.28830  0.71314  1.0000
  Fe  Fe92      1.0  0.49598  0.21550  0.78582  1.0000
  H   H769      1.0  0.59502  0.22496  0.85218  1.0000
  C   C644      1.0  0.53082  0.22425  0.96383  1.0000
  H   H770      1.0  0.61808  0.24885  0.82022  1.0000
  C   C645      1.0  0.58855  0.18781  0.87226  1.0000
  H   H771      1.0  0.64818  0.29744  0.76558  1.0000
  N   N43       1.0  0.64445  0.31795  0.73641  1.0000
  C   C646      1.0  0.65395  0.29871  0.74859  1.0000
  N   N44       1.0  0.59479  0.20140  0.81288  1.0000
  C   C647      1.0  0.62243  0.20532  0.80105  1.0000
  H   H772      1.0  0.59870  0.24164  0.79649  1.0000
  C   C648      1.0  0.58662  0.14418  0.85666  1.0000
  H   H773      1.0  0.65023  0.36332  0.73905  1.0000
  N   N45       1.0  0.51894  0.24576  0.96581  1.0000
  C   C649      1.0  0.53146  0.21543  0.85383  1.0000
  H   H774      1.0  0.64672  0.14095  0.69230  1.0000
  H   H775      1.0  0.65390  0.34634  0.76260  1.0000
  H   H776      1.0  0.62408  0.09395  0.71719  1.0000
  C   C650      1.0  0.61065  0.30346  0.73937  1.0000
  H   H777      1.0  0.64209  0.27460  0.74390  1.0000
  C   C651      1.0  0.65881  0.34840  0.74545  1.0000
  C   C652      1.0  0.58380  0.38557  0.87539  1.0000
  C   C653      1.0  0.71020  0.13807  0.68674  1.0000
  C   C654      1.0  0.67037  0.08603  0.69744  1.0000
  C   C655      1.0  0.66339  0.15247  0.70440  1.0000
  H   H778      1.0  0.60192  0.31728  0.73137  1.0000
  H   H779      1.0  0.80246  0.00408  0.69445  1.0000
  H   H780      1.0  0.59900  0.28045  0.73285  1.0000
  S   S183      1.0  0.52082  0.32177  0.76716  1.0000
  H   H781      1.0  0.61362  0.46940  0.89841  1.0000
  H   H782      1.0  0.63438  0.11790  0.73871  1.0000
  C   C656      1.0  0.54221  0.23434  0.87071  1.0000
  H   H783      1.0  0.58856  0.19948  0.88610  1.0000
  C   C657      1.0  0.63427  0.47110  0.86021  1.0000
  H   H784      1.0  0.72194  0.16271  0.68784  1.0000
  C   C658      1.0  0.59897  0.41462  0.86399  1.0000
  H   H785      1.0  0.50461  0.25447  0.82546  1.0000
  C   C659      1.0  0.72991  0.00783  0.69105  1.0000
  Fe  Fe93      1.0  0.50498  0.27247  0.76168  1.0000
  H   H786      1.0  0.92655  0.25523  0.70296  1.0000
  C   C660      1.0  0.68363  0.11813  0.69980  1.0000
  H   H787      1.0  0.57645  0.23059  0.82061  1.0000
  H   H788      1.0  0.54569  0.17434  0.81160  1.0000
  C   C661      1.0  0.59716  0.23202  0.81267  1.0000
  H   H789      1.0  0.74651  0.03184  0.69280  1.0000
  H   H790      1.0  0.56340  0.28720  0.96243  1.0000
  H   H791      1.0  0.68598  0.15637  0.74292  1.0000
  H   H792      1.0  0.65299  0.16173  0.71549  1.0000
  H   H793      1.0  0.63880  0.35490  0.70628  1.0000
  H   H794      1.0  0.71523  0.16834  0.72256  1.0000
  H   H795      1.0  0.58484  0.12182  0.85834  1.0000
  H   H796      1.0  0.53418  0.22033  0.94730  1.0000
  H   H797      1.0  0.56566  0.19177  0.78695  1.0000
  C   C662      1.0  0.56704  0.18074  0.80191  1.0000
  C   C663      1.0  0.79382  0.99409  0.67983  1.0000
  H   H798      1.0  0.64774  0.09118  0.73696  1.0000
  C   C664      1.0  0.54113  0.27577  0.95485  1.0000
  H   H799      1.0  0.89329  0.18684  0.68050  1.0000
  H   H800      1.0  0.54081  0.26109  0.99477  1.0000
  H   H801      1.0  0.64376  0.22055  0.80892  1.0000
  H   H802      1.0  0.68391  0.17284  0.69659  1.0000
  C   C665      1.0  0.58601  0.15899  0.87436  1.0000
  C   C666      1.0  0.97396  0.26960  0.69812  1.0000
  C   C667      1.0  0.88450  0.20324  0.68037  1.0000
  C   C668      1.0  0.57371  0.38769  0.83308  1.0000
  H   H803      1.0  0.65469  0.36255  0.66937  1.0000
  C   C669      1.0  0.55955  0.35960  0.84467  1.0000
  H   H804      1.0  0.66641  0.48674  0.66242  1.0000
  H   H805      1.0  0.86025  0.19064  0.67589  1.0000
  C   C670      1.0  0.94387  0.25669  0.69183  1.0000
  N   N46       1.0  0.61887  0.44301  0.87461  1.0000
  H   H806      1.0  0.50724  0.23356  0.92474  1.0000
  H   H807      1.0  0.57021  0.38840  0.81655  1.0000
  H   H808      1.0  0.55362  0.33665  0.87477  1.0000
  H   H809      1.0  0.53196  0.29181  0.95459  1.0000
  C   C671      1.0  0.51762  0.25106  0.98831  1.0000
  H   H810      1.0  0.65920  0.43873  0.87341  1.0000
  C   C672      1.0  0.56453  0.35857  0.86579  1.0000
  C   C673      1.0  0.89224  0.25232  0.66729  1.0000
  S   S184      1.0  0.50572  0.19862  0.81623  1.0000
  H   H811      1.0  0.53324  0.19491  0.85360  1.0000
  S   S185      1.0  0.60839  0.28368  0.98558  1.0000
  C   C674      1.0  0.67094  0.33035  0.67056  1.0000
  H   H812      1.0  0.54491  0.33858  0.83722  1.0000
  H   H813      1.0  0.55356  0.23317  0.97073  1.0000
  H   H814      1.0  0.63461  0.42013  0.89627  1.0000
  H   H815      1.0  0.97555  0.17851  0.66691  1.0000
  H   H816      1.0  0.59003  0.42871  0.90314  1.0000
  H   H817      1.0  0.61738  0.47595  0.85275  1.0000
  H   H818      1.0  0.65793  0.46097  0.89385  1.0000
  H   H819      1.0  0.72306  0.99569  0.72391  1.0000
  C   C675      1.0  0.68306  0.07488  0.68286  1.0000
  H   H820      1.0  0.74286  0.14236  0.66234  1.0000
  C   C676      1.0  0.93612  0.24524  0.67175  1.0000
  S   S186      1.0  0.80727  0.05166  0.66733  1.0000
  N   N47       1.0  0.90382  0.23047  0.66586  1.0000
  H   H821      1.0  0.97922  0.27772  0.71366  1.0000
  C   C677      1.0  0.72253  0.12666  0.67215  1.0000
  C   C678      1.0  0.79404  0.01263  0.66298  1.0000
  C   C679      1.0  0.70906  0.09515  0.67025  1.0000
  S   S187      1.0  0.49022  0.24965  0.73160  1.0000
  C   C680      1.0  0.65326  0.48642  0.67673  1.0000
  H   H822      1.0  0.50948  0.26761  0.99093  1.0000
  H   H823      1.0  0.64318  0.47542  0.71745  1.0000
  C   C681      1.0  0.48896  0.23292  0.95623  1.0000
  H   H824      1.0  0.64986  0.49189  0.86844  1.0000
  H   H825      1.0  0.64600  0.51602  0.20007  1.0000
  Fe  Fe94      1.0  0.74336  0.49908  0.30239  1.0000
  S   S188      1.0  0.52616  0.72757  0.32070  1.0000
  H   H826      1.0  0.74733  0.50197  0.20404  1.0000
  S   S189      1.0  0.78149  0.54394  0.31347  1.0000
  H   H827      1.0  0.67682  0.52659  0.23254  1.0000
  H   H828      1.0  0.71056  0.50668  0.22634  1.0000
  C   C682      1.0  0.65984  0.50259  0.23830  1.0000
  H   H829      1.0  0.64153  0.50332  0.24806  1.0000
  H   H830      1.0  0.68059  0.64572  0.32142  1.0000
  S   S190      1.0  0.72011  0.49527  0.27244  1.0000
  C   C683      1.0  0.70223  0.49475  0.21232  1.0000
  H   H831      1.0  0.67101  0.49415  0.24926  1.0000
  C   C684      1.0  0.72388  0.49249  0.19947  1.0000
  H   H832      1.0  0.61334  0.49643  0.21853  1.0000
  C   C685      1.0  0.62998  0.49342  0.20847  1.0000
  Fe  Fe95      1.0  0.66888  0.80213  0.45522  1.0000
  S   S191      1.0  0.71539  0.81486  0.44123  1.0000
  S   S192      1.0  0.65566  0.78681  0.48924  1.0000
  Fe  Fe96      1.0  0.64203  0.79933  0.41247  1.0000
  S   S193      1.0  0.68651  0.81097  0.39520  1.0000
  S   S194      1.0  0.59886  0.79558  0.39937  1.0000
  Fe  Fe97      1.0  0.68940  0.77854  0.41907  1.0000
  S   S195      1.0  0.69730  0.73838  0.41538  1.0000
  Fe  Fe98      1.0  0.70854  0.84635  0.41904  1.0000
  S   S196      1.0  0.74765  0.89390  0.40854  1.0000
  S   S197      1.0  0.64299  0.76405  0.43427  1.0000
  S   S198      1.0  0.66403  0.83665  0.43501  1.0000
  Fe  Fe99      1.0  0.70161  0.86091  0.59368  1.0000
  S   S199      1.0  0.73771  0.85608  0.61033  1.0000
  S   S200      1.0  0.71259  0.88017  0.56010  1.0000
  Fe  Fe100     1.0  0.72567  0.87720  0.63655  1.0000
  S   S201      1.0  0.61003  0.82840  0.64495  1.0000
  Fe  Fe101     1.0  0.69838  0.81134  0.62387  1.0000
  S   S202      1.0  0.69610  0.76529  0.62487  1.0000
  S   S203      1.0  0.69259  0.88556  0.61904  1.0000
  S   S204      1.0  0.66285  0.81464  0.60544  1.0000
  Fe  Fe102     1.0  0.80937  0.64187  0.41246  1.0000
  S   S205      1.0  0.84343  0.68779  0.39663  1.0000
  S   S206      1.0  0.77014  0.60253  0.39703  1.0000
  Fe  Fe103     1.0  0.83454  0.66155  0.45542  1.0000
  S   S207      1.0  0.86978  0.70889  0.44298  1.0000
  S   S208      1.0  0.83712  0.64690  0.48846  1.0000
  Fe  Fe104     1.0  0.83199  0.70711  0.42437  1.0000
  S   S209      1.0  0.82781  0.74973  0.42090  1.0000
  Fe  Fe105     1.0  0.87802  0.68538  0.41684  1.0000
  S   S210      1.0  0.92588  0.69471  0.40778  1.0000
  S   S211      1.0  0.79577  0.66145  0.43912  1.0000
  S   S212      1.0  0.84479  0.63772  0.43031  1.0000
  Fe  Fe106     1.0  0.81232  0.69309  0.59563  1.0000
  S   S213      1.0  0.84673  0.73899  0.60625  1.0000
  S   S214      1.0  0.79295  0.69442  0.56456  1.0000
  Fe  Fe107     1.0  0.81963  0.72214  0.63693  1.0000
  C   C686      1.0  0.97487  0.82811  0.63629  1.0000
  Fe  Fe108     1.0  0.87228  0.71612  0.61777  1.0000
  S   S215      1.0  0.92241  0.73546  0.60807  1.0000
  S   S216      1.0  0.78318  0.67723  0.62576  1.0000
  S   S217      1.0  0.83996  0.67133  0.60468  1.0000
  C   C687      1.0  0.95052  0.74584  0.62645  1.0000
  H   H833      1.0  0.65540  0.91519  0.65160  1.0000
  C   C688      1.0  0.82564  0.53873  0.36685  1.0000
  C   C689      1.0  0.75181  0.98223  0.42865  1.0000
  C   C690      1.0  0.95606  0.72789  0.41759  1.0000
  H   H834      1.0  0.86380  0.65126  0.64015  1.0000
  C   C691      1.0  0.95218  0.75266  0.42224  1.0000
  H   H835      1.0  0.67805  0.86989  0.35477  1.0000
  H   H836      1.0  0.93041  0.75145  0.42002  1.0000
  C   C692      1.0  0.82532  0.66116  0.50918  1.0000
  C   C693      1.0  0.83103  0.65535  0.52954  1.0000
  C   C694      1.0  0.82161  0.66593  0.54654  1.0000
  C   C695      1.0  0.80613  0.68216  0.54331  1.0000
  C   C696      1.0  0.80064  0.68828  0.52288  1.0000
  C   C697      1.0  0.81044  0.67801  0.50579  1.0000
  H   H837      1.0  0.84245  0.64226  0.53223  1.0000
  H   H838      1.0  0.82564  0.66079  0.56216  1.0000
  H   H839      1.0  0.78862  0.70079  0.52032  1.0000
  H   H840      1.0  0.80600  0.68253  0.49008  1.0000
  C   C698      1.0  0.67696  0.67343  0.34465  1.0000
  S   S218      1.0  0.75908  0.90970  0.65838  1.0000
  H   H841      1.0  0.71320  0.92405  0.38675  1.0000
  C   C699      1.0  0.75561  0.96795  0.55733  1.0000
  H   H842      1.0  0.96198  0.77970  0.47220  1.0000
  H   H843      1.0  0.72409  0.64486  0.33588  1.0000
  C   C700      1.0  0.72778  0.76321  0.63366  1.0000
  H   H844      1.0  0.75420  0.98097  0.47412  1.0000
  C   C701      1.0  0.75426  0.73407  0.63722  1.0000
  C   C702      1.0  0.72858  0.73602  0.63154  1.0000
  H   H845      1.0  0.88773  0.71034  0.48654  1.0000
  C   C703      1.0  0.77242  0.73260  0.48074  1.0000
  C   C704      1.0  0.73374  0.74296  0.41953  1.0000
  C   C705      1.0  0.76063  0.77114  0.41492  1.0000
  C   C706      1.0  0.78943  0.77309  0.41582  1.0000
  C   C707      1.0  0.79148  0.74700  0.42153  1.0000
  C   C708      1.0  0.76462  0.71918  0.42710  1.0000
  C   C709      1.0  0.73583  0.71713  0.42596  1.0000
  H   H846      1.0  0.75923  0.79115  0.40989  1.0000
  H   H847      1.0  0.81016  0.79475  0.41162  1.0000
  H   H848      1.0  0.76602  0.69917  0.43200  1.0000
  H   H849      1.0  0.71506  0.69534  0.42972  1.0000
  C   C710      1.0  0.74976  0.92749  0.41771  1.0000
  C   C711      1.0  0.77518  0.95631  0.41127  1.0000
  C   C712      1.0  0.72568  0.92616  0.43005  1.0000
  H   H850      1.0  0.79387  0.95750  0.40169  1.0000
  H   H851      1.0  0.70614  0.90416  0.43527  1.0000
  C   C713      1.0  0.67175  0.81338  0.50849  1.0000
  C   C714      1.0  0.69264  0.84450  0.50339  1.0000
  C   C715      1.0  0.70495  0.86493  0.51935  1.0000
  C   C716      1.0  0.69654  0.85427  0.54038  1.0000
  C   C717      1.0  0.67589  0.82311  0.54536  1.0000
  C   C718      1.0  0.66357  0.80275  0.52947  1.0000
  H   H852      1.0  0.69908  0.85283  0.48721  1.0000
  H   H853      1.0  0.72099  0.88902  0.51540  1.0000
  H   H854      1.0  0.66920  0.81465  0.56143  1.0000
  H   H855      1.0  0.64735  0.77871  0.53348  1.0000
  H   H856      1.0  0.97383  0.79887  0.43224  1.0000
  C   C719      1.0  0.57376  0.74716  0.34697  1.0000
  C   C720      1.0  0.59018  0.76189  0.36434  1.0000
  C   C721      1.0  0.57904  0.77597  0.37760  1.0000
  C   C722      1.0  0.55152  0.77528  0.37328  1.0000
  C   C723      1.0  0.53507  0.76045  0.35601  1.0000
  H   H857      1.0  0.61136  0.76231  0.36745  1.0000
  H   H858      1.0  0.54273  0.78611  0.38344  1.0000
  H   H859      1.0  0.67891  0.97713  0.33739  1.0000
  H   H860      1.0  0.80980  0.50924  0.32917  1.0000
  C   C724      1.0  0.75050  0.54645  0.34918  1.0000
  C   C725      1.0  0.74858  0.55974  0.36761  1.0000
  C   C726      1.0  0.77384  0.58695  0.37362  1.0000
  C   C727      1.0  0.80097  0.60111  0.36084  1.0000
  C   C728      1.0  0.80287  0.58781  0.34236  1.0000
  H   H861      1.0  0.73086  0.52554  0.34477  1.0000
  H   H862      1.0  0.72744  0.54879  0.37735  1.0000
  H   H863      1.0  0.82054  0.62212  0.36526  1.0000
  Fe  Fe109     1.0  0.65711  0.83849  0.63259  1.0000
  Fe  Fe110     1.0  0.81412  0.65940  0.63603  1.0000
  C   C729      1.0  0.90382  0.71731  0.49934  1.0000
  C   C730      1.0  0.75530  0.97131  0.53563  1.0000
  H   H864      1.0  0.93018  0.79304  0.62786  1.0000
  H   H865      1.0  0.78719  0.71865  0.35793  1.0000
  C   C731      1.0  0.72431  0.96596  0.37019  1.0000
  C   C732      1.0  0.76794  0.65792  0.35956  1.0000
  C   C733      1.0  0.78943  0.53088  0.40299  1.0000
  H   H866      1.0  0.51389  0.76002  0.35297  1.0000
  H   H867      1.0  0.75188  0.80925  0.64396  1.0000
  H   H868      1.0  0.82401  0.59875  0.33262  1.0000
  H   H869      1.0  0.72892  0.69970  0.49457  1.0000
  H   H870      1.0  0.92559  0.72479  0.53508  1.0000
  H   H871      1.0  0.76201  0.95708  0.62786  1.0000
  C   C734      1.0  0.77944  0.70575  0.37344  1.0000
  H   H872      1.0  0.98571  0.81650  0.62919  1.0000
  H   H873      1.0  0.92618  0.71050  0.46406  1.0000
  C   C735      1.0  0.71521  0.65757  0.34381  1.0000
  H   H874      1.0  0.69055  0.87410  0.38092  1.0000
  H   H875      1.0  0.63132  0.85937  0.40441  1.0000
  C   C736      1.0  0.94936  0.73890  0.52947  1.0000
  H   H876      1.0  0.79983  0.70693  0.38058  1.0000
  C   C737      1.0  0.71492  0.98116  0.35634  1.0000
  H   H877      1.0  0.93405  0.77868  0.49076  1.0000
  C   C738      1.0  0.94415  0.74746  0.64758  1.0000
  C   C739      1.0  0.68071  0.73436  0.47304  1.0000
  N   N48       1.0  0.75456  0.67354  0.37157  1.0000
  C   C740      1.0  0.98656  0.74096  0.36855  1.0000
  C   C741      1.0  0.74459  0.65763  0.39265  1.0000
  H   H878      1.0  0.79679  0.80534  0.65494  1.0000
  C   C742      1.0  0.72808  0.67329  0.36200  1.0000
  C   C743      1.0  0.97686  0.77958  0.42901  1.0000
  C   C744      1.0  0.88696  0.61554  0.65204  1.0000
  C   C745      1.0  0.93878  0.76457  0.47997  1.0000
  C   C746      1.0  0.68887  0.68884  0.36257  1.0000
  H   H879      1.0  0.73217  0.58662  0.64169  1.0000
  H   H880      1.0  0.94259  0.66314  0.64506  1.0000
  H   H881      1.0  0.89984  0.69547  0.50735  1.0000
  H   H882      1.0  0.72934  0.96069  0.49657  1.0000
  H   H883      1.0  0.84016  0.54375  0.35283  1.0000
  C   C747      1.0  0.97573  0.86887  0.65561  1.0000
  H   H884      1.0  0.85360  0.58543  0.37548  1.0000
  H   H885      1.0  0.82124  0.57845  0.40721  1.0000
  C   C748      1.0  0.71395  0.68875  0.37115  1.0000
  C   C749      1.0  0.94297  0.81428  0.63560  1.0000
  H   H886      1.0  0.98771  0.71087  0.41649  1.0000
  C   C750      1.0  0.67020  0.86723  0.37150  1.0000
  H   H887      1.0  0.70948  0.71652  0.62515  1.0000
  H   H888      1.0  0.70032  0.91128  0.66000  1.0000
  H   H889      1.0  0.64433  0.92310  0.34725  1.0000
  C   C751      1.0  0.62510  0.87025  0.36526  1.0000
  C   C752      1.0  0.70491  0.93479  0.37596  1.0000
  H   H890      1.0  0.65614  0.72663  0.47722  1.0000
  C   C753      1.0  0.98019  0.75312  0.61952  1.0000
  C   C754      1.0  0.69006  0.65780  0.33532  1.0000
  H   H891      1.0  0.70749  0.53321  0.65519  1.0000
  C   C755      1.0  0.71889  0.57973  0.65655  1.0000
  H   H892      1.0  0.69970  0.95873  0.65292  1.0000
  H   H893      1.0  0.65748  0.67358  0.33806  1.0000
  N   N49       1.0  0.78576  0.77300  0.57348  1.0000
  C   C756      1.0  0.76125  0.74134  0.58027  1.0000
  C   C757      1.0  0.81064  0.77083  0.56200  1.0000
  C   C758      1.0  0.79899  0.79015  0.59226  1.0000
  C   C759      1.0  0.77249  0.78834  0.56091  1.0000
  C   C760      1.0  0.75060  0.79490  0.57027  1.0000
  C   C761      1.0  0.78038  0.79686  0.53924  1.0000
  C   C762      1.0  0.73846  0.81018  0.55891  1.0000
  C   C763      1.0  0.76794  0.81203  0.52801  1.0000
  C   C764      1.0  0.74722  0.81887  0.53786  1.0000
  H   H894      1.0  0.74188  0.74103  0.58928  1.0000
  H   H895      1.0  0.75166  0.72715  0.56667  1.0000
  H   H896      1.0  0.77008  0.72936  0.59043  1.0000
  H   H897      1.0  0.80195  0.75589  0.54864  1.0000
  H   H898      1.0  0.82067  0.76002  0.57211  1.0000
  H   H899      1.0  0.82982  0.79390  0.55631  1.0000
  H   H900      1.0  0.78133  0.79010  0.60305  1.0000
  H   H901      1.0  0.81013  0.77980  0.60172  1.0000
  H   H902      1.0  0.81647  0.81457  0.58793  1.0000
  H   H903      1.0  0.74273  0.78842  0.58652  1.0000
  H   H904      1.0  0.79628  0.79230  0.53063  1.0000
  H   H905      1.0  0.72236  0.81564  0.56655  1.0000
  H   H906      1.0  0.77460  0.81881  0.51159  1.0000
  H   H907      1.0  0.73793  0.83100  0.52920  1.0000
  H   H908      1.0  0.75121  0.63294  0.35874  1.0000
  H   H909      1.0  0.72206  0.70092  0.38513  1.0000
  H   H910      1.0  0.83376  0.49768  0.34276  1.0000
  H   H911      1.0  0.74547  0.95032  0.52756  1.0000
  H   H912      1.0  0.98531  0.75204  0.60320  1.0000
  H   H913      1.0  0.75472  0.71310  0.63535  1.0000
  H   H914      1.0  0.76707  0.96451  0.49359  1.0000
  C   C765      1.0  0.77638  0.98363  0.41689  1.0000
  S   S219      1.0  0.80061  0.61127  0.64875  1.0000
  S   S220      1.0  0.84849  0.70320  0.64976  1.0000
  C   C766      1.0  0.94329  0.71945  0.47627  1.0000
  C   C767      1.0  0.77133  0.94921  0.65933  1.0000
  H   H915      1.0  0.86167  0.60226  0.65017  1.0000
  H   H916      1.0  0.96607  0.73364  0.46772  1.0000
  H   H917      1.0  0.92225  0.75808  0.46743  1.0000
  C   C768      1.0  0.94373  0.85464  0.65500  1.0000
  C   C769      1.0  0.78140  0.50623  0.39041  1.0000
  H   H918      1.0  0.89758  0.68707  0.64377  1.0000
  N   N50       1.0  0.69713  0.73272  0.49136  1.0000
  H   H919      1.0  0.77230  0.71872  0.38354  1.0000
  C   C770      1.0  0.67939  0.70086  0.50099  1.0000
  C   C771      1.0  0.69681  0.75362  0.50690  1.0000
  C   C772      1.0  0.72931  0.74231  0.48475  1.0000
  C   C773      1.0  0.74901  0.77208  0.47507  1.0000
  C   C774      1.0  0.77931  0.78159  0.46834  1.0000
  C   C775      1.0  0.79097  0.76187  0.47115  1.0000
  C   C776      1.0  0.77076  0.96740  0.64237  1.0000
  H   H920      1.0  0.94299  0.69931  0.48431  1.0000
  H   H921      1.0  0.67781  0.68382  0.48982  1.0000
  H   H922      1.0  0.65533  0.69453  0.50569  1.0000
  H   H923      1.0  0.70965  0.75380  0.52069  1.0000
  H   H924      1.0  0.70708  0.77771  0.50027  1.0000
  H   H925      1.0  0.67294  0.74683  0.51253  1.0000
  H   H926      1.0  0.74088  0.78803  0.47222  1.0000
  H   H927      1.0  0.79353  0.80402  0.46028  1.0000
  H   H928      1.0  0.81416  0.76894  0.46524  1.0000
  H   H929      1.0  0.73484  0.66820  0.40294  1.0000
  C   C777      1.0  0.95853  0.74697  0.50789  1.0000
  C   C778      1.0  0.61686  0.75325  0.64394  1.0000
  H   H930      1.0  0.69057  0.75811  0.46604  1.0000
  H   H931      1.0  0.62877  0.87044  0.34807  1.0000
  C   C779      1.0  0.72655  0.95344  0.43527  1.0000
  C   C780      1.0  0.54608  0.74627  0.34275  1.0000
  N   N51       1.0  0.89667  0.64708  0.65828  1.0000
  H   H932      1.0  0.78148  0.71714  0.48244  1.0000
  C   C781      1.0  0.98468  0.73004  0.42004  1.0000
  H   H933      1.0  0.68161  0.72011  0.46050  1.0000
  H   H934      1.0  0.63860  0.76021  0.63464  1.0000
  C   C782      1.0  0.75237  0.78821  0.64217  1.0000
  H   H935      1.0  0.78803  0.65899  0.36714  1.0000
  C   C783      1.0  0.97100  0.74914  0.54471  1.0000
  N   N52       1.0  0.93632  0.73711  0.49131  1.0000
  H   H936      1.0  0.89634  0.72931  0.51021  1.0000
  N   N53       1.0  0.65474  0.88524  0.37552  1.0000
  H   H937      1.0  0.77509  0.52829  0.41676  1.0000
  H   H938      1.0  0.89938  0.66213  0.62584  1.0000
  H   H939      1.0  0.59812  0.74089  0.63327  1.0000
  C   C784      1.0  0.79910  0.50945  0.37182  1.0000
  H   H940      1.0  0.76406  0.65809  0.40064  1.0000
  H   H941      1.0  0.96204  0.72782  0.36651  1.0000
  H   H942      1.0  0.68978  0.69812  0.51535  1.0000
  C   C785      1.0  0.68609  0.96519  0.34819  1.0000
  H   H943      1.0  0.61116  0.88125  0.36875  1.0000
  H   H944      1.0  0.76758  0.99082  0.58601  1.0000
  H   H945      1.0  0.66849  0.89147  0.40731  1.0000
  C   C786      1.0  0.75383  0.97657  0.49129  1.0000
  H   H946      1.0  0.77618  0.66874  0.34349  1.0000
  C   C787      1.0  0.64764  0.88340  0.39829  1.0000
  C   C788      1.0  0.74203  0.72280  0.48753  1.0000
  H   H947      1.0  0.67868  0.70097  0.36997  1.0000
  C   C789      1.0  0.77898  0.75904  0.64563  1.0000
  H   H948      1.0  0.63713  0.89762  0.40213  1.0000
  C   C790      1.0  0.67527  0.91785  0.36822  1.0000
  H   H949      1.0  0.61048  0.84563  0.37088  1.0000
  H   H950      1.0  0.70751  0.95221  0.44443  1.0000
  C   C791      1.0  0.66639  0.93399  0.35402  1.0000
  H   H951      1.0  0.65453  0.84222  0.37556  1.0000
  C   C792      1.0  0.83371  0.56306  0.37976  1.0000
  S   S221      1.0  0.81173  0.75727  0.65242  1.0000
  H   H952      1.0  0.74638  0.94522  0.56503  1.0000
  H   H953      1.0  0.74666  0.97836  0.37667  1.0000
  H   H954      1.0  0.89825  0.61590  0.63675  1.0000
  H   H955      1.0  0.72672  0.63301  0.39184  1.0000
  H   H956      1.0  0.63431  0.71209  0.64606  1.0000
  H   H957      1.0  0.56380  0.74355  0.65516  1.0000
  C   C793      1.0  0.77774  0.56034  0.33651  1.0000
  H   H958      1.0  0.61735  0.77479  0.64795  1.0000
  C   C794      1.0  0.81553  0.55920  0.39768  1.0000
  C   C795      1.0  0.88906  0.66253  0.64134  1.0000
  S   S222      1.0  0.68957  0.83158  0.65187  1.0000
  C   C796      1.0  0.77779  0.78597  0.64835  1.0000
  H   H959      1.0  0.58248  0.73629  0.33678  1.0000
  H   H960      1.0  0.59292  0.69191  0.64710  1.0000
  C   C797      1.0  0.61332  0.70596  0.65617  1.0000
  H   H961      1.0  0.92153  0.74273  0.65292  1.0000
  H   H962      1.0  0.96344  0.74294  0.56111  1.0000
  C   C798      1.0  0.92740  0.82743  0.64501  1.0000
  H   H963      1.0  0.90257  0.81636  0.64467  1.0000
  C   C799      1.0  0.93050  0.66367  0.65973  1.0000
  H   H964      1.0  0.72939  0.62569  0.66215  1.0000
  H   H965      1.0  0.98677  0.78355  0.37093  1.0000
  C   C800      1.0  0.96744  0.75608  0.66171  1.0000
  S   S223      1.0  0.74828  0.55514  0.74118  1.0000
  S   S224      1.0  0.55267  0.76829  0.73603  1.0000
  H   H966      1.0  0.78356  0.94902  0.69106  1.0000
  H   H967      1.0  0.70186  0.61099  0.69695  1.0000
  C   C801      1.0  0.68756  0.56291  0.69579  1.0000
  H   H968      1.0  0.78569  0.63647  0.68471  1.0000
  C   C802      1.0  0.53090  0.70629  0.70172  1.0000
  C   C803      1.0  0.64514  0.90730  0.66780  1.0000
  H   H969      1.0  0.63570  0.50578  0.71013  1.0000
  N   N54       1.0  0.66829  0.91146  0.68305  1.0000
  C   C804      1.0  0.68872  0.94453  0.68614  1.0000
  H   H970      1.0  0.63477  0.86856  0.69949  1.0000
  C   C805      1.0  0.57963  0.70837  0.69571  1.0000
  C   C806      1.0  0.59462  0.81231  0.67046  1.0000
  C   C807      1.0  0.70199  0.59348  0.68772  1.0000
  H   H971      1.0  0.85428  0.59772  0.68614  1.0000
  H   H972      1.0  0.66843  0.51317  0.72499  1.0000
  H   H973      1.0  0.68764  0.94148  0.72039  1.0000
  H   H974      1.0  0.55008  0.80629  0.66465  1.0000
  H   H975      1.0  0.76798  0.53269  0.70610  1.0000
  C   C808      1.0  0.56833  0.78561  0.71079  1.0000
  C   C809      1.0  0.59923  0.79518  0.70535  1.0000
  C   C810      1.0  0.61234  0.80852  0.68530  1.0000
  C   C811      1.0  0.69757  0.49930  0.69638  1.0000
  C   C812      1.0  0.65430  0.50022  0.71204  1.0000
  C   C813      1.0  0.55079  0.78997  0.69607  1.0000
  H   H976      1.0  0.61299  0.79208  0.71672  1.0000
  H   H977      1.0  0.63616  0.81605  0.68140  1.0000
  H   H978      1.0  0.96263  0.75773  0.67799  1.0000
  H   H979      1.0  0.52705  0.78287  0.70008  1.0000
  C   C814      1.0  0.76422  0.57121  0.71573  1.0000
  C   C815      1.0  0.76982  0.60078  0.70965  1.0000
  C   C816      1.0  0.78165  0.61378  0.68930  1.0000
  C   C817      1.0  0.78757  0.59705  0.67484  1.0000
  C   C818      1.0  0.78250  0.56776  0.68104  1.0000
  C   C819      1.0  0.77129  0.55506  0.70146  1.0000
  H   H980      1.0  0.76475  0.61359  0.72066  1.0000
  C   C820      1.0  0.70294  0.96601  0.66869  1.0000
  C   C821      1.0  0.53507  0.72154  0.68232  1.0000
  H   H981      1.0  0.83127  0.60098  0.71882  1.0000
  H   H982      1.0  0.62742  0.88265  0.66687  1.0000
  C   C822      1.0  0.86095  0.62048  0.69080  1.0000
  N   N55       1.0  0.67344  0.50708  0.69230  1.0000
  H   H983      1.0  0.66689  0.89187  0.71393  1.0000
  C   C823      1.0  0.88786  0.67604  0.68619  1.0000
  H   H984      1.0  0.64274  0.73737  0.68801  1.0000
  C   C824      1.0  0.64094  0.75151  0.67506  1.0000
  H   H985      1.0  0.51069  0.70017  0.71178  1.0000
  H   H986      1.0  0.63755  0.90221  0.71000  1.0000
  C   C825      1.0  0.84736  0.62197  0.70972  1.0000
  C   C826      1.0  0.85349  0.65021  0.71668  1.0000
  C   C827      1.0  0.88165  0.64762  0.67837  1.0000
  H   H987      1.0  0.71143  0.51240  0.70931  1.0000
  H   H988      1.0  0.59605  0.70253  0.70155  1.0000
  C   C828      1.0  0.87376  0.67722  0.70496  1.0000
  H   H989      1.0  0.90349  0.69761  0.67773  1.0000
  C   C829      1.0  0.65122  0.89294  0.70253  1.0000
  H   H990      1.0  0.78732  0.55482  0.67000  1.0000
  Fe  Fe111     1.0  0.50182  0.74677  0.74559  1.0000
  C   C830      1.0  0.68813  0.53964  0.68422  1.0000
  C   C831      1.0  0.55311  0.69969  0.70841  1.0000
  H   H991      1.0  0.51795  0.72716  0.67741  1.0000
  H   H992      1.0  0.67674  0.55829  0.71129  1.0000
  H   H993      1.0  0.66271  0.76081  0.66514  1.0000
  C   C832      1.0  0.56391  0.80327  0.67599  1.0000
  Fe  Fe112     1.0  0.72982  0.50462  0.75059  1.0000
  H   H994      1.0  0.84222  0.65106  0.73110  1.0000
  H   H995      1.0  0.87842  0.69920  0.71037  1.0000
  H   H996      1.0  0.93991  0.68841  0.66243  1.0000
  H   H997      1.0  0.93719  0.65348  0.67279  1.0000
  H   H998      1.0  0.54990  0.68826  0.72370  1.0000
  H   H999      1.0  0.64063  0.77128  0.68193  1.0000
  C   C833      1.0  0.58501  0.72464  0.67603  1.0000
  H   H1000     1.0  0.70454  0.90080  0.68590  1.0000
  C   C834      1.0  0.69645  0.95613  0.70623  1.0000
  C   C835      1.0  0.68715  0.89877  0.67481  1.0000
  H   H1001     1.0  0.71368  0.50455  0.68257  1.0000
  C   C836      1.0  0.78292  0.96279  0.67794  1.0000
  H   H1002     1.0  0.89306  0.60275  0.66362  1.0000
  H   H1003     1.0  0.67273  0.87413  0.67162  1.0000
  C   C837      1.0  0.70464  0.54914  0.66446  1.0000
  C   C838      1.0  0.56174  0.73085  0.66964  1.0000
  H   H1004     1.0  0.61278  0.69107  0.66959  1.0000
  C   C839      1.0  0.71679  0.98736  0.70852  1.0000
  H   H1005     1.0  0.63294  0.91978  0.67210  1.0000
  C   C840      1.0  0.71751  0.60184  0.66812  1.0000
  H   H1006     1.0  0.63611  0.49297  0.67206  1.0000
  H   H1007     1.0  0.98686  0.88979  0.66369  1.0000
  N   N56       1.0  0.61344  0.73382  0.66296  1.0000
  H   H1008     1.0  0.93142  0.86466  0.66240  1.0000
