data_image0
_chemical_formula_structural       SHSCH2NHC2HSFeS2FeS2FeSFeNS2FeS2FeS2FeSFeS3FeHSCHNC2H3S2CSHFeSFeSH2SHSH3CHNCH2CHCHC3NHCH2C3SHCHC2H4C6H4C6H3FeC6H4C6H4C6H4C6H4C6H3C8H4CH3C3HSH3CHC3NHCHCH5FeHCHC2FeHCH4CH3NC9H14C2H2C2HC3H2CH3CH2CH5CHCHSH2CHCSHC3H4C3H2SCH2C2H3CH3CHCH3C5HCH2CH2NCHC2FeC2NH2CSH2NSH4CHC2NCHCSH2CHNCHCFeSCH3C4H3C3H4C3H6CHC2SH2CH2CH2NCH2C2NCH3C4H10NFe2H4CHFeH2C2HSNFeS2FeS2HCFeS3FeS2FeCHFeHFeS3HSC6H3CH2C3HCHC4NHC4H2CSCH2C6H2Fe2HC5H3CSHNHCSFeSH3C3H3CH9SCH4CH2CH2C4H3FeC2HSHSFeHCHSC2H2CHC2H4C2FeCHS2HC2HCHSCFeNC9H9CHC2H10CH2CHCH5CHC2FeHSHCH2SCHCSFeS2FeS2FeSFeCS2FeS2FeS2FeSFeS3FeHSH6C2S2FeSHFeSFeSH2SH3CH3SHC2HCH3CH3CH2FeH11C7H4C6H4C6H4C6H4CH2C5H2CHC5H3C6H4C6H2NC6H6C2H3C2NCHNHSH2CHC2HC3HCHSHCH4CH2C4H2C3SHNSH4CHNC6HCH13C2HNSH2C4HFe2C4NC9H5C3HCH9C2HFeC2H6NHSCH2CHCSHCHCH2N2H2CSCSC4H4CSH3CHCH2CHCH2CHSCH4SHCH3CFeH3SCHCH4C3H5CHCHCHCH4CHC2SHS3FeS2FeS2FeSFeS3FeS2FeCSFe3S3CHC6H4C2HC3H2C3S2HC4HC3SH2CH3C3H3SC5H2C2HCSCH3FeCHNH2CH2C2H3SH2CH5CH2CHFeC2SHFeC4HSC2H2SH2CSCH2C2HCHFeCH4NH3CHCHCFeH3CHCNHC2HCH2SHCSH2SCHSFeS2FeS2FeSFeNS2FeS2FeS2FeSFeS3FeHSH4SHCNHSFeSHFeSFeSHCHCHCHCH4CH2CHCHCSCHCHFeCFeCNSHFeC3HSC7H5C5H4C6H4C6H4C6H3SC4H6C6H4C6H4CHC2HCH4CH2NH5SC2H2C2HCHCHCHCHCH3CNC9H17CHCHC4HFeHC3H2SCSCH7NC9H2NH2SHCH8CHCSC3HS2NHSHNCH2SH2CH2CHC2H2C8HCHC2H2CH3CH2C3H2CNH2FeCHC2HCHC4NHC3HC2H4CH2C2HCHCHCH5CH2CHS2H7CH6CHCHCH2CH2CHS2FeS2FeS2FeCFeS3FeS2FeH2FeCFeS3HSC6H4CH2C2H3C2HCH2C4HC4HCFeH4FeC2H3C5H2C2NC9H14FeNC3HCHNHFeC2H3SCH2CSH3FeHC3HCSHCHCH3C3H2SCH6C2SH3C2SHCHSHC3H3FeCH2SH3C2HCHNH2SHCH2C2H2CH4NCSC2H3CHSCSHSFeS2FeS2FeSFeCS2FeS2FeS2FeSFeS3FeHSH3CH2CHCSCSHFeSFeSH2CHCHC2H4CHCH2CHFeC2H3SFeH3C2FeHNC10H5C5H4C6H4C6H4C6HCH2C6H4C6H3C7H2C4HSNC9H16NCH3C2H8C2HCSCFeH3SH2C5HC3H3SH2C2HC5SC2HCH2SCNCH3C4H4NC4H2CHSH2FeH6N2CHCNH3CN2FeH7C5H7C2HCHC3HSHSHC2HC2SC2H4C2N2H4CH2C3HSHCHC2H4CHCH2CH5SHCHFeHCH3CH5CNCH3CH2C2H2SH2CH8C2H6CSC3H6S2FeS2FeS2H2FeS3FeS2FeCFe2HFeS3CSC6HCH4C4H2C4H2C4H2C4HSH2FeC2HC2SC6H2CN2HC7H3CH2FeSH2C3H6FeCHCSFeC2HCNHCHCHFeHCH3CH2CSCHCSHCH5C2H3CH2C2HCHCHCH3CH2C2H4FeHSH3CHCHCH3CSC5HCSHSHCH3CH
_chemical_formula_sum              "S256 H1152 C960 N64 Fe128"
_cell_length_a       47.8807
_cell_length_b       46.7911
_cell_length_c       42.0935
_cell_angle_alpha    82.6241
_cell_angle_beta     87.9556
_cell_angle_gamma    124.65

_space_group_name_H-M_alt    "P 1"
_space_group_IT_number       1

loop_
  _space_group_symop_operation_xyz
  'x, y, z'

loop_
  _atom_site_type_symbol
  _atom_site_label
  _atom_site_symmetry_multiplicity
  _atom_site_fract_x
  _atom_site_fract_y
  _atom_site_fract_z
  _atom_site_occupancy
  S   S1        1.0  0.42540  0.25762  0.98856  1.0000
  H   H1        1.0  0.16432  0.01697  0.23483  1.0000
  S   S2        1.0  0.10349  0.01000  0.35988  1.0000
  C   C1        1.0  0.40096  0.46589  0.41494  1.0000
  H   H2        1.0  0.08640  0.01150  0.20847  1.0000
  H   H3        1.0  0.02020  0.12242  0.03855  1.0000
  N   N1        1.0  0.99271  0.99499  0.47607  1.0000
  H   H4        1.0  0.12311  0.13745  0.44914  1.0000
  C   C2        1.0  0.07035  0.10774  0.02253  1.0000
  C   C3        1.0  0.20234  0.19943  0.46599  1.0000
  H   H5        1.0  0.30122  0.12363  0.45472  1.0000
  S   S3        1.0  0.04107  0.03266  0.31800  1.0000
  Fe  Fe1       1.0  0.08858  0.22773  0.11397  1.0000
  S   S4        1.0  0.07161  0.18931  0.07920  1.0000
  S   S5        1.0  0.12474  0.28762  0.09661  1.0000
  Fe  Fe2       1.0  0.05021  0.16834  0.17009  1.0000
  S   S6        1.0  0.02949  0.12530  0.14054  1.0000
  S   S7        1.0  0.03628  0.15123  0.22352  1.0000
  Fe  Fe3       1.0  0.08321  0.15775  0.11450  1.0000
  S   S8        1.0  0.10346  0.12733  0.09659  1.0000
  Fe  Fe4       1.0  0.01911  0.15896  0.10818  1.0000
  N   N2        1.0  0.24972  0.07068  0.42389  1.0000
  S   S9        1.0  0.10462  0.19877  0.14656  1.0000
  S   S10       1.0  0.03522  0.19959  0.14005  1.0000
  Fe  Fe5       1.0  0.31232  0.13231  0.29337  1.0000
  S   S11       1.0  0.35348  0.19060  0.27713  1.0000
  S   S12       1.0  0.25933  0.12260  0.29366  1.0000
  Fe  Fe6       1.0  0.36640  0.11560  0.29658  1.0000
  S   S13       1.0  0.41033  0.17252  0.27981  1.0000
  S   S14       1.0  0.37253  0.06964  0.30479  1.0000
  Fe  Fe7       1.0  0.38301  0.18491  0.31404  1.0000
  S   S15       1.0  0.41574  0.22692  0.34408  1.0000
  Fe  Fe8       1.0  0.37779  0.17481  0.24366  1.0000
  S   S16       1.0  0.40428  0.21223  0.19529  1.0000
  S   S17       1.0  0.34054  0.12752  0.33349  1.0000
  S   S18       1.0  0.33535  0.11686  0.25728  1.0000
  Fe  Fe9       1.0  0.37200  0.21191  0.01034  1.0000
  H   H6        1.0  0.25136  0.17902  0.37558  1.0000
  S   S19       1.0  0.34755  0.17959  0.06080  1.0000
  C   C4        1.0  0.98961  0.15745  0.35724  1.0000
  H   H7        1.0  0.37667  0.25276  0.31762  1.0000
  N   N3        1.0  0.37860  0.47659  0.42503  1.0000
  C   C5        1.0  0.06376  0.31149  0.07803  1.0000
  C   C6        1.0  0.35515  0.45077  0.45421  1.0000
  H   H8        1.0  0.20724  0.12116  0.99499  1.0000
  H   H9        1.0  0.46556  0.19537  0.00250  1.0000
  H   H10       1.0  0.13853  0.09767  0.44361  1.0000
  S   S20       1.0  0.24108  0.02560  0.13481  1.0000
  S   S21       1.0  0.14259  0.41213  0.16272  1.0000
  C   C7        1.0  0.02400  0.33893  0.19628  1.0000
  S   S22       1.0  0.24339  0.05424  0.20227  1.0000
  H   H11       1.0  0.23675  0.20042  0.41805  1.0000
  Fe  Fe10      1.0  0.20776  0.03590  0.16437  1.0000
  S   S23       1.0  0.19098  0.07369  0.15683  1.0000
  Fe  Fe11      1.0  0.27426  0.04056  0.17479  1.0000
  S   S24       1.0  0.33244  0.07945  0.17165  1.0000
  H   H12       1.0  0.34380  0.18522  0.43117  1.0000
  H   H13       1.0  0.42142  0.11225  0.02055  1.0000
  S   S25       1.0  0.47111  0.46787  0.30678  1.0000
  H   H14       1.0  0.21014  0.21986  0.44422  1.0000
  S   S26       1.0  0.47597  0.03604  0.36108  1.0000
  H   H15       1.0  0.19920  0.12205  0.29211  1.0000
  H   H16       1.0  0.33634  0.42437  0.44801  1.0000
  H   H17       1.0  0.04061  0.19785  0.26561  1.0000
  C   C8        1.0  0.21464  0.14993  0.06699  1.0000
  H   H18       1.0  0.46544  0.14406  0.02137  1.0000
  N   N4        1.0  0.11797  0.01334  0.24491  1.0000
  C   C9        1.0  0.25594  0.05026  0.40414  1.0000
  H   H19       1.0  0.47588  0.46295  0.12719  1.0000
  H   H20       1.0  0.10385  0.42171  0.22696  1.0000
  C   C10       1.0  0.35807  0.99217  0.39356  1.0000
  H   H21       1.0  0.03711  0.43319  0.25679  1.0000
  C   C11       1.0  0.42467  0.10439  0.42521  1.0000
  H   H22       1.0  0.23198  0.03066  0.46628  1.0000
  C   C12       1.0  0.01076  0.07916  0.01506  1.0000
  C   C13       1.0  0.48484  0.29558  0.23199  1.0000
  C   C14       1.0  0.46928  0.18362  0.21131  1.0000
  N   N5        1.0  0.99549  0.18140  0.29751  1.0000
  H   H23       1.0  0.22324  0.05071  0.33264  1.0000
  C   C15       1.0  0.00960  0.12116  0.37376  1.0000
  H   H24       1.0  0.16294  0.00851  0.35893  1.0000
  H   H25       1.0  0.10725  0.02365  0.29048  1.0000
  C   C16       1.0  0.48438  0.21950  0.20020  1.0000
  C   C17       1.0  0.39491  0.13444  0.05596  1.0000
  C   C18       1.0  0.22180  0.44490  0.32291  1.0000
  S   S27       1.0  0.22421  0.42990  0.38757  1.0000
  H   H26       1.0  0.03022  0.35023  0.02569  1.0000
  C   C19       1.0  0.23027  0.45836  0.35178  1.0000
  H   H27       1.0  0.03403  0.30506  0.00541  1.0000
  C   C20       1.0  0.22107  0.08307  0.04493  1.0000
  C   C21       1.0  0.01772  0.31201  0.10222  1.0000
  H   H28       1.0  0.45253  0.20939  0.13522  1.0000
  H   H29       1.0  0.21192  0.41756  0.32300  1.0000
  H   H30       1.0  0.05456  0.04254  0.03606  1.0000
  H   H31       1.0  0.19891  0.06824  0.06455  1.0000
  C   C22       1.0  0.38890  0.20266  0.15784  1.0000
  C   C23       1.0  0.36133  0.16893  0.15490  1.0000
  C   C24       1.0  0.34936  0.16217  0.12483  1.0000
  C   C25       1.0  0.36492  0.18914  0.09744  1.0000
  C   C26       1.0  0.39276  0.22293  0.10025  1.0000
  C   C27       1.0  0.40473  0.22964  0.13038  1.0000
  H   H32       1.0  0.34917  0.14803  0.17588  1.0000
  H   H33       1.0  0.32786  0.13585  0.12293  1.0000
  H   H34       1.0  0.40447  0.24402  0.07945  1.0000
  H   H35       1.0  0.42600  0.25593  0.13255  1.0000
  C   C28       1.0  0.43307  0.09992  0.12693  1.0000
  C   C29       1.0  0.40136  0.07149  0.12015  1.0000
  C   C30       1.0  0.37019  0.06507  0.13294  1.0000
  C   C31       1.0  0.37045  0.08732  0.15238  1.0000
  C   C32       1.0  0.40214  0.11611  0.15848  1.0000
  C   C33       1.0  0.43322  0.12219  0.14616  1.0000
  H   H36       1.0  0.40088  0.05407  0.10521  1.0000
  H   H37       1.0  0.34603  0.04291  0.12784  1.0000
  H   H38       1.0  0.40255  0.13382  0.17296  1.0000
  Fe  Fe12      1.0  0.21147  0.99829  0.22799  1.0000
  C   C34       1.0  0.12529  0.11036  0.11569  1.0000
  C   C35       1.0  0.12641  0.08455  0.10287  1.0000
  C   C36       1.0  0.14573  0.07249  0.11540  1.0000
  C   C37       1.0  0.16499  0.08675  0.14047  1.0000
  C   C38       1.0  0.16376  0.11244  0.15333  1.0000
  C   C39       1.0  0.14380  0.12387  0.14136  1.0000
  H   H39       1.0  0.11257  0.07412  0.08280  1.0000
  H   H40       1.0  0.14617  0.05266  0.10521  1.0000
  H   H41       1.0  0.17806  0.12337  0.17296  1.0000
  H   H42       1.0  0.14336  0.14375  0.15149  1.0000
  C   C40       1.0  0.13098  0.32138  0.11741  1.0000
  C   C41       1.0  0.15910  0.35659  0.10613  1.0000
  C   C42       1.0  0.16370  0.38455  0.12030  1.0000
  C   C43       1.0  0.13981  0.37771  0.14566  1.0000
  C   C44       1.0  0.11168  0.34249  0.15697  1.0000
  C   C45       1.0  0.10741  0.31447  0.14317  1.0000
  H   H43       1.0  0.17737  0.36233  0.08610  1.0000
  H   H44       1.0  0.18535  0.41143  0.11116  1.0000
  H   H45       1.0  0.09302  0.33682  0.17652  1.0000
  H   H46       1.0  0.08545  0.28764  0.15192  1.0000
  C   C46       1.0  0.02903  0.04972  0.23170  1.0000
  C   C47       1.0  0.05262  0.07861  0.20790  1.0000
  C   C48       1.0  0.05673  0.11076  0.20715  1.0000
  C   C49       1.0  0.03677  0.11387  0.22966  1.0000
  C   C50       1.0  0.01404  0.08533  0.25419  1.0000
  C   C51       1.0  0.01007  0.05318  0.25511  1.0000
  H   H47       1.0  0.06778  0.07623  0.19014  1.0000
  H   H48       1.0  0.07500  0.13296  0.18865  1.0000
  H   H49       1.0  0.23633  0.07199  0.04816  1.0000
  H   H50       1.0  0.21098  0.11831  0.36592  1.0000
  C   C52       1.0  0.43071  0.33402  0.33846  1.0000
  C   C53       1.0  0.45487  0.32914  0.35052  1.0000
  C   C54       1.0  0.45013  0.29633  0.35177  1.0000
  C   C55       1.0  0.42187  0.26848  0.34003  1.0000
  C   C56       1.0  0.39853  0.27389  0.32671  1.0000
  C   C57       1.0  0.40263  0.30624  0.32649  1.0000
  H   H51       1.0  0.16096  0.44036  0.34420  1.0000
  H   H52       1.0  0.01068  0.01956  0.02940  1.0000
  H   H53       1.0  0.06658  0.45170  0.16798  1.0000
  H   H54       1.0  0.34154  0.00083  0.17694  1.0000
  C   C58       1.0  0.44972  0.04756  0.34262  1.0000
  C   C59       1.0  0.42789  0.02853  0.32068  1.0000
  C   C60       1.0  0.40480  0.03595  0.30942  1.0000
  C   C61       1.0  0.40376  0.06318  0.31890  1.0000
  C   C62       1.0  0.42652  0.08313  0.33987  1.0000
  C   C63       1.0  0.44893  0.07502  0.35197  1.0000
  H   H55       1.0  0.00908  0.32446  0.11574  1.0000
  H   H56       1.0  0.38734  0.02023  0.29344  1.0000
  H   H57       1.0  0.42617  0.10413  0.34754  1.0000
  C   C64       1.0  0.08923  0.43061  0.23807  1.0000
  C   C65       1.0  0.14635  0.04076  0.33989  1.0000
  C   C66       1.0  0.15699  0.07294  0.32079  1.0000
  C   C67       1.0  0.19138  0.09709  0.30634  1.0000
  C   C68       1.0  0.21582  0.08969  0.31085  1.0000
  C   C69       1.0  0.20513  0.05736  0.32961  1.0000
  C   C70       1.0  0.17076  0.03331  0.34434  1.0000
  C   C71       1.0  0.43841  0.17976  0.01371  1.0000
  H   H58       1.0  0.05184  0.99537  0.46884  1.0000
  H   H59       1.0  0.26113  0.13492  0.99468  1.0000
  H   H60       1.0  0.38133  0.00730  0.37547  1.0000
  H   H61       1.0  0.99837  0.08749  0.27144  1.0000
  C   C72       1.0  0.07290  0.45079  0.44166  1.0000
  H   H62       1.0  0.08679  0.39965  0.42732  1.0000
  H   H63       1.0  0.13880  0.07947  0.31751  1.0000
  H   H64       1.0  0.06100  0.45556  0.46164  1.0000
  C   C73       1.0  0.36180  0.05557  0.40582  1.0000
  C   C74       1.0  0.30044  0.15955  0.36686  1.0000
  C   C75       1.0  0.02607  0.06748  0.06709  1.0000
  H   H65       1.0  0.46411  0.27195  0.22432  1.0000
  S   S28       1.0  0.34682  0.23310  0.98183  1.0000
  H   H66       1.0  0.47542  0.14073  0.28593  1.0000
  H   H67       1.0  0.47776  0.00084  0.42084  1.0000
  H   H68       1.0  0.37876  0.11683  0.03918  1.0000
  C   C76       1.0  0.43585  0.11093  0.23912  1.0000
  H   H69       1.0  0.03010  0.10934  0.33534  1.0000
  C   C77       1.0  0.18296  0.14401  0.01138  1.0000
  C   C78       1.0  0.10739  0.44185  0.47642  1.0000
  C   C79       1.0  0.21441  0.06061  0.42188  1.0000
  N   N6        1.0  0.03528  0.07474  0.03150  1.0000
  H   H70       1.0  0.43251  0.19879  0.01842  1.0000
  C   C80       1.0  0.18592  0.15107  0.43558  1.0000
  H   H71       1.0  0.41428  0.01113  0.42158  1.0000
  C   C81       1.0  0.17822  0.15918  0.03546  1.0000
  H   H72       1.0  0.21077  0.07726  0.02156  1.0000
  H   H73       1.0  0.45047  0.98592  0.45791  1.0000
  H   H74       1.0  0.31377  0.98675  0.43776  1.0000
  H   H75       1.0  0.44901  0.12339  0.43293  1.0000
  H   H76       1.0  0.41569  0.14338  0.40743  1.0000
  Fe  Fe13      1.0  0.18762  0.47003  0.16004  1.0000
  H   H77       1.0  0.02890  0.09018  0.07617  1.0000
  C   C82       1.0  0.44147  0.18413  0.09359  1.0000
  H   H78       1.0  0.42245  0.16512  0.99522  1.0000
  C   C83       1.0  0.29986  0.13232  0.43016  1.0000
  C   C84       1.0  0.38036  0.04312  0.41990  1.0000
  Fe  Fe14      1.0  0.23033  0.44290  0.43835  1.0000
  H   H79       1.0  0.09773  0.02723  0.42457  1.0000
  C   C85       1.0  0.48292  0.29967  0.26401  1.0000
  H   H80       1.0  0.22515  0.20075  0.47314  1.0000
  H   H81       1.0  0.35996  0.10007  0.39028  1.0000
  H   H82       1.0  0.13738  0.17445  0.46858  1.0000
  H   H83       1.0  0.12128  0.00894  0.19474  1.0000
  C   C86       1.0  0.32485  0.18154  0.38541  1.0000
  H   H84       1.0  0.99917  0.04409  0.07472  1.0000
  H   H85       1.0  0.28226  0.05702  0.40487  1.0000
  H   H86       1.0  0.33728  0.03776  0.39799  1.0000
  N   N7        1.0  0.27571  0.17543  0.19518  1.0000
  C   C87       1.0  0.30691  0.19937  0.20979  1.0000
  C   C88       1.0  0.24565  0.16631  0.21706  1.0000
  C   C89       1.0  0.27280  0.14230  0.19421  1.0000
  C   C90       1.0  0.27818  0.19230  0.16191  1.0000
  C   C91       1.0  0.25301  0.19728  0.15154  1.0000
  C   C92       1.0  0.30641  0.20416  0.13858  1.0000
  C   C93       1.0  0.25644  0.21356  0.11994  1.0000
  C   C94       1.0  0.30938  0.21995  0.10694  1.0000
  C   C95       1.0  0.28449  0.22475  0.09765  1.0000
  H   H87       1.0  0.30457  0.18838  0.23562  1.0000
  H   H88       1.0  0.33031  0.20349  0.19768  1.0000
  H   H89       1.0  0.31173  0.22573  0.20874  1.0000
  H   H90       1.0  0.24488  0.15428  0.24194  1.0000
  H   H91       1.0  0.22114  0.14634  0.20878  1.0000
  H   H92       1.0  0.24633  0.19014  0.21926  1.0000
  H   H93       1.0  0.27030  0.12846  0.21893  1.0000
  H   H94       1.0  0.25004  0.12376  0.18288  1.0000
  H   H95       1.0  0.29549  0.14692  0.18014  1.0000
  H   H96       1.0  0.23042  0.18892  0.16734  1.0000
  H   H97       1.0  0.32646  0.20127  0.14472  1.0000
  H   H98       1.0  0.23712  0.21739  0.11264  1.0000
  H   H99       1.0  0.33114  0.22848  0.08953  1.0000
  H   H100      1.0  0.28694  0.23712  0.07310  1.0000
  C   C96       1.0  0.32446  0.16800  0.41701  1.0000
  C   C97       1.0  0.45424  0.17697  0.06694  1.0000
  H   H101      1.0  0.20967  0.06452  0.39662  1.0000
  H   H102      1.0  0.21813  0.45544  0.27217  1.0000
  C   C98       1.0  0.02287  0.01597  0.45077  1.0000
  C   C99       1.0  0.02446  0.03971  0.42484  1.0000
  H   H103      1.0  0.39464  0.00336  0.46251  1.0000
  C   C100      1.0  0.05166  0.05835  0.39966  1.0000
  C   C101      1.0  0.07754  0.03123  0.42488  1.0000
  C   C102      1.0  0.07809  0.05398  0.39961  1.0000
  H   H104      1.0  0.09099  0.32354  0.07275  1.0000
  H   H105      1.0  0.42657  0.11008  0.21528  1.0000
  C   C103      1.0  0.21804  0.17344  0.41546  1.0000
  H   H106      1.0  0.16196  0.03206  0.27106  1.0000
  H   H107      1.0  0.46074  0.27901  0.28110  1.0000
  H   H108      1.0  0.34890  0.47310  0.31954  1.0000
  C   C104      1.0  0.03078  0.32245  0.98900  1.0000
  H   H109      1.0  0.12879  0.04970  0.20144  1.0000
  H   H110      1.0  0.99420  0.33395  0.28648  1.0000
  C   C105      1.0  0.36401  0.47455  0.36727  1.0000
  H   H111      1.0  0.18973  0.17352  0.08196  1.0000
  H   H112      1.0  0.05166  0.07545  0.37969  1.0000
  H   H113      1.0  0.01252  0.10535  0.39266  1.0000
  H   H114      1.0  0.09867  0.06762  0.37960  1.0000
  H   H115      1.0  0.38895  0.11755  0.07983  1.0000
  C   C106      1.0  0.01953  0.12347  0.34151  1.0000
  H   H116      1.0  0.07289  0.13047  0.03128  1.0000
  C   C107      1.0  0.04013  0.27937  0.06848  1.0000
  H   H117      1.0  0.45732  0.14457  0.15104  1.0000
  S   S29       1.0  0.18410  0.42414  0.47342  1.0000
  H   H118      1.0  0.03215  0.32433  0.18594  1.0000
  H   H119      1.0  0.47611  0.01733  0.02421  1.0000
  C   C108      1.0  0.40589  0.11567  0.41103  1.0000
  H   H120      1.0  0.44220  0.16595  0.21003  1.0000
  C   C109      1.0  0.37869  0.00117  0.22492  1.0000
  S   S30       1.0  0.04237  0.46625  0.31732  1.0000
  H   H121      1.0  0.38594  0.15142  0.05849  1.0000
  C   C110      1.0  0.20396  0.13220  0.01466  1.0000
  C   C111      1.0  0.01498  0.14310  0.31703  1.0000
  C   C112      1.0  0.00640  0.10560  0.02133  1.0000
  H   H122      1.0  0.08983  0.10505  0.03334  1.0000
  H   H123      1.0  0.99173  0.03085  0.27354  1.0000
  H   H124      1.0  0.36938  0.44763  0.47310  1.0000
  H   H125      1.0  0.15512  0.07786  0.40018  1.0000
  C   C113      1.0  0.27501  0.10897  0.41160  1.0000
  C   C114      1.0  0.19425  0.16240  0.06303  1.0000
  C   C115      1.0  0.14589  0.16420  0.45088  1.0000
  H   H126      1.0  0.42811  0.06192  0.44093  1.0000
  H   H127      1.0  0.11135  0.38991  0.38168  1.0000
  S   S31       1.0  0.00840  0.47643  0.38039  1.0000
  C   C116      1.0  0.34736  0.02709  0.23085  1.0000
  H   H128      1.0  0.27464  0.15482  0.07815  1.0000
  H   H129      1.0  0.20911  0.07616  0.43570  1.0000
  C   C117      1.0  0.40378  0.02635  0.19864  1.0000
  C   C118      1.0  0.00427  0.26285  0.07506  1.0000
  H   H130      1.0  0.30110  0.16996  0.34206  1.0000
  H   H131      1.0  0.04309  0.06244  0.08025  1.0000
  H   H132      1.0  0.32198  0.02294  0.23340  1.0000
  C   C119      1.0  0.04815  0.37418  0.19885  1.0000
  H   H133      1.0  0.04790  0.22631  0.29392  1.0000
  H   H134      1.0  0.25854  0.10753  0.36387  1.0000
  H   H135      1.0  0.35996  0.03796  0.25206  1.0000
  C   C120      1.0  0.42073  0.98991  0.24194  1.0000
  H   H136      1.0  0.36258  0.04804  0.20936  1.0000
  C   C121      1.0  0.99988  0.16073  0.32406  1.0000
  H   H137      1.0  0.38367  0.30964  0.31737  1.0000
  H   H138      1.0  0.28849  0.13267  0.02091  1.0000
  H   H139      1.0  0.39841  0.04099  0.18118  1.0000
  C   C122      1.0  0.02869  0.34791  0.00041  1.0000
  C   C123      1.0  0.22684  0.16149  0.39078  1.0000
  C   C124      1.0  0.05067  0.44752  0.23196  1.0000
  C   C125      1.0  0.99471  0.13812  0.38161  1.0000
  C   C126      1.0  0.05048  0.01249  0.45015  1.0000
  H   H140      1.0  0.41512  0.46434  0.43474  1.0000
  C   C127      1.0  0.27033  0.14027  0.01855  1.0000
  H   H141      1.0  0.10314  0.48097  0.18689  1.0000
  H   H142      1.0  0.07918  0.01921  0.26226  1.0000
  C   C128      1.0  0.38956  0.99674  0.43790  1.0000
  H   H143      1.0  0.15305  0.18150  0.42695  1.0000
  H   H144      1.0  0.42440  0.12006  0.25489  1.0000
  N   N8        1.0  0.36606  0.00502  0.42468  1.0000
  C   C129      1.0  0.35858  0.47800  0.39961  1.0000
  H   H145      1.0  0.47776  0.09308  0.22344  1.0000
  C   C130      1.0  0.25124  0.05958  0.45804  1.0000
  C   C131      1.0  0.22527  0.46629  0.29407  1.0000
  Fe  Fe15      1.0  0.47912  0.42934  0.33512  1.0000
  C   C132      1.0  0.37449  0.09128  0.40141  1.0000
  C   C133      1.0  0.34433  0.47574  0.34402  1.0000
  N   N9        1.0  0.43205  0.15561  0.04374  1.0000
  H   H146      1.0  0.42522  0.08309  0.24972  1.0000
  H   H147      1.0  0.00418  0.04337  0.42342  1.0000
  C   C134      1.0  0.46311  0.20511  0.11465  1.0000
  S   S32       1.0  0.47160  0.10661  0.11058  1.0000
  H   H148      1.0  0.04473  0.04992  0.99674  1.0000
  H   H149      1.0  0.05584  0.42212  0.44087  1.0000
  N   N10       1.0  0.06496  0.43054  0.21705  1.0000
  S   S33       1.0  0.43212  0.37233  0.34160  1.0000
  H   H150      1.0  0.46555  0.08995  0.36898  1.0000
  H   H151      1.0  0.34038  0.45906  0.46600  1.0000
  H   H152      1.0  0.07128  0.35201  0.10322  1.0000
  H   H153      1.0  0.33831  0.99455  0.38309  1.0000
  C   C135      1.0  0.44451  0.01447  0.21560  1.0000
  H   H154      1.0  0.07463  0.38576  0.19019  1.0000
  C   C136      1.0  0.98960  0.32217  0.20782  1.0000
  C   C137      1.0  0.41225  0.06871  0.42965  1.0000
  N   N11       1.0  0.47379  0.13393  0.23623  1.0000
  C   C138      1.0  0.03620  0.04538  0.02300  1.0000
  H   H155      1.0  0.38341  0.47112  0.35919  1.0000
  C   C139      1.0  0.22034  0.13463  0.04269  1.0000
  S   S34       1.0  0.02493  0.00998  0.23399  1.0000
  H   H156      1.0  0.07269  0.46527  0.41854  1.0000
  H   H157      1.0  0.34454  0.20900  0.37511  1.0000
  C   C140      1.0  0.25770  0.12639  0.07629  1.0000
  H   H158      1.0  0.42788  0.00719  0.31336  1.0000
  N   N12       1.0  0.24202  0.12141  0.04581  1.0000
  C   C141      1.0  0.20413  0.12724  0.38529  1.0000
  H   H159      1.0  0.25304  0.05502  0.37833  1.0000
  C   C142      1.0  0.05266  0.32762  0.09512  1.0000
  Fe  Fe16      1.0  0.98894  0.00097  0.34788  1.0000
  S   S35       1.0  0.25262  0.42183  0.47248  1.0000
  C   C143      1.0  0.16350  0.11615  0.42946  1.0000
  H   H160      1.0  0.23764  0.02127  0.41295  1.0000
  H   H161      1.0  0.03268  0.44913  0.21709  1.0000
  H   H162      1.0  0.47621  0.05017  0.46079  1.0000
  C   C144      1.0  0.10625  0.02965  0.26444  1.0000
  C   C145      1.0  0.33311  0.48373  0.40673  1.0000
  C   C146      1.0  0.47654  0.99509  0.44748  1.0000
  C   C147      1.0  0.48335  0.12956  0.26879  1.0000
  H   H163      1.0  0.46947  0.01916  0.21184  1.0000
  H   H164      1.0  0.99669  0.21811  0.32478  1.0000
  H   H165      1.0  0.28910  0.00885  0.33023  1.0000
  C   C148      1.0  0.17261  0.10454  0.40465  1.0000
  C   C149      1.0  0.26181  0.99673  0.33418  1.0000
  C   C150      1.0  0.03853  0.39381  0.21311  1.0000
  H   H166      1.0  0.00909  0.23412  0.02296  1.0000
  H   H167      1.0  0.41468  0.17316  0.09922  1.0000
  H   H168      1.0  0.45445  0.05153  0.17321  1.0000
  H   H169      1.0  0.22506  0.15194  0.08956  1.0000
  C   C151      1.0  0.43603  0.03265  0.19395  1.0000
  C   C152      1.0  0.10886  0.42249  0.41196  1.0000
  C   C153      1.0  0.12248  0.41659  0.38570  1.0000
  H   H170      1.0  0.99317  0.38843  0.23571  1.0000
  H   H171      1.0  0.24544  0.07272  0.47475  1.0000
  H   H172      1.0  0.02725  0.22634  0.25899  1.0000
  H   H173      1.0  0.47622  0.35000  0.36037  1.0000
  H   H174      1.0  0.46908  0.22811  0.19085  1.0000
  H   H175      1.0  0.27414  0.11657  0.07774  1.0000
  C   C154      1.0  0.27604  0.12378  0.37962  1.0000
  H   H176      1.0  0.33807  0.99471  0.47061  1.0000
  C   C155      1.0  0.02925  0.20914  0.27827  1.0000
  C   C156      1.0  0.08422  0.45271  0.18505  1.0000
  S   S36       1.0  0.24487  0.98592  0.20415  1.0000
  H   H177      1.0  0.48104  0.05353  0.06478  1.0000
  H   H178      1.0  0.02314  0.14407  0.29242  1.0000
  C   C157      1.0  0.15524  0.03098  0.24604  1.0000
  H   H179      1.0  0.19479  0.03212  0.43212  1.0000
  H   H180      1.0  0.27659  0.06488  0.46150  1.0000
  C   C158      1.0  0.24461  0.99665  0.30774  1.0000
  H   H181      1.0  0.25859  0.00862  0.28364  1.0000
  H   H182      1.0  0.23790  0.11169  0.09793  1.0000
  N   N13       1.0  0.10832  0.46262  0.44610  1.0000
  C   C159      1.0  0.11331  0.02084  0.21089  1.0000
  H   H183      1.0  0.17037  0.14153  0.98996  1.0000
  H   H184      1.0  0.46819  0.29232  0.36231  1.0000
  C   C160      1.0  0.16504  0.47924  0.36974  1.0000
  C   C161      1.0  0.43985  0.13061  0.03567  1.0000
  N   N14       1.0  0.34423  0.99407  0.22832  1.0000
  C   C162      1.0  0.99380  0.28020  0.09227  1.0000
  H   H185      1.0  0.07543  0.41275  0.26178  1.0000
  H   H186      1.0  0.28538  0.16930  0.01748  1.0000
  H   H187      1.0  0.17084  0.05885  0.23299  1.0000
  C   C163      1.0  0.12339  0.45713  0.41820  1.0000
  C   C164      1.0  0.99137  0.05844  0.99199  1.0000
  C   C165      1.0  0.33393  0.98480  0.44749  1.0000
  C   C166      1.0  0.15046  0.44495  0.36458  1.0000
  H   H188      1.0  0.12172  0.05884  0.25680  1.0000
  H   H189      1.0  0.16175  0.16811  0.03300  1.0000
  H   H190      1.0  0.99308  0.03788  0.98527  1.0000
  H   H191      1.0  0.09914  0.44426  0.17373  1.0000
  H   H192      1.0  0.43883  0.11427  0.05790  1.0000
  H   H193      1.0  0.99943  0.38059  0.31373  1.0000
  H   H194      1.0  0.02169  0.38936  0.98833  1.0000
  H   H195      1.0  0.07773  0.11517  0.99582  1.0000
  H   H196      1.0  0.09113  0.41298  0.47673  1.0000
  H   H197      1.0  0.10859  0.45751  0.24301  1.0000
  N   N15       1.0  0.17493  0.16345  0.46071  1.0000
  Fe  Fe17      1.0  0.98994  0.43810  0.34555  1.0000
  Fe  Fe18      1.0  0.05166  0.99561  0.34456  1.0000
  H   H198      1.0  0.46195  0.26652  0.05516  1.0000
  H   H199      1.0  0.07104  0.47517  0.23438  1.0000
  H   H200      1.0  0.05076  0.26797  0.05630  1.0000
  H   H201      1.0  0.47892  0.12173  0.18966  1.0000
  C   C167      1.0  0.00308  0.37609  0.22406  1.0000
  H   H202      1.0  0.38587  0.43957  0.40752  1.0000
  Fe  Fe19      1.0  0.01453  0.99110  0.28704  1.0000
  H   H203      1.0  0.47115  0.10129  0.27920  1.0000
  H   H204      1.0  0.00959  0.20958  0.05974  1.0000
  C   C168      1.0  0.99349  0.21534  0.04578  1.0000
  C   C169      1.0  0.31894  0.48048  0.35214  1.0000
  H   H205      1.0  0.30348  0.48113  0.33424  1.0000
  S   S37       1.0  0.39655  0.24583  0.91752  1.0000
  N   N16       1.0  0.00619  0.12884  0.78691  1.0000
  Fe  Fe20      1.0  0.05021  0.08759  0.60339  1.0000
  S   S38       1.0  0.02409  0.04753  0.57028  1.0000
  S   S39       1.0  0.02769  0.06812  0.65693  1.0000
  Fe  Fe21      1.0  0.09709  0.14816  0.54770  1.0000
  S   S40       1.0  0.07391  0.11213  0.51147  1.0000
  S   S41       1.0  0.14277  0.20438  0.52548  1.0000
  H   H206      1.0  0.22907  0.41746  0.61077  1.0000
  C   C170      1.0  0.29349  0.45115  0.58332  1.0000
  Fe  Fe22      1.0  0.07746  0.07305  0.54478  1.0000
  S   S42       1.0  0.09190  0.04179  0.51865  1.0000
  S   S43       1.0  0.04541  0.12801  0.57335  1.0000
  S   S44       1.0  0.10370  0.11026  0.57986  1.0000
  Fe  Fe23      1.0  0.10609  0.11919  0.90078  1.0000
  S   S45       1.0  0.09278  0.07337  0.87711  1.0000
  S   S46       1.0  0.15612  0.15487  0.92187  1.0000
  Fe  Fe24      1.0  0.03774  0.11079  0.88882  1.0000
  C   C171      1.0  0.37877  0.02919  0.51626  1.0000
  H   H207      1.0  0.15719  0.14900  0.51202  1.0000
  Fe  Fe25      1.0  0.03947  0.04526  0.90384  1.0000
  H   H208      1.0  0.41958  0.39780  0.93207  1.0000
  Fe  Fe26      1.0  0.07485  0.09585  0.83884  1.0000
  S   S47       1.0  0.09736  0.11054  0.78561  1.0000
  S   S48       1.0  0.05390  0.09016  0.93011  1.0000
  S   S49       1.0  0.09099  0.14338  0.86128  1.0000
  H   H209      1.0  0.19166  0.05257  0.56277  1.0000
  S   S50       1.0  0.17489  0.35371  0.54374  1.0000
  C   C172      1.0  0.04790  0.07938  0.69239  1.0000
  C   C173      1.0  0.08315  0.10466  0.69108  1.0000
  C   C174      1.0  0.09778  0.11369  0.71987  1.0000
  C   C175      1.0  0.07745  0.09752  0.75026  1.0000
  C   C176      1.0  0.04227  0.07200  0.75162  1.0000
  C   C177      1.0  0.02761  0.06310  0.72283  1.0000
  H   H210      1.0  0.09906  0.11738  0.66788  1.0000
  H   H211      1.0  0.12503  0.13339  0.71849  1.0000
  H   H212      1.0  0.02643  0.05886  0.77477  1.0000
  C   C178      1.0  0.48456  0.08722  0.71766  1.0000
  H   H213      1.0  0.06705  0.15712  0.68425  1.0000
  H   H214      1.0  0.01885  0.20813  0.96365  1.0000
  C   C179      1.0  0.41912  0.01139  0.54759  1.0000
  C   C180      1.0  0.43515  0.04511  0.52892  1.0000
  C   C181      1.0  0.41470  0.05377  0.51332  1.0000
  H   H215      1.0  0.03640  0.14357  0.82644  1.0000
  C   C182      1.0  0.04264  0.14571  0.69869  1.0000
  H   H216      1.0  0.30625  0.33920  0.54264  1.0000
  C   C183      1.0  0.12423  0.03387  0.52227  1.0000
  C   C184      1.0  0.17415  0.01882  0.52708  1.0000
  C   C185      1.0  0.17332  0.04126  0.54587  1.0000
  C   C186      1.0  0.14855  0.04867  0.54360  1.0000
  N   N17       1.0  0.27137  0.41369  0.59993  1.0000
  H   H217      1.0  0.14802  0.06544  0.55871  1.0000
  C   C187      1.0  0.15010  0.24536  0.53020  1.0000
  C   C188      1.0  0.13128  0.24787  0.55451  1.0000
  C   C189      1.0  0.13904  0.28116  0.55815  1.0000
  C   C190      1.0  0.16521  0.31226  0.53723  1.0000
  H   H218      1.0  0.11101  0.22422  0.57074  1.0000
  H   H219      1.0  0.12452  0.28278  0.57724  1.0000
  C   C191      1.0  0.44755  0.37465  0.93906  1.0000
  S   S51       1.0  0.36750  0.17791  0.97492  1.0000
  C   C192      1.0  0.26594  0.34510  0.55450  1.0000
  H   H220      1.0  0.21440  0.18710  0.76939  1.0000
  H   H221      1.0  0.14387  0.46566  0.54112  1.0000
  C   C193      1.0  0.44467  0.40314  0.93293  1.0000
  C   C194      1.0  0.98943  0.44658  0.90870  1.0000
  C   C195      1.0  0.02204  0.36709  0.94672  1.0000
  C   C196      1.0  0.01090  0.17230  0.93153  1.0000
  C   C197      1.0  0.47414  0.19355  0.92929  1.0000
  C   C198      1.0  0.45368  0.13476  0.91934  1.0000
  H   H222      1.0  0.45989  0.06058  0.76510  1.0000
  H   H223      1.0  0.18362  0.13540  0.49930  1.0000
  Fe  Fe27      1.0  0.21645  0.47665  0.48964  1.0000
  Fe  Fe28      1.0  0.34466  0.20155  0.94519  1.0000
  H   H224      1.0  0.46479  0.13198  0.79772  1.0000
  C   C199      1.0  0.19423  0.15629  0.92285  1.0000
  C   C200      1.0  0.19652  0.12986  0.91380  1.0000
  C   C201      1.0  0.25600  0.16074  0.92574  1.0000
  C   C202      1.0  0.25349  0.18686  0.93531  1.0000
  C   C203      1.0  0.22292  0.18470  0.93369  1.0000
  H   H225      1.0  0.27529  0.20905  0.94348  1.0000
  H   H226      1.0  0.22149  0.20523  0.94099  1.0000
  H   H227      1.0  0.10698  0.00045  0.48625  1.0000
  C   C204      1.0  0.17650  0.27651  0.50946  1.0000
  S   S52       1.0  0.02062  0.06431  0.86380  1.0000
  H   H228      1.0  0.05056  0.33577  0.86009  1.0000
  N   N18       1.0  0.02198  0.33747  0.89989  1.0000
  H   H229      1.0  0.00034  0.04348  0.72409  1.0000
  C   C205      1.0  0.04101  0.14582  0.73191  1.0000
  S   S53       1.0  0.20603  0.01034  0.53151  1.0000
  Fe  Fe29      1.0  0.41941  0.22456  0.95087  1.0000
  S   S54       1.0  0.23731  0.45776  0.52735  1.0000
  H   H230      1.0  0.42673  0.07991  0.49916  1.0000
  H   H231      1.0  0.04764  0.39287  0.88037  1.0000
  H   H232      1.0  0.01427  0.12789  0.65864  1.0000
  C   C206      1.0  0.36276  0.99510  0.53426  1.0000
  C   C207      1.0  0.12553  0.01208  0.50289  1.0000
  C   C208      1.0  0.00264  0.19232  0.94685  1.0000
  H   H233      1.0  0.34098  0.45704  0.52790  1.0000
  H   H234      1.0  0.38783  0.45920  0.55412  1.0000
  H   H235      1.0  0.33331  0.42261  0.59421  1.0000
  C   C209      1.0  0.00911  0.12970  0.75157  1.0000
  H   H236      1.0  0.36354  0.03677  0.50469  1.0000
  H   H237      1.0  0.24722  0.32330  0.54328  1.0000
  H   H238      1.0  0.28855  0.22002  0.86654  1.0000
  H   H239      1.0  0.43247  0.10845  0.91708  1.0000
  H   H240      1.0  0.00084  0.46941  0.88959  1.0000
  H   H241      1.0  0.00808  0.17624  0.78155  1.0000
  H   H242      1.0  0.46799  0.42590  0.82783  1.0000
  H   H243      1.0  0.48275  0.36034  0.94497  1.0000
  H   H244      1.0  0.47079  0.08029  0.84609  1.0000
  S   S55       1.0  0.00849  0.99147  0.93784  1.0000
  C   C210      1.0  0.48011  0.38192  0.94031  1.0000
  H   H245      1.0  0.29169  0.45344  0.55691  1.0000
  H   H246      1.0  0.05124  0.13065  0.79555  1.0000
  H   H247      1.0  0.01799  0.38476  0.93195  1.0000
  H   H248      1.0  0.26197  0.38391  0.64723  1.0000
  C   C211      1.0  0.02809  0.31884  0.95659  1.0000
  H   H249      1.0  0.13994  0.11262  0.49185  1.0000
  H   H250      1.0  0.29213  0.14979  0.81354  1.0000
  C   C212      1.0  0.05019  0.33598  0.88652  1.0000
  H   H251      1.0  0.04772  0.31161  0.89752  1.0000
  H   H252      1.0  0.44603  0.06988  0.81337  1.0000
  C   C213      1.0  0.15019  0.00449  0.50532  1.0000
  C   C214      1.0  0.36520  0.48210  0.52747  1.0000
  C   C215      1.0  0.22722  0.13219  0.91511  1.0000
  C   C216      1.0  0.47387  0.43844  0.92833  1.0000
  H   H253      1.0  0.17460  0.10751  0.90600  1.0000
  H   H254      1.0  0.23628  0.12939  0.79673  1.0000
  H   H255      1.0  0.13367  0.44972  0.48009  1.0000
  Fe  Fe30      1.0  0.20811  0.40617  0.50836  1.0000
  C   C217      1.0  0.18384  0.30972  0.51273  1.0000
  C   C218      1.0  0.16356  0.13912  0.49220  1.0000
  H   H256      1.0  0.00143  0.36730  0.88518  1.0000
  S   S56       1.0  0.46764  0.22599  0.93812  1.0000
  H   H257      1.0  0.02342  0.36383  0.85296  1.0000
  S   S57       1.0  0.40969  0.33077  0.94487  1.0000
  Fe  Fe31      1.0  0.28030  0.47445  0.48891  1.0000
  H   H258      1.0  0.03315  0.17284  0.93671  1.0000
  C   C219      1.0  0.28026  0.39273  0.58428  1.0000
  H   H259      1.0  0.22879  0.11183  0.90759  1.0000
  S   S58       1.0  0.48061  0.07630  0.52197  1.0000
  C   C220      1.0  0.31379  0.40100  0.58354  1.0000
  C   C221      1.0  0.39186  0.48336  0.54218  1.0000
  H   H260      1.0  0.46854  0.06367  0.70732  1.0000
  H   H261      1.0  0.06506  0.15777  0.74162  1.0000
  C   C222      1.0  0.44705  0.15917  0.92686  1.0000
  H   H262      1.0  0.31833  0.19476  0.84869  1.0000
  C   C223      1.0  0.02448  0.34163  0.93421  1.0000
  C   C224      1.0  0.48011  0.08583  0.75101  1.0000
  H   H263      1.0  0.99236  0.07583  0.79820  1.0000
  H   H264      1.0  0.28619  0.46748  0.59288  1.0000
  H   H265      1.0  0.42099  0.15151  0.93021  1.0000
  H   H266      1.0  0.23256  0.19999  0.85206  1.0000
  C   C225      1.0  0.32300  0.38192  0.56863  1.0000
  C   C226      1.0  0.25649  0.36402  0.56932  1.0000
  Fe  Fe32      1.0  0.02234  0.08918  0.53911  1.0000
  C   C227      1.0  0.01286  0.12926  0.68414  1.0000
  H   H267      1.0  0.19124  0.27494  0.49058  1.0000
  S   S59       1.0  0.27149  0.99992  0.48462  1.0000
  S   S60       1.0  0.99932  0.12589  0.88907  1.0000
  H   H268      1.0  0.23034  0.35548  0.56865  1.0000
  C   C228      1.0  0.99184  0.14843  0.79476  1.0000
  C   C229      1.0  0.03947  0.14484  0.79985  1.0000
  H   H269      1.0  0.09679  0.44600  0.49794  1.0000
  C   C230      1.0  0.99166  0.45113  0.94094  1.0000
  H   H270      1.0  0.05791  0.17327  0.78901  1.0000
  S   S61       1.0  0.29463  0.16313  0.92540  1.0000
  C   C231      1.0  0.29911  0.35402  0.55413  1.0000
  Fe  Fe33      1.0  0.40000  0.27637  0.95644  1.0000
  N   N19       1.0  0.19389  0.14867  0.81329  1.0000
  C   C232      1.0  0.17088  0.10962  0.82292  1.0000
  C   C233      1.0  0.17710  0.16317  0.82841  1.0000
  C   C234      1.0  0.19680  0.15801  0.77772  1.0000
  C   C235      1.0  0.22828  0.16221  0.82273  1.0000
  C   C236      1.0  0.24458  0.18869  0.84224  1.0000
  C   C237      1.0  0.24675  0.14913  0.81201  1.0000
  C   C238      1.0  0.27699  0.20064  0.85079  1.0000
  C   C239      1.0  0.27890  0.16086  0.82120  1.0000
  C   C240      1.0  0.29388  0.18641  0.84072  1.0000
  H   H271      1.0  0.16922  0.10140  0.84933  1.0000
  H   H272      1.0  0.14439  0.09881  0.81731  1.0000
  H   H273      1.0  0.17935  0.09601  0.81003  1.0000
  H   H274      1.0  0.15113  0.15209  0.82135  1.0000
  H   H275      1.0  0.19184  0.19231  0.82091  1.0000
  H   H276      1.0  0.17365  0.15656  0.85526  1.0000
  H   H277      1.0  0.20661  0.14564  0.76456  1.0000
  H   H278      1.0  0.17143  0.14887  0.76977  1.0000
  H   H279      1.0  0.02818  0.29752  0.94937  1.0000
  C   C241      1.0  0.02386  0.36674  0.87880  1.0000
  H   H280      1.0  0.07554  0.35914  0.89048  1.0000
  C   C242      1.0  0.47211  0.07993  0.81963  1.0000
  C   C243      1.0  0.02407  0.37000  0.97935  1.0000
  H   H281      1.0  0.20409  0.33335  0.49649  1.0000
  H   H282      1.0  0.34885  0.38888  0.56829  1.0000
  H   H283      1.0  0.21687  0.37334  0.61178  1.0000
  H   H284      1.0  0.47794  0.06054  0.81615  1.0000
  H   H285      1.0  0.09816  0.46870  0.56669  1.0000
  H   H286      1.0  0.47089  0.00979  0.50526  1.0000
  H   H287      1.0  0.22941  0.40285  0.57390  1.0000
  H   H288      1.0  0.43435  0.00423  0.55983  1.0000
  H   H289      1.0  0.48571  0.13925  0.83353  1.0000
  H   H290      1.0  0.47112  0.45996  0.92416  1.0000
  C   C244      1.0  0.23515  0.40122  0.59912  1.0000
  H   H291      1.0  0.45512  0.47095  0.83123  1.0000
  H   H292      1.0  0.01049  0.04001  0.49882  1.0000
  C   C245      1.0  0.27698  0.41186  0.63436  1.0000
  H   H293      1.0  0.19356  0.20740  0.48579  1.0000
  C   C246      1.0  0.38324  0.98657  0.55004  1.0000
  H   H294      1.0  0.26911  0.42608  0.64721  1.0000
  H   H295      1.0  0.32099  0.46395  0.58606  1.0000
  H   H296      1.0  0.01927  0.99127  0.51494  1.0000
  H   H297      1.0  0.15032  0.98717  0.49069  1.0000
  H   H298      1.0  0.30435  0.42409  0.63723  1.0000
  C   C247      1.0  0.99038  0.15170  0.90961  1.0000
  H   H299      1.0  0.99021  0.14911  0.82116  1.0000
  C   C248      1.0  0.98680  0.01877  0.49035  1.0000
  C   C249      1.0  0.98883  0.30407  0.89786  1.0000
  Fe  Fe34      1.0  0.05982  0.50699  0.34933  1.0000
  H   H300      1.0  0.32687  0.56305  0.34447  1.0000
  S   S62       1.0  0.10760  0.53592  0.37437  1.0000
  H   H301      1.0  0.33676  0.55098  0.26586  1.0000
  C   C250      1.0  0.30918  0.57716  0.38343  1.0000
  H   H302      1.0  0.28163  0.65473  0.11080  1.0000
  H   H303      1.0  0.37543  0.57273  0.42985  1.0000
  S   S63       1.0  0.44454  0.87206  0.35667  1.0000
  C   C251      1.0  0.20892  0.96635  0.37059  1.0000
  H   H304      1.0  0.32577  0.95681  0.19585  1.0000
  C   C252      1.0  0.10513  0.77650  0.28788  1.0000
  S   S64       1.0  0.04757  0.54000  0.31837  1.0000
  Fe  Fe35      1.0  0.07316  0.72561  0.11291  1.0000
  S   S65       1.0  0.05231  0.68779  0.07765  1.0000
  S   S66       1.0  0.09150  0.78284  0.09741  1.0000
  Fe  Fe36      1.0  0.04582  0.66526  0.16839  1.0000
  S   S67       1.0  0.02188  0.62285  0.13817  1.0000
  S   S68       1.0  0.03778  0.64882  0.22156  1.0000
  Fe  Fe37      1.0  0.07246  0.65986  0.10601  1.0000
  S   S69       1.0  0.09996  0.63877  0.08228  1.0000
  Fe  Fe38      1.0  0.00403  0.65405  0.11332  1.0000
  C   C253      1.0  0.19174  0.96639  0.34416  1.0000
  S   S70       1.0  0.09719  0.70080  0.13810  1.0000
  S   S71       1.0  0.02401  0.69313  0.14668  1.0000
  Fe  Fe39      1.0  0.31986  0.63718  0.30890  1.0000
  S   S72       1.0  0.34525  0.68527  0.26957  1.0000
  S   S73       1.0  0.27020  0.62164  0.33791  1.0000
  Fe  Fe40      1.0  0.37596  0.62413  0.29523  1.0000
  S   S74       1.0  0.40342  0.67056  0.25411  1.0000
  S   S75       1.0  0.39277  0.58622  0.30003  1.0000
  Fe  Fe41      1.0  0.39461  0.69970  0.28752  1.0000
  S   S76       1.0  0.44108  0.75563  0.28819  1.0000
  Fe  Fe42      1.0  0.35209  0.65261  0.24001  1.0000
  S   S77       1.0  0.33593  0.64299  0.19044  1.0000
  S   S78       1.0  0.36940  0.65410  0.32951  1.0000
  S   S79       1.0  0.32443  0.60386  0.27851  1.0000
  Fe  Fe43      1.0  0.39821  0.74315  0.01218  1.0000
  H   H305      1.0  0.00075  0.58465  0.26871  1.0000
  S   S80       1.0  0.40961  0.75704  0.06183  1.0000
  H   H306      1.0  0.02573  0.61087  0.45909  1.0000
  H   H307      1.0  0.14860  0.53097  0.32282  1.0000
  H   H308      1.0  0.00919  0.65946  0.30454  1.0000
  H   H309      1.0  0.23630  0.66007  0.19479  1.0000
  H   H310      1.0  0.16456  0.95463  0.34814  1.0000
  H   H311      1.0  0.06964  0.55199  0.03573  1.0000
  C   C254      1.0  0.20949  0.98143  0.31268  1.0000
  C   C255      1.0  0.01502  0.55206  0.25289  1.0000
  S   S81       1.0  0.20770  0.51612  0.11891  1.0000
  S   S82       1.0  0.19787  0.91711  0.15864  1.0000
  Fe  Fe44      1.0  0.22778  0.51805  0.20826  1.0000
  S   S83       1.0  0.25025  0.56700  0.17060  1.0000
  H   H312      1.0  0.29155  0.68357  0.02267  1.0000
  Fe  Fe45      1.0  0.19792  0.54223  0.15500  1.0000
  S   S84       1.0  0.17417  0.57365  0.15335  1.0000
  Fe  Fe46      1.0  0.25900  0.53803  0.13757  1.0000
  S   S85       1.0  0.31026  0.57123  0.10416  1.0000
  H   H313      1.0  0.04819  0.53993  0.00093  1.0000
  H   H314      1.0  0.00357  0.55117  0.46633  1.0000
  S   S86       1.0  0.46687  0.96347  0.31147  1.0000
  H   H315      1.0  0.20331  0.69324  0.02217  1.0000
  H   H316      1.0  0.29385  0.48848  0.38958  1.0000
  H   H317      1.0  0.27663  0.66492  0.19341  1.0000
  C   C256      1.0  0.24131  0.61525  0.04887  1.0000
  H   H318      1.0  0.29577  0.54366  0.21013  1.0000
  H   H319      1.0  0.30916  0.56609  0.03295  1.0000
  H   H320      1.0  0.13855  0.60094  0.29510  1.0000
  S   S87       1.0  0.00149  0.96674  0.37815  1.0000
  H   H321      1.0  0.37832  0.96805  0.44061  1.0000
  C   C257      1.0  0.03796  0.53810  0.09729  1.0000
  C   C258      1.0  0.24703  0.51528  0.32246  1.0000
  H   H322      1.0  0.27108  0.59529  0.47688  1.0000
  C   C259      1.0  0.37765  0.61689  0.02602  1.0000
  H   H323      1.0  0.24102  0.61227  0.11295  1.0000
  H   H324      1.0  0.24951  0.68136  0.24812  1.0000
  H   H325      1.0  0.25662  0.54254  0.32249  1.0000
  C   C260      1.0  0.10375  0.96346  0.28903  1.0000
  H   H326      1.0  0.06046  0.66761  0.47575  1.0000
  H   H327      1.0  0.28742  0.68259  0.24443  1.0000
  H   H328      1.0  0.22740  0.62432  0.38332  1.0000
  C   C261      1.0  0.37994  0.57996  0.99216  1.0000
  H   H329      1.0  0.16504  0.59170  0.39724  1.0000
  H   H330      1.0  0.19497  0.95451  0.39472  1.0000
  Fe  Fe47      1.0  0.02568  0.49681  0.28905  1.0000
  H   H331      1.0  0.46406  0.50173  0.15377  1.0000
  H   H332      1.0  0.20058  0.63841  0.28354  1.0000
  H   H333      1.0  0.46260  0.64027  0.26730  1.0000
  H   H334      1.0  0.25447  0.60192  0.04772  1.0000
  H   H335      1.0  0.00158  0.56953  0.42652  1.0000
  H   H336      1.0  0.24967  0.50442  0.37343  1.0000
  H   H337      1.0  0.38570  0.52149  0.44244  1.0000
  H   H338      1.0  0.23878  0.62447  0.18803  1.0000
  H   H339      1.0  0.19446  0.57200  0.21676  1.0000
  H   H340      1.0  0.45834  0.66203  0.31400  1.0000
  H   H341      1.0  0.25704  0.65729  0.27991  1.0000
  C   C262      1.0  0.00389  0.49785  0.14702  1.0000
  C   C263      1.0  0.35550  0.67566  0.15534  1.0000
  C   C264      1.0  0.37988  0.71124  0.15646  1.0000
  C   C265      1.0  0.39585  0.73613  0.12756  1.0000
  C   C266      1.0  0.38754  0.72554  0.09754  1.0000
  C   C267      1.0  0.36286  0.69001  0.09654  1.0000
  C   C268      1.0  0.34663  0.66527  0.12542  1.0000
  H   H342      1.0  0.38675  0.71954  0.17947  1.0000
  H   H343      1.0  0.41506  0.76363  0.12843  1.0000
  H   H344      1.0  0.35679  0.68149  0.07357  1.0000
  H   H345      1.0  0.32789  0.63769  0.12461  1.0000
  C   C269      1.0  0.41518  0.59015  0.10968  1.0000
  C   C270      1.0  0.38607  0.55654  0.10757  1.0000
  C   C271      1.0  0.35327  0.54968  0.10899  1.0000
  C   C272      1.0  0.34904  0.57643  0.11230  1.0000
  C   C273      1.0  0.37811  0.60984  0.11525  1.0000
  C   C274      1.0  0.41088  0.61649  0.11448  1.0000
  H   H346      1.0  0.38906  0.53595  0.10369  1.0000
  H   H347      1.0  0.33146  0.52407  0.10586  1.0000
  H   H348      1.0  0.37551  0.63098  0.11718  1.0000
  H   H349      1.0  0.31234  0.53815  0.00956  1.0000
  C   C275      1.0  0.12049  0.62066  0.10241  1.0000
  C   C276      1.0  0.13206  0.60445  0.08527  1.0000
  C   C277      1.0  0.14787  0.58934  0.10045  1.0000
  C   C278      1.0  0.15295  0.59075  0.13297  1.0000
  C   C279      1.0  0.14163  0.60720  0.14997  1.0000
  C   C280      1.0  0.12557  0.62199  0.13487  1.0000
  H   H350      1.0  0.12885  0.60361  0.06003  1.0000
  H   H351      1.0  0.15649  0.57704  0.08686  1.0000
  H   H352      1.0  0.14528  0.60852  0.17511  1.0000
  H   H353      1.0  0.11734  0.63468  0.14837  1.0000
  C   C281      1.0  0.11938  0.81899  0.11659  1.0000
  C   C282      1.0  0.14215  0.81861  0.13619  1.0000
  C   C283      1.0  0.16582  0.84889  0.14885  1.0000
  C   C284      1.0  0.16651  0.87960  0.14274  1.0000
  C   C285      1.0  0.14299  0.87961  0.12397  1.0000
  C   C286      1.0  0.11982  0.84956  0.11067  1.0000
  H   H354      1.0  0.14236  0.79544  0.14068  1.0000
  H   H355      1.0  0.18401  0.84866  0.16320  1.0000
  H   H356      1.0  0.14332  0.90306  0.11891  1.0000
  H   H357      1.0  0.10246  0.85020  0.09534  1.0000
  C   C287      1.0  0.03529  0.54968  0.23004  1.0000
  H   H358      1.0  0.08545  0.56209  0.44124  1.0000
  H   H359      1.0  0.11739  0.78883  0.20602  1.0000
  C   C288      1.0  0.03751  0.61112  0.22564  1.0000
  C   C289      1.0  0.05714  0.60849  0.20231  1.0000
  C   C290      1.0  0.05616  0.57780  0.20460  1.0000
  C   C291      1.0  0.06482  0.66703  0.98343  1.0000
  C   C292      1.0  0.32952  0.56852  0.36889  1.0000
  H   H360      1.0  0.07361  0.63043  0.18282  1.0000
  H   H361      1.0  0.07233  0.57630  0.18739  1.0000
  C   C293      1.0  0.44335  0.84037  0.33620  1.0000
  H   H362      1.0  0.04263  0.52457  0.44343  1.0000
  C   C294      1.0  0.46925  0.82334  0.29885  1.0000
  C   C295      1.0  0.44069  0.78782  0.30633  1.0000
  C   C296      1.0  0.41333  0.77874  0.32869  1.0000
  C   C297      1.0  0.41484  0.80482  0.34373  1.0000
  C   C298      1.0  0.04489  0.53225  0.02770  1.0000
  H   H363      1.0  0.36946  0.56095  0.37385  1.0000
  H   H364      1.0  0.39125  0.75156  0.33483  1.0000
  H   H365      1.0  0.39377  0.79740  0.36134  1.0000
  C   C299      1.0  0.46087  0.55323  0.34260  1.0000
  C   C300      1.0  0.44244  0.53882  0.31714  1.0000
  C   C301      1.0  0.42188  0.54925  0.30468  1.0000
  C   C302      1.0  0.41964  0.57459  0.31699  1.0000
  C   C303      1.0  0.43833  0.58929  0.34229  1.0000
  C   C304      1.0  0.45870  0.57863  0.35497  1.0000
  H   H366      1.0  0.44365  0.51924  0.30729  1.0000
  H   H367      1.0  0.40738  0.53731  0.28547  1.0000
  H   H368      1.0  0.43664  0.60837  0.35255  1.0000
  H   H369      1.0  0.03436  0.70699  0.29871  1.0000
  C   C305      1.0  0.15222  0.55963  0.36054  1.0000
  C   C306      1.0  0.16579  0.55172  0.33567  1.0000
  C   C307      1.0  0.20183  0.56984  0.32826  1.0000
  C   C308      1.0  0.22447  0.59661  0.34512  1.0000
  C   C309      1.0  0.21052  0.60409  0.36984  1.0000
  C   C310      1.0  0.17497  0.58564  0.37765  1.0000
  H   H370      1.0  0.03130  0.89351  0.24644  1.0000
  H   H371      1.0  0.21172  0.56233  0.31006  1.0000
  N   N20       1.0  0.33947  0.54219  0.21741  1.0000
  C   C311      1.0  0.02663  0.77776  0.20494  1.0000
  C   C312      1.0  0.32421  0.56100  0.20550  1.0000
  C   C313      1.0  0.37744  0.56467  0.21185  1.0000
  C   C314      1.0  0.39726  0.60095  0.19695  1.0000
  C   C315      1.0  0.39578  0.55017  0.22111  1.0000
  C   C316      1.0  0.43307  0.62090  0.19127  1.0000
  H   H372      1.0  0.44769  0.64824  0.17928  1.0000
  H   H373      1.0  0.40102  0.64147  0.01201  1.0000
  H   H374      1.0  0.42097  0.48544  0.39455  1.0000
  H   H375      1.0  0.33132  0.57122  0.17903  1.0000
  H   H376      1.0  0.33213  0.58339  0.21815  1.0000
  H   H377      1.0  0.38571  0.61443  0.18910  1.0000
  C   C317      1.0  0.31176  0.58402  0.41551  1.0000
  C   C318      1.0  0.10849  0.67664  0.46033  1.0000
  H   H378      1.0  0.16468  0.51271  0.39862  1.0000
  H   H379      1.0  0.47268  0.58997  0.37473  1.0000
  H   H380      1.0  0.04756  0.58631  0.04536  1.0000
  C   C319      1.0  0.01821  0.68387  0.28683  1.0000
  C   C320      1.0  0.26568  0.63284  0.09741  1.0000
  N   N21       1.0  0.01558  0.53034  0.04369  1.0000
  C   C321      1.0  0.05774  0.90265  0.28819  1.0000
  H   H381      1.0  0.10377  0.55061  0.26706  1.0000
  N   N22       1.0  0.48322  0.73155  0.06532  1.0000
  H   H382      1.0  0.07216  0.65248  0.99991  1.0000
  S   S88       1.0  0.19144  0.93864  0.47540  1.0000
  H   H383      1.0  0.00545  0.80087  0.06740  1.0000
  H   H384      1.0  0.12200  0.79323  0.02784  1.0000
  C   C322      1.0  0.30647  0.63203  0.41656  1.0000
  H   H385      1.0  0.03487  0.68491  0.26709  1.0000
  C   C323      1.0  0.31342  0.48448  0.38341  1.0000
  C   C324      1.0  0.07196  0.94866  0.24323  1.0000
  H   H386      1.0  0.47448  0.56821  0.05720  1.0000
  C   C325      1.0  0.03642  0.75557  0.20020  1.0000
  C   C326      1.0  0.39056  0.56298  0.01370  1.0000
  C   C327      1.0  0.05317  0.62452  0.45468  1.0000
  H   H387      1.0  0.42680  0.69447  0.17170  1.0000
  C   C328      1.0  0.40076  0.51199  0.43386  1.0000
  H   H388      1.0  0.28070  0.56358  0.47722  1.0000
  S   S89       1.0  0.02828  0.95614  0.31113  1.0000
  H   H389      1.0  0.24363  0.54412  0.42934  1.0000
  C   C329      1.0  0.10513  0.63052  0.43647  1.0000
  H   H390      1.0  0.33153  0.54796  0.04612  1.0000
  H   H391      1.0  0.02452  0.57538  0.01142  1.0000
  H   H392      1.0  0.47980  0.77568  0.05579  1.0000
  H   H393      1.0  0.00240  0.56623  0.05090  1.0000
  C   C330      1.0  0.25507  0.57278  0.42288  1.0000
  H   H394      1.0  0.04522  0.66776  0.99767  1.0000
  H   H395      1.0  0.30886  0.66229  0.04286  1.0000
  C   C331      1.0  0.23773  0.50156  0.29379  1.0000
  C   C332      1.0  0.10980  0.72361  0.99541  1.0000
  C   C333      1.0  0.00203  0.71609  0.25156  1.0000
  C   C334      1.0  0.48188  0.73147  0.10058  1.0000
  H   H396      1.0  0.06188  0.56196  0.08585  1.0000
  H   H397      1.0  0.12363  0.70167  0.46868  1.0000
  C   C335      1.0  0.45080  0.71080  0.15557  1.0000
  C   C336      1.0  0.32658  0.55934  0.02409  1.0000
  C   C337      1.0  0.12458  0.66334  0.44625  1.0000
  S   S90       1.0  0.48519  0.53894  0.36093  1.0000
  H   H398      1.0  0.02387  0.76215  0.09029  1.0000
  N   N23       1.0  0.35856  0.59066  0.00485  1.0000
  S   S91       1.0  0.37364  0.68984  0.99824  1.0000
  H   H399      1.0  0.09559  0.75591  0.30896  1.0000
  H   H400      1.0  0.42754  0.97581  0.25865  1.0000
  H   H401      1.0  0.33311  0.64951  0.42226  1.0000
  H   H402      1.0  0.45902  0.69645  0.28976  1.0000
  C   C338      1.0  0.35363  0.56742  0.38540  1.0000
  H   H403      1.0  0.23825  0.57777  0.43635  1.0000
  N   N24       1.0  0.14585  0.87536  0.26942  1.0000
  C   C339      1.0  0.11792  0.87716  0.28274  1.0000
  C   C340      1.0  0.17155  0.88618  0.29243  1.0000
  C   C341      1.0  0.16323  0.90178  0.23906  1.0000
  C   C342      1.0  0.13153  0.83883  0.26469  1.0000
  C   C343      1.0  0.11768  0.81096  0.29172  1.0000
  C   C344      1.0  0.13048  0.82966  0.23357  1.0000
  H   H404      1.0  0.31611  0.94131  0.25642  1.0000
  C   C345      1.0  0.11755  0.79506  0.23001  1.0000
  H   H405      1.0  0.98932  0.51690  0.00146  1.0000
  H   H406      1.0  0.10504  0.85969  0.30669  1.0000
  H   H407      1.0  0.12781  0.90450  0.28620  1.0000
  H   H408      1.0  0.09806  0.86922  0.26619  1.0000
  H   H409      1.0  0.16001  0.87121  0.31744  1.0000
  H   H410      1.0  0.18462  0.91447  0.29451  1.0000
  H   H411      1.0  0.19171  0.88271  0.28449  1.0000
  H   H412      1.0  0.14519  0.89743  0.22118  1.0000
  H   H413      1.0  0.17477  0.92903  0.24344  1.0000
  H   H414      1.0  0.18445  0.90158  0.22767  1.0000
  H   H415      1.0  0.11669  0.81569  0.31607  1.0000
  H   H416      1.0  0.13979  0.84880  0.21149  1.0000
  H   H417      1.0  0.47884  0.97263  0.45305  1.0000
  C   C346      1.0  0.21122  0.68590  0.04371  1.0000
  C   C347      1.0  0.23081  0.66604  0.09934  1.0000
  H   H418      1.0  0.29559  0.96324  0.25915  1.0000
  N   N25       1.0  0.04875  0.57434  0.43177  1.0000
  S   S92       1.0  0.26121  0.49638  0.45187  1.0000
  H   H419      1.0  0.43861  0.67850  0.06658  1.0000
  H   H420      1.0  0.08360  0.58932  0.38862  1.0000
  C   C348      1.0  0.06875  0.60973  0.44096  1.0000
  C   C349      1.0  0.13840  0.73169  0.04421  1.0000
  C   C350      1.0  0.33662  0.58254  0.43170  1.0000
  C   C351      1.0  0.48122  0.73288  0.16794  1.0000
  H   H421      1.0  0.12265  0.98197  0.30260  1.0000
  Fe  Fe48      1.0  0.99501  0.50742  0.34671  1.0000
  Fe  Fe49      1.0  0.48215  0.93170  0.34085  1.0000
  C   C352      1.0  0.02437  0.72519  0.22310  1.0000
  C   C353      1.0  0.05628  0.57803  0.39642  1.0000
  C   C354      1.0  0.13771  0.76059  0.04719  1.0000
  C   C355      1.0  0.21226  0.68061  0.10131  1.0000
  N   N26       1.0  0.24158  0.63357  0.23736  1.0000
  C   C356      1.0  0.25705  0.61407  0.24499  1.0000
  C   C357      1.0  0.24859  0.64637  0.20189  1.0000
  C   C358      1.0  0.25948  0.66504  0.25322  1.0000
  C   C359      1.0  0.20407  0.60995  0.24761  1.0000
  C   C360      1.0  0.18325  0.57948  0.23365  1.0000
  C   C361      1.0  0.18696  0.61686  0.27048  1.0000
  C   C362      1.0  0.14754  0.55862  0.24039  1.0000
  C   C363      1.0  0.15117  0.59542  0.27748  1.0000
  C   C364      1.0  0.13150  0.56670  0.26210  1.0000
  H   H422      1.0  0.25331  0.60450  0.27132  1.0000
  H   H423      1.0  0.24630  0.59089  0.23286  1.0000
  H   H424      1.0  0.28509  0.63094  0.23709  1.0000
  H   H425      1.0  0.36163  0.62403  0.03753  1.0000
  H   H426      1.0  0.12740  0.51708  0.42964  1.0000
  C   C365      1.0  0.12464  0.71338  0.01880  1.0000
  C   C366      1.0  0.32726  0.52877  0.25251  1.0000
  C   C367      1.0  0.28947  0.59074  0.46594  1.0000
  H   H427      1.0  0.99836  0.53026  0.27230  1.0000
  C   C368      1.0  0.99256  0.73935  0.25560  1.0000
  H   H428      1.0  0.11881  0.62126  0.42583  1.0000
  H   H429      1.0  0.21475  0.59524  0.06129  1.0000
  H   H430      1.0  0.04991  0.59516  0.38270  1.0000
  H   H431      1.0  0.05321  0.76178  0.17847  1.0000
  H   H432      1.0  0.34064  0.58738  0.45607  1.0000
  H   H433      1.0  0.41904  0.54027  0.01935  1.0000
  H   H434      1.0  0.33537  0.52069  0.17435  1.0000
  H   H435      1.0  0.04099  0.55204  0.38847  1.0000
  H   H436      1.0  0.30804  0.63650  0.38977  1.0000
  C   C369      1.0  0.23001  0.67168  0.04143  1.0000
  C   C370      1.0  0.12314  0.77120  0.02484  1.0000
  H   H437      1.0  0.20462  0.68341  0.12462  1.0000
  Fe  Fe50      1.0  0.24429  0.96125  0.45108  1.0000
  C   C371      1.0  0.01109  0.55521  0.43988  1.0000
  C   C372      1.0  0.29373  0.67305  0.04697  1.0000
  H   H438      1.0  0.23969  0.62320  0.02333  1.0000
  H   H439      1.0  0.12500  0.69056  0.01815  1.0000
  H   H440      1.0  0.15230  0.67832  0.44356  1.0000
  H   H441      1.0  0.27965  0.62060  0.09415  1.0000
  H   H442      1.0  0.31457  0.61015  0.47361  1.0000
  H   H443      1.0  0.99676  0.52862  0.43297  1.0000
  N   N27       1.0  0.25980  0.64572  0.06596  1.0000
  H   H444      1.0  0.06535  0.95493  0.22041  1.0000
  S   S93       1.0  0.36697  0.75677  0.98401  1.0000
  C   C373      1.0  0.08367  0.92783  0.30359  1.0000
  H   H445      1.0  0.48093  0.73379  0.19356  1.0000
  H   H446      1.0  0.30899  0.69599  0.05946  1.0000
  C   C374      1.0  0.47047  0.84951  0.31343  1.0000
  H   H447      1.0  0.08763  0.92005  0.32746  1.0000
  C   C375      1.0  0.05838  0.55188  0.44871  1.0000
  S   S94       1.0  0.17506  0.49522  0.19505  1.0000
  H   H448      1.0  0.14772  0.77435  0.06728  1.0000
  C   C376      1.0  0.03440  0.52806  0.13070  1.0000
  H   H449      1.0  0.41932  0.53190  0.41274  1.0000
  C   C377      1.0  0.15200  0.48545  0.39619  1.0000
  H   H450      1.0  0.32315  0.95619  0.45331  1.0000
  H   H451      1.0  0.29875  0.51210  0.25756  1.0000
  N   N28       1.0  0.29099  0.59451  0.43016  1.0000
  N   N29       1.0  0.98911  0.68339  0.27513  1.0000
  H   H452      1.0  0.47892  0.54893  0.11178  1.0000
  H   H453      1.0  0.38253  0.52298  0.23290  1.0000
  C   C378      1.0  0.20230  0.69029  0.07363  1.0000
  S   S95       1.0  0.03693  0.51300  0.23551  1.0000
  C   C379      1.0  0.05207  0.91302  0.25800  1.0000
  S   S96       1.0  0.24252  0.52968  0.25833  1.0000
  C   C380      1.0  0.45015  0.60567  0.20048  1.0000
  C   C381      1.0  0.43157  0.57047  0.21558  1.0000
  C   C382      1.0  0.00479  0.76969  0.23259  1.0000
  C   C383      1.0  0.01636  0.58290  0.25092  1.0000
  H   H454      1.0  0.23684  0.65826  0.12185  1.0000
  H   H455      1.0  0.29744  0.49480  0.20351  1.0000
  H   H456      1.0  0.33192  0.61391  0.98940  1.0000
  H   H457      1.0  0.46044  0.66916  0.99284  1.0000
  C   C384      1.0  0.45092  0.71014  0.12241  1.0000
  S   S97       1.0  0.18659  0.97961  0.28014  1.0000
  H   H458      1.0  0.45146  0.70723  0.02839  1.0000
  H   H459      1.0  0.43305  0.64228  0.11645  1.0000
  H   H460      1.0  0.29189  0.57894  0.36895  1.0000
  C   C385      1.0  0.44948  0.70612  0.05504  1.0000
  H   H461      1.0  0.01259  0.74509  0.05335  1.0000
  C   C386      1.0  0.10523  0.76862  0.25707  1.0000
  H   H462      1.0  0.13228  0.53648  0.22821  1.0000
  H   H463      1.0  0.38596  0.60683  0.04615  1.0000
  C   C387      1.0  0.24007  0.66090  0.06920  1.0000
  H   H464      1.0  0.03242  0.70862  0.21815  1.0000
  C   C388      1.0  0.07290  0.65740  0.46431  1.0000
  H   H465      1.0  0.04136  0.87521  0.30008  1.0000
  H   H466      1.0  0.47786  0.62112  0.19597  1.0000
  C   C389      1.0  0.35704  0.57418  0.41679  1.0000
  H   H467      1.0  0.15481  0.51086  0.45308  1.0000
  S   S98       1.0  0.23944  0.49017  0.17611  1.0000
  C   C390      1.0  0.32593  0.51163  0.20066  1.0000
  H   H468      1.0  0.44508  0.55893  0.22311  1.0000
  H   H469      1.0  0.09589  0.74202  0.25404  1.0000
  H   H470      1.0  0.18703  0.70052  0.07551  1.0000
  H   H471      1.0  0.25283  0.57837  0.39714  1.0000
  S   S99       1.0  0.17416  0.97967  0.19174  1.0000
  H   H472      1.0  0.42632  0.69307  0.11446  1.0000
  C   C391      1.0  0.02282  0.56607  0.03758  1.0000
  H   H473      1.0  0.99574  0.71553  0.09084  1.0000
  H   H474      1.0  0.14880  0.72277  0.06217  1.0000
  H   H475      1.0  0.38377  0.55806  0.03952  1.0000
  C   C392      1.0  0.01108  0.51819  0.07898  1.0000
  Fe  Fe51      1.0  0.20957  0.97042  0.16573  1.0000
  H   H476      1.0  0.29126  0.64108  0.42597  1.0000
  H   H477      1.0  0.33596  0.51271  0.26340  1.0000
  H   H478      1.0  0.11667  0.50321  0.47233  1.0000
  S   S100      1.0  0.45630  0.59860  0.10254  1.0000
  C   C393      1.0  0.12768  0.50007  0.45038  1.0000
  H   H479      1.0  0.09785  0.76239  0.98330  1.0000
  C   C394      1.0  0.32103  0.96747  0.25725  1.0000
  H   H480      1.0  0.03572  0.80106  0.18696  1.0000
  H   H481      1.0  0.23654  0.66908  0.01767  1.0000
  H   H482      1.0  0.43079  0.71220  0.06092  1.0000
  H   H483      1.0  0.18664  0.50122  0.35309  1.0000
  C   C395      1.0  0.09846  0.97510  0.25843  1.0000
  C   C396      1.0  0.00249  0.74163  0.07884  1.0000
  C   C397      1.0  0.48088  0.66769  0.25362  1.0000
  H   H484      1.0  0.05539  0.54405  0.14404  1.0000
  H   H485      1.0  0.33348  0.49406  0.21022  1.0000
  H   H486      1.0  0.34787  0.96374  0.39633  1.0000
  H   H487      1.0  0.05484  0.54996  0.47541  1.0000
  H   H488      1.0  0.99150  0.77798  0.03409  1.0000
  C   C398      1.0  0.47580  0.68960  0.30045  1.0000
  H   H489      1.0  0.37104  0.96352  0.26738  1.0000
  C   C399      1.0  0.41066  0.55252  0.00241  1.0000
  H   H490      1.0  0.46596  0.67509  0.23970  1.0000
  C   C400      1.0  0.10924  0.75306  0.99932  1.0000
  H   H491      1.0  0.33161  0.97624  0.28000  1.0000
  C   C401      1.0  0.24402  0.98142  0.36566  1.0000
  H   H492      1.0  0.00117  0.49055  0.17308  1.0000
  H   H493      1.0  0.41569  0.51206  0.45361  1.0000
  H   H494      1.0  0.04097  0.50617  0.03266  1.0000
  H   H495      1.0  0.99669  0.78666  0.23613  1.0000
  C   C402      1.0  0.32747  0.98089  0.19943  1.0000
  H   H496      1.0  0.30106  0.97422  0.20140  1.0000
  C   C403      1.0  0.24315  0.49377  0.35139  1.0000
  C   C404      1.0  0.38818  0.98306  0.24659  1.0000
  S   S101      1.0  0.26678  0.98196  0.39798  1.0000
  H   H497      1.0  0.32827  0.48794  0.43036  1.0000
  S   S102      1.0  0.24850  0.91986  0.47931  1.0000
  S   S103      1.0  0.38722  0.73058  0.92422  1.0000
  S   S104      1.0  0.43134  0.83307  0.90972  1.0000
  Fe  Fe52      1.0  0.05266  0.59203  0.61644  1.0000
  S   S105      1.0  0.02483  0.54544  0.59080  1.0000
  S   S106      1.0  0.03347  0.59057  0.66770  1.0000
  Fe  Fe53      1.0  0.09962  0.64244  0.55488  1.0000
  S   S107      1.0  0.07582  0.59949  0.52473  1.0000
  S   S108      1.0  0.14521  0.69944  0.53548  1.0000
  Fe  Fe54      1.0  0.02484  0.58190  0.55052  1.0000
  S   S109      1.0  0.45565  0.51522  0.56215  1.0000
  Fe  Fe55      1.0  0.07750  0.56559  0.56659  1.0000
  S   S110      1.0  0.08659  0.52279  0.56270  1.0000
  S   S111      1.0  0.04902  0.62733  0.57762  1.0000
  S   S112      1.0  0.10502  0.60966  0.59529  1.0000
  Fe  Fe56      1.0  0.10998  0.62028  0.91234  1.0000
  S   S113      1.0  0.09408  0.57225  0.89119  1.0000
  S   S114      1.0  0.16091  0.66089  0.92925  1.0000
  Fe  Fe57      1.0  0.04340  0.61417  0.89905  1.0000
  C   C405      1.0  0.40233  0.54545  0.51088  1.0000
  S   S115      1.0  0.29023  0.66028  0.96249  1.0000
  Fe  Fe58      1.0  0.04149  0.54735  0.91772  1.0000
  Fe  Fe59      1.0  0.41102  0.78122  0.94409  1.0000
  Fe  Fe60      1.0  0.07715  0.59388  0.85103  1.0000
  S   S116      1.0  0.09964  0.60070  0.79925  1.0000
  S   S117      1.0  0.05858  0.59450  0.94192  1.0000
  S   S118      1.0  0.09604  0.64321  0.87099  1.0000
  C   C406      1.0  0.18347  0.68081  0.83217  1.0000
  H   H498      1.0  0.20448  0.82838  0.50897  1.0000
  C   C407      1.0  0.05245  0.59339  0.70392  1.0000
  C   C408      1.0  0.08434  0.59882  0.70435  1.0000
  C   C409      1.0  0.09837  0.60109  0.73367  1.0000
  C   C410      1.0  0.08071  0.59779  0.76295  1.0000
  C   C411      1.0  0.04895  0.59263  0.76244  1.0000
  C   C412      1.0  0.03501  0.59056  0.73310  1.0000
  H   H499      1.0  0.09809  0.60097  0.68218  1.0000
  H   H500      1.0  0.12291  0.60500  0.73372  1.0000
  H   H501      1.0  0.03506  0.59015  0.78467  1.0000
  H   H502      1.0  0.10852  0.69060  0.59771  1.0000
  C   C413      1.0  0.37009  0.51325  0.51211  1.0000
  C   C414      1.0  0.18008  0.80324  0.51698  1.0000
  H   H503      1.0  0.38550  0.60005  0.94041  1.0000
  C   C415      1.0  0.42386  0.51563  0.54161  1.0000
  C   C416      1.0  0.42905  0.54669  0.52549  1.0000
  C   C417      1.0  0.11875  0.68698  0.62002  1.0000
  H   H504      1.0  0.18846  0.61150  0.85246  1.0000
  H   H505      1.0  0.45347  0.57173  0.52473  1.0000
  C   C418      1.0  0.12098  0.52284  0.54470  1.0000
  C   C419      1.0  0.17304  0.51914  0.51512  1.0000
  C   C420      1.0  0.12031  0.70079  0.95118  1.0000
  S   S119      1.0  0.44346  0.77027  0.97321  1.0000
  S   S120      1.0  0.02134  0.64700  0.89690  1.0000
  H   H506      1.0  0.13853  0.72292  0.68796  1.0000
  C   C421      1.0  0.14641  0.73856  0.53125  1.0000
  C   C422      1.0  0.11706  0.73762  0.53820  1.0000
  C   C423      1.0  0.11930  0.76931  0.53468  1.0000
  C   C424      1.0  0.15078  0.80234  0.52415  1.0000
  H   H507      1.0  0.09263  0.71254  0.54616  1.0000
  C   C425      1.0  0.18236  0.81844  0.59381  1.0000
  C   C426      1.0  0.45699  0.87634  0.91925  1.0000
  C   C427      1.0  0.17463  0.55042  0.50928  1.0000
  S   S121      1.0  0.22151  0.93439  0.54391  1.0000
  H   H508      1.0  0.00500  0.96361  0.87796  1.0000
  H   H509      1.0  0.11033  0.68716  0.93020  1.0000
  C   C428      1.0  0.08419  0.69567  0.65418  1.0000
  H   H510      1.0  0.19899  0.70761  0.81691  1.0000
  H   H511      1.0  0.28703  0.75825  0.87943  1.0000
  H   H512      1.0  0.10387  0.74654  0.93401  1.0000
  C   C429      1.0  0.46329  0.67303  0.94118  1.0000
  C   C430      1.0  0.22478  0.63025  0.94696  1.0000
  C   C431      1.0  0.14101  0.74690  0.62603  1.0000
  H   H513      1.0  0.99862  0.95367  0.49454  1.0000
  H   H514      1.0  0.40664  0.56975  0.49883  1.0000
  H   H515      1.0  0.09649  0.76829  0.54026  1.0000
  S   S122      1.0  0.01275  0.49371  0.95197  1.0000
  C   C432      1.0  0.19665  0.66007  0.93808  1.0000
  C   C433      1.0  0.19585  0.62955  0.93971  1.0000
  C   C434      1.0  0.25499  0.66144  0.95239  1.0000
  C   C435      1.0  0.25576  0.69193  0.95086  1.0000
  C   C436      1.0  0.22669  0.69114  0.94394  1.0000
  H   H516      1.0  0.07298  0.70393  0.92511  1.0000
  H   H517      1.0  0.22766  0.71491  0.94285  1.0000
  C   C437      1.0  0.14886  0.55233  0.52399  1.0000
  C   C438      1.0  0.29618  0.71889  0.87568  1.0000
  H   H518      1.0  0.15908  0.66527  0.82157  1.0000
  C   C439      1.0  0.17803  0.62747  0.85204  1.0000
  S   S123      1.0  0.44102  0.69318  0.93457  1.0000
  C   C440      1.0  0.23404  0.68300  0.84814  1.0000
  H   H519      1.0  0.31956  0.73223  0.88679  1.0000
  H   H520      1.0  0.18610  0.64790  0.78765  1.0000
  H   H521      1.0  0.22254  0.81129  0.58786  1.0000
  Fe  Fe61      1.0  0.19769  0.89967  0.50654  1.0000
  C   C441      1.0  0.19619  0.79910  0.59785  1.0000
  H   H522      1.0  0.08312  0.71084  0.67191  1.0000
  N   N30       1.0  0.20192  0.66380  0.83336  1.0000
  H   H523      1.0  0.47488  0.50585  0.77937  1.0000
  H   H524      1.0  0.16151  0.71158  0.66404  1.0000
  C   C442      1.0  0.42057  0.55840  0.96940  1.0000
  H   H525      1.0  0.10211  0.65846  0.63123  1.0000
  H   H526      1.0  0.10127  0.75678  0.62906  1.0000
  C   C443      1.0  0.14818  0.80261  0.60542  1.0000
  C   C444      1.0  0.25373  0.66913  0.85242  1.0000
  H   H527      1.0  0.15040  0.57649  0.51908  1.0000
  H   H528      1.0  0.11988  0.67760  0.68469  1.0000
  H   H529      1.0  0.05227  0.65113  0.96431  1.0000
  S   S124      1.0  0.02315  0.56561  0.87623  1.0000
  H   H530      1.0  0.22826  0.68828  0.78500  1.0000
  H   H531      1.0  0.06930  0.66754  0.66668  1.0000
  C   C445      1.0  0.46884  0.66342  0.97198  1.0000
  H   H532      1.0  0.22092  0.64631  0.79874  1.0000
  H   H533      1.0  0.17632  0.68280  0.85687  1.0000
  H   H534      1.0  0.18764  0.74976  0.61548  1.0000
  H   H535      1.0  0.14433  0.69324  0.61208  1.0000
  H   H536      1.0  0.37122  0.96045  0.56428  1.0000
  C   C446      1.0  0.12764  0.76739  0.62132  1.0000
  H   H537      1.0  0.14416  0.72746  0.94174  1.0000
  H   H538      1.0  0.29831  0.67524  0.87016  1.0000
  C   C447      1.0  0.11954  0.49166  0.55066  1.0000
  H   H539      1.0  0.17175  0.62808  0.87754  1.0000
  Fe  Fe62      1.0  0.41645  0.71765  0.95687  1.0000
  C   C448      1.0  0.46780  0.90578  0.89518  1.0000
  C   C449      1.0  0.08274  0.71896  0.94528  1.0000
  S   S125      1.0  0.33749  0.51353  0.49307  1.0000
  H   H540      1.0  0.24567  0.64442  0.84530  1.0000
  Fe  Fe63      1.0  0.27259  0.95736  0.51453  1.0000
  C   C450      1.0  0.20971  0.66150  0.79975  1.0000
  C   C451      1.0  0.48167  0.48894  0.83688  1.0000
  C   C452      1.0  0.13574  0.70529  0.67101  1.0000
  C   C453      1.0  0.27775  0.73347  0.87153  1.0000
  H   H541      1.0  0.23374  0.72831  0.85643  1.0000
  S   S126      1.0  0.20492  0.51767  0.49363  1.0000
  C   C454      1.0  0.24702  0.71585  0.85817  1.0000
  C   C455      1.0  0.14547  0.48985  0.53621  1.0000
  H   H542      1.0  0.15355  0.61257  0.84152  1.0000
  H   H543      1.0  0.17284  0.60528  0.93576  1.0000
  S   S127      1.0  0.31772  0.96186  0.53731  1.0000
  H   H544      1.0  0.48026  0.48461  0.86372  1.0000
  H   H545      1.0  0.19777  0.84543  0.58061  1.0000
  C   C456      1.0  0.41072  0.57507  0.94760  1.0000
  S   S128      1.0  0.15212  0.84148  0.52131  1.0000
  C   C457      1.0  0.99044  0.94814  0.92948  1.0000
  H   H546      1.0  0.20072  0.77263  0.51506  1.0000
  H   H547      1.0  0.07031  0.69630  0.63372  1.0000
  C   C458      1.0  0.99711  0.65652  0.92106  1.0000
  C   C459      1.0  0.28412  0.68672  0.86627  1.0000
  H   H548      1.0  0.46037  0.90167  0.87132  1.0000
  C   C460      1.0  0.17592  0.76385  0.61365  1.0000
  H   H549      1.0  0.13736  0.81757  0.60094  1.0000
  Fe  Fe64      1.0  0.21845  0.97461  0.51112  1.0000
  C   C461      1.0  0.17785  0.77154  0.52054  1.0000
  H   H550      1.0  0.19576  0.57328  0.49299  1.0000
  H   H551      1.0  0.01039  0.58647  0.73314  1.0000
  H   H552      1.0  0.37129  0.63167  0.96469  1.0000
  H   H553      1.0  0.41958  0.58074  0.92201  1.0000
  N   N31       1.0  0.12010  0.70947  0.64257  1.0000
  H   H554      1.0  0.33371  0.58829  0.96246  1.0000
  H   H555      1.0  0.47083  0.67281  0.89044  1.0000
  H   H556      1.0  0.45868  0.85981  0.96881  1.0000
  C   C462      1.0  0.47481  0.66543  0.91439  1.0000
  H   H557      1.0  0.12769  0.68541  0.96626  1.0000
  C   C463      1.0  0.46679  0.88210  0.95001  1.0000
  H   H558      1.0  0.27868  0.71610  0.95513  1.0000
  C   C464      1.0  0.39096  0.58604  0.95863  1.0000
  Fe  Fe65      1.0  0.34564  0.70547  0.96639  1.0000
  H   H559      1.0  0.22375  0.60641  0.94836  1.0000
  H   H560      1.0  0.48032  0.51304  0.72102  1.0000
  H   H561      1.0  0.06099  0.71854  0.95635  1.0000
  C   C465      1.0  0.99215  0.94173  0.89812  1.0000
  H   H562      1.0  0.99944  0.69223  0.88141  1.0000
  C   C466      1.0  0.99037  0.68056  0.90673  1.0000
  N   N32       1.0  0.09469  0.70322  0.96918  1.0000
  H   H563      1.0  0.43688  0.55109  0.96070  1.0000
  C   C467      1.0  0.48475  0.64556  0.97583  1.0000
  C   C468      1.0  0.99638  0.97395  0.50300  1.0000
  H   H564      1.0  0.98963  0.62286  0.96525  1.0000
  C   C469      1.0  0.34849  0.60676  0.97916  1.0000
  H   H565      1.0  0.86181  0.37721  0.38020  1.0000
  H   H566      1.0  0.49363  0.26800  0.00816  1.0000
  S   S129      1.0  0.60834  0.01280  0.35477  1.0000
  H   H567      1.0  0.85314  0.06331  0.28794  1.0000
  C   C470      1.0  0.71084  0.48143  0.30843  1.0000
  S   S130      1.0  0.97219  0.46638  0.31483  1.0000
  H   H568      1.0  0.76063  0.13058  0.20440  1.0000
  H   H569      1.0  0.93243  0.04705  0.40956  1.0000
  S   S131      1.0  0.87213  0.19158  0.99560  1.0000
  C   C471      1.0  0.59292  0.04503  0.45363  1.0000
  H   H570      1.0  0.53881  0.22622  0.07947  1.0000
  S   S132      1.0  0.54601  0.03343  0.31351  1.0000
  Fe  Fe66      1.0  0.59026  0.22278  0.11011  1.0000
  S   S133      1.0  0.57170  0.17957  0.08048  1.0000
  S   S134      1.0  0.61269  0.27957  0.08672  1.0000
  Fe  Fe67      1.0  0.57418  0.17293  0.17151  1.0000
  S   S135      1.0  0.55244  0.12564  0.14746  1.0000
  S   S136      1.0  0.57979  0.16467  0.22363  1.0000
  Fe  Fe68      1.0  0.59910  0.16168  0.11094  1.0000
  S   S137      1.0  0.63826  0.15051  0.09618  1.0000
  Fe  Fe69      1.0  0.52651  0.14674  0.12015  1.0000
  N   N33       1.0  0.50369  0.02623  0.46028  1.0000
  S   S138      1.0  0.62158  0.20814  0.13639  1.0000
  S   S139      1.0  0.54398  0.19086  0.14797  1.0000
  Fe  Fe70      1.0  0.81505  0.14641  0.29954  1.0000
  S   S140      1.0  0.85041  0.19024  0.25746  1.0000
  S   S141      1.0  0.76514  0.14226  0.30973  1.0000
  Fe  Fe71      1.0  0.86750  0.12765  0.31021  1.0000
  S   S142      1.0  0.90479  0.16993  0.26886  1.0000
  S   S143      1.0  0.88280  0.09591  0.34239  1.0000
  Fe  Fe72      1.0  0.89266  0.20505  0.28810  1.0000
  S   S144      1.0  0.93942  0.26158  0.28675  1.0000
  Fe  Fe73      1.0  0.85946  0.15182  0.24212  1.0000
  S   S145      1.0  0.86193  0.14140  0.19124  1.0000
  S   S146      1.0  0.85739  0.16379  0.33134  1.0000
  S   S147      1.0  0.82193  0.10683  0.28242  1.0000
  Fe  Fe74      1.0  0.88607  0.24041  0.01407  1.0000
  H   H571      1.0  0.63252  0.00361  0.29309  1.0000
  S   S148      1.0  0.88119  0.24614  0.06637  1.0000
  H   H572      1.0  0.60762  0.35154  0.00003  1.0000
  H   H573      1.0  0.55310  0.32045  0.10071  1.0000
  H   H574      1.0  0.81518  0.11905  0.06358  1.0000
  H   H575      1.0  0.86467  0.98921  0.43260  1.0000
  S   S149      1.0  0.96343  0.02429  0.37114  1.0000
  H   H576      1.0  0.64208  0.10096  0.99179  1.0000
  C   C472      1.0  0.56322  0.07836  0.05491  1.0000
  N   N34       1.0  0.59249  0.06089  0.01944  1.0000
  H   H577      1.0  0.52170  0.08033  0.45877  1.0000
  S   S150      1.0  0.62480  0.39343  0.16481  1.0000
  Fe  Fe75      1.0  0.49421  0.00375  0.34345  1.0000
  S   S151      1.0  0.74313  0.05149  0.17468  1.0000
  H   H578      1.0  0.54099  0.19097  0.23262  1.0000
  Fe  Fe76      1.0  0.69315  0.01402  0.15697  1.0000
  S   S152      1.0  0.65370  0.02467  0.14120  1.0000
  Fe  Fe77      1.0  0.76490  0.02940  0.14597  1.0000
  S   S153      1.0  0.81185  0.06178  0.10759  1.0000
  H   H579      1.0  0.97916  0.47992  0.03013  1.0000
  C   C473      1.0  0.80308  0.07218  0.39105  1.0000
  H   H580      1.0  0.59157  0.44668  0.24982  1.0000
  C   C474      1.0  0.60203  0.05351  0.42023  1.0000
  H   H581      1.0  0.82028  0.99356  0.21995  1.0000
  C   C475      1.0  0.58368  0.28320  0.00740  1.0000
  H   H582      1.0  0.94591  0.46296  0.41659  1.0000
  C   C476      1.0  0.80224  0.07835  0.44819  1.0000
  H   H583      1.0  0.95326  0.45377  0.14266  1.0000
  H   H584      1.0  0.93366  0.02737  0.24614  1.0000
  H   H585      1.0  0.63461  0.39955  0.41199  1.0000
  H   H586      1.0  0.87437  0.00417  0.26484  1.0000
  C   C477      1.0  0.92357  0.04244  0.23829  1.0000
  H   H587      1.0  0.53176  0.04595  0.39653  1.0000
  H   H588      1.0  0.79965  0.45386  0.40644  1.0000
  C   C478      1.0  0.61173  0.03792  0.25926  1.0000
  H   H589      1.0  0.92151  0.11898  0.04087  1.0000
  C   C479      1.0  0.77655  0.08431  0.44364  1.0000
  H   H590      1.0  0.79899  0.13029  0.02969  1.0000
  C   C480      1.0  0.48880  0.17168  0.22403  1.0000
  S   S154      1.0  0.75311  0.42001  0.46829  1.0000
  C   C481      1.0  0.92816  0.11335  0.09107  1.0000
  H   H591      1.0  0.70308  0.13872  0.31653  1.0000
  C   C482      1.0  0.93271  0.09541  0.20891  1.0000
  H   H592      1.0  0.64166  0.08902  0.33257  1.0000
  Fe  Fe78      1.0  0.51898  0.99066  0.28389  1.0000
  C   C483      1.0  0.54039  0.30908  0.08027  1.0000
  Fe  Fe79      1.0  0.55577  0.99709  0.34202  1.0000
  C   C484      1.0  0.83610  0.03560  0.28395  1.0000
  N   N35       1.0  0.81587  0.08072  0.47959  1.0000
  S   S155      1.0  0.53171  0.00836  0.23063  1.0000
  H   H593      1.0  0.83526  0.06820  0.42144  1.0000
  Fe  Fe80      1.0  0.67051  0.44948  0.16660  1.0000
  C   C485      1.0  0.48919  0.27875  0.05460  1.0000
  C   C486      1.0  0.56143  0.05801  0.03174  1.0000
  C   C487      1.0  0.56134  0.03648  0.46704  1.0000
  H   H594      1.0  0.74420  0.99188  0.38027  1.0000
  S   S156      1.0  0.52943  0.45062  0.30603  1.0000
  C   C488      1.0  0.57973  0.05382  0.40010  1.0000
  C   C489      1.0  0.86754  0.17097  0.15684  1.0000
  C   C490      1.0  0.86897  0.20123  0.15953  1.0000
  C   C491      1.0  0.87324  0.22402  0.13153  1.0000
  C   C492      1.0  0.87640  0.21693  0.10068  1.0000
  C   C493      1.0  0.87532  0.18687  0.09798  1.0000
  C   C494      1.0  0.87062  0.16389  0.12599  1.0000
  H   H595      1.0  0.86686  0.20709  0.18315  1.0000
  H   H596      1.0  0.87422  0.24735  0.13380  1.0000
  H   H597      1.0  0.87807  0.18120  0.07443  1.0000
  H   H598      1.0  0.86954  0.14058  0.12376  1.0000
  H   H599      1.0  0.62638  0.05984  0.40986  1.0000
  C   C495      1.0  0.90897  0.10940  0.06557  1.0000
  C   C496      1.0  0.87369  0.09352  0.07152  1.0000
  C   C497      1.0  0.85650  0.08054  0.10309  1.0000
  C   C498      1.0  0.87541  0.08396  0.12896  1.0000
  C   C499      1.0  0.91131  0.10071  0.12293  1.0000
  H   H600      1.0  0.94982  0.12133  0.19390  1.0000
  H   H601      1.0  0.85962  0.09122  0.05132  1.0000
  H   H602      1.0  0.86265  0.07463  0.15345  1.0000
  H   H603      1.0  0.92588  0.10367  0.14275  1.0000
  C   C500      1.0  0.64209  0.11631  0.11383  1.0000
  C   C501      1.0  0.61345  0.08170  0.12509  1.0000
  C   C502      1.0  0.61752  0.05415  0.13358  1.0000
  C   C503      1.0  0.65026  0.06089  0.13215  1.0000
  C   C504      1.0  0.67889  0.09581  0.12255  1.0000
  C   C505      1.0  0.67482  0.12317  0.11301  1.0000
  H   H604      1.0  0.58801  0.07576  0.12578  1.0000
  H   H605      1.0  0.59501  0.02731  0.14100  1.0000
  H   H606      1.0  0.70414  0.10164  0.12162  1.0000
  H   H607      1.0  0.69721  0.14978  0.10429  1.0000
  C   C506      1.0  0.61856  0.31120  0.11008  1.0000
  C   C507      1.0  0.59968  0.30089  0.14052  1.0000
  C   C508      1.0  0.60282  0.32656  0.15737  1.0000
  C   C509      1.0  0.62522  0.36276  0.14431  1.0000
  C   C510      1.0  0.64474  0.37314  0.11419  1.0000
  C   C511      1.0  0.64114  0.34744  0.09703  1.0000
  H   H608      1.0  0.58219  0.27314  0.15073  1.0000
  H   H609      1.0  0.58797  0.31852  0.18074  1.0000
  H   H610      1.0  0.66185  0.40090  0.10370  1.0000
  H   H611      1.0  0.65585  0.35571  0.07349  1.0000
  C   C512      1.0  0.54440  0.05170  0.22752  1.0000
  C   C513      1.0  0.57322  0.07879  0.20629  1.0000
  C   C514      1.0  0.58537  0.11389  0.20655  1.0000
  C   C515      1.0  0.56895  0.12184  0.22829  1.0000
  C   C516      1.0  0.54029  0.09470  0.24971  1.0000
  C   C517      1.0  0.52773  0.05959  0.24897  1.0000
  H   H612      1.0  0.58607  0.07264  0.18974  1.0000
  H   H613      1.0  0.60660  0.13466  0.18891  1.0000
  H   H614      1.0  0.52719  0.10060  0.26622  1.0000
  S   S157      1.0  0.69759  0.44024  0.47117  1.0000
  C   C518      1.0  0.94846  0.34668  0.33963  1.0000
  C   C519      1.0  0.91805  0.31224  0.34526  1.0000
  C   C520      1.0  0.91465  0.28599  0.32906  1.0000
  C   C521      1.0  0.94199  0.29368  0.30757  1.0000
  H   H615      1.0  0.78677  0.46998  0.22198  1.0000
  H   H616      1.0  0.74517  0.08902  0.41083  1.0000
  H   H617      1.0  0.92078  0.40824  0.39383  1.0000
  H   H618      1.0  0.89102  0.25973  0.33350  1.0000
  H   H619      1.0  0.61216  0.05767  0.24112  1.0000
  H   H620      1.0  0.57822  0.42444  0.21632  1.0000
  C   C522      1.0  0.94126  0.04397  0.36001  1.0000
  C   C523      1.0  0.93586  0.05150  0.32823  1.0000
  C   C524      1.0  0.91821  0.06756  0.32187  1.0000
  C   C525      1.0  0.90534  0.07565  0.34730  1.0000
  C   C526      1.0  0.91019  0.06719  0.37882  1.0000
  C   C527      1.0  0.92819  0.05206  0.38500  1.0000
  H   H621      1.0  0.74429  0.02714  0.33101  1.0000
  H   H622      1.0  0.91465  0.07363  0.29737  1.0000
  H   H623      1.0  0.90068  0.07323  0.39875  1.0000
  H   H624      1.0  0.86757  0.47661  0.45836  1.0000
  C   C528      1.0  0.65113  0.04898  0.33869  1.0000
  C   C529      1.0  0.67670  0.04291  0.33656  1.0000
  C   C530      1.0  0.71140  0.07099  0.32674  1.0000
  C   C531      1.0  0.72130  0.10573  0.31972  1.0000
  C   C532      1.0  0.69573  0.11189  0.32148  1.0000
  C   C533      1.0  0.66082  0.08370  0.33060  1.0000
  H   H625      1.0  0.81347  0.06772  0.37045  1.0000
  H   H626      1.0  0.73059  0.06588  0.32459  1.0000
  H   H627      1.0  0.58359  0.41695  0.30309  1.0000
  H   H628      1.0  0.82886  0.47278  0.45379  1.0000
  C   C534      1.0  0.53778  0.03611  0.44712  1.0000
  H   H629      1.0  0.60743  0.39649  0.23017  1.0000
  C   C535      1.0  0.55925  0.31016  0.05346  1.0000
  C   C536      1.0  0.86710  0.44607  0.40788  1.0000
  H   H630      1.0  0.86903  0.02932  0.46882  1.0000
  C   C537      1.0  0.91997  0.44932  0.41073  1.0000
  H   H631      1.0  0.82477  0.98570  0.02442  1.0000
  H   H632      1.0  0.51129  0.14236  0.26844  1.0000
  H   H633      1.0  0.56013  0.36995  0.31281  1.0000
  H   H634      1.0  0.78876  0.98623  0.25073  1.0000
  C   C538      1.0  0.89733  0.03048  0.05889  1.0000
  H   H635      1.0  0.62441  0.05087  0.27976  1.0000
  H   H636      1.0  0.68762  0.03689  0.27090  1.0000
  N   N36       1.0  0.97841  0.22897  0.06517  1.0000
  H   H637      1.0  0.84313  0.01999  0.29924  1.0000
  H   H638      1.0  0.52504  0.01947  0.00325  1.0000
  H   H639      1.0  0.92494  0.04743  0.05238  1.0000
  H   H640      1.0  0.53656  0.09249  0.08429  1.0000
  H   H641      1.0  0.82621  0.04172  0.47754  1.0000
  S   S158      1.0  0.73441  0.01617  0.26600  1.0000
  C   C539      1.0  0.52903  0.03578  0.02103  1.0000
  C   C540      1.0  0.61555  0.39236  0.46163  1.0000
  H   H642      1.0  0.76560  0.08949  0.46306  1.0000
  H   H643      1.0  0.94556  0.04532  0.30861  1.0000
  C   C541      1.0  0.84029  0.99569  0.04360  1.0000
  C   C542      1.0  0.89859  0.08226  0.21848  1.0000
  H   H644      1.0  0.97802  0.42408  0.99042  1.0000
  C   C543      1.0  0.51896  0.24445  0.20136  1.0000
  H   H645      1.0  0.58687  0.06030  0.37412  1.0000
  C   C544      1.0  0.54816  0.04541  0.41322  1.0000
  H   H646      1.0  0.54676  0.41969  0.24538  1.0000
  C   C545      1.0  0.87261  0.40121  0.39011  1.0000
  H   H647      1.0  0.62821  0.11671  0.02071  1.0000
  C   C546      1.0  0.73948  0.00187  0.32983  1.0000
  H   H648      1.0  0.66589  0.44393  0.34292  1.0000
  C   C547      1.0  0.51154  0.21433  0.08330  1.0000
  H   H649      1.0  0.56613  0.25576  0.02116  1.0000
  H   H650      1.0  0.74616  0.08624  0.25249  1.0000
  H   H651      1.0  0.62199  0.44277  0.39186  1.0000
  C   C548      1.0  0.84286  0.46104  0.44852  1.0000
  N   N37       1.0  0.68901  0.18265  0.22373  1.0000
  C   C549      1.0  0.67504  0.19372  0.19775  1.0000
  C   C550      1.0  0.66382  0.14422  0.23560  1.0000
  C   C551      1.0  0.69201  0.20168  0.25052  1.0000
  C   C552      1.0  0.72266  0.18999  0.21293  1.0000
  C   C553      1.0  0.73781  0.20211  0.17998  1.0000
  C   C554      1.0  0.74121  0.18464  0.23564  1.0000
  C   C555      1.0  0.77003  0.20952  0.17085  1.0000
  C   C556      1.0  0.77349  0.19249  0.22629  1.0000
  C   C557      1.0  0.78796  0.20504  0.19399  1.0000
  H   H652      1.0  0.66921  0.17844  0.17775  1.0000
  H   H653      1.0  0.65049  0.18927  0.20690  1.0000
  H   H654      1.0  0.69300  0.22241  0.18750  1.0000
  H   H655      1.0  0.63860  0.13788  0.24547  1.0000
  H   H656      1.0  0.67244  0.13385  0.25525  1.0000
  H   H657      1.0  0.65927  0.12910  0.21574  1.0000
  H   H658      1.0  0.66768  0.19869  0.25762  1.0000
  H   H659      1.0  0.69778  0.19162  0.27287  1.0000
  H   H660      1.0  0.71261  0.23046  0.24341  1.0000
  H   H661      1.0  0.72539  0.20619  0.16078  1.0000
  H   H662      1.0  0.73101  0.17422  0.26094  1.0000
  H   H663      1.0  0.78130  0.21903  0.14566  1.0000
  H   H664      1.0  0.78713  0.18839  0.24433  1.0000
  H   H665      1.0  0.81298  0.21096  0.18689  1.0000
  H   H666      1.0  0.97120  0.08536  0.21008  1.0000
  H   H667      1.0  0.53828  0.39056  0.30260  1.0000
  H   H668      1.0  0.58441  0.01726  0.26840  1.0000
  C   C558      1.0  0.59956  0.39353  0.25621  1.0000
  H   H669      1.0  0.66964  0.01625  0.34223  1.0000
  C   C559      1.0  0.62309  0.40702  0.42872  1.0000
  H   H670      1.0  0.75915  0.06996  0.08939  1.0000
  C   C560      1.0  0.58635  0.03771  0.99557  1.0000
  C   C561      1.0  0.51328  0.32192  0.20997  1.0000
  C   C562      1.0  0.50318  0.05464  0.05567  1.0000
  C   C563      1.0  0.71172  0.46499  0.36596  1.0000
  H   H671      1.0  0.90011  0.03426  0.10906  1.0000
  Fe  Fe81      1.0  0.75072  0.46518  0.44687  1.0000
  H   H672      1.0  0.97329  0.19004  0.03848  1.0000
  C   C564      1.0  0.52420  0.19789  0.22423  1.0000
  C   C565      1.0  0.54363  0.29558  0.02625  1.0000
  C   C566      1.0  0.87567  0.04831  0.23817  1.0000
  H   H673      1.0  0.94654  0.13736  0.28928  1.0000
  H   H674      1.0  0.71442  0.12678  0.17600  1.0000
  S   S159      1.0  0.50338  0.46357  0.37297  1.0000
  C   C567      1.0  0.50542  0.29354  0.08078  1.0000
  S   S160      1.0  0.97283  0.13445  0.08068  1.0000
  C   C568      1.0  0.50103  0.05611  0.45031  1.0000
  H   H675      1.0  0.84138  0.08097  0.23577  1.0000
  H   H676      1.0  0.51517  0.13670  0.21062  1.0000
  H   H677      1.0  0.51473  0.23601  0.12613  1.0000
  H   H678      1.0  0.80348  0.15822  0.10918  1.0000
  H   H679      1.0  0.60864  0.02402  0.19973  1.0000
  H   H680      1.0  0.65452  0.07825  0.19436  1.0000
  H   H681      1.0  0.81509  0.44091  0.37628  1.0000
  N   N38       1.0  0.77363  0.12321  0.07622  1.0000
  C   C569      1.0  0.78303  0.13005  0.10904  1.0000
  C   C570      1.0  0.74865  0.08443  0.07875  1.0000
  C   C571      1.0  0.80460  0.13416  0.05488  1.0000
  C   C572      1.0  0.76071  0.14384  0.06279  1.0000
  C   C573      1.0  0.72879  0.12817  0.05040  1.0000
  C   C574      1.0  0.78120  0.18118  0.06008  1.0000
  C   C575      1.0  0.71823  0.14876  0.03647  1.0000
  C   C576      1.0  0.77037  0.20146  0.04611  1.0000
  C   C577      1.0  0.73890  0.18527  0.03439  1.0000
  H   H682      1.0  0.76062  0.12230  0.12607  1.0000
  H   H683      1.0  0.79326  0.11508  0.11934  1.0000
  N   N39       1.0  0.84761  0.46110  0.41349  1.0000
  H   H684      1.0  0.74236  0.07699  0.05460  1.0000
  H   H685      1.0  0.72453  0.07410  0.09459  1.0000
  S   S161      1.0  0.71109  0.45696  0.19672  1.0000
  H   H686      1.0  0.56677  0.00931  0.00600  1.0000
  C   C578      1.0  0.76461  0.08412  0.41376  1.0000
  H   H687      1.0  0.88703  0.02279  0.01038  1.0000
  H   H688      1.0  0.71147  0.10008  0.05120  1.0000
  H   H689      1.0  0.80624  0.19518  0.06802  1.0000
  H   H690      1.0  0.69389  0.13644  0.02710  1.0000
  H   H691      1.0  0.78678  0.22997  0.04389  1.0000
  H   H692      1.0  0.73060  0.20104  0.02338  1.0000
  H   H693      1.0  0.69809  0.44961  0.38959  1.0000
  H   H694      1.0  0.50284  0.06276  0.42365  1.0000
  C   C579      1.0  0.63844  0.99324  0.42399  1.0000
  H   H695      1.0  0.56603  0.25311  0.21383  1.0000
  C   C580      1.0  0.61909  0.09789  0.00352  1.0000
  S   S162      1.0  0.76063  0.98428  0.45906  1.0000
  C   C581      1.0  0.50784  0.27969  0.02764  1.0000
  C   C582      1.0  0.81537  0.07248  0.42077  1.0000
  C   C583      1.0  0.58957  0.33629  0.98307  1.0000
  H   H696      1.0  0.76923  0.07890  0.36421  1.0000
  S   S163      1.0  0.93715  0.27504  0.98310  1.0000
  S   S164      1.0  0.71572  0.99449  0.12526  1.0000
  N   N40       1.0  0.56461  0.29847  0.99763  1.0000
  H   H697      1.0  0.93636  0.17643  0.08788  1.0000
  S   S165      1.0  0.95199  0.37853  0.36149  1.0000
  H   H698      1.0  0.59768  0.28242  0.98621  1.0000
  N   N41       1.0  0.62830  0.02282  0.24523  1.0000
  C   C584      1.0  0.84769  0.00223  0.09945  1.0000
  H   H699      1.0  0.78548  0.98822  0.12517  1.0000
  H   H700      1.0  0.79640  0.41379  0.41631  1.0000
  S   S166      1.0  0.68649  0.47757  0.27621  1.0000
  H   H701      1.0  0.82307  0.46969  0.22871  1.0000
  H   H702      1.0  0.62806  0.05071  0.03825  1.0000
  C   C585      1.0  0.53892  0.23369  0.21327  1.0000
  H   H703      1.0  0.61565  0.07028  0.06354  1.0000
  H   H704      1.0  0.82539  0.16249  0.05372  1.0000
  C   C586      1.0  0.49801  0.21994  0.10967  1.0000
  H   H705      1.0  0.68617  0.99398  0.38852  1.0000
  C   C587      1.0  0.87591  0.01676  0.03529  1.0000
  C   C588      1.0  0.49014  0.19340  0.06207  1.0000
  H   H706      1.0  0.56149  0.37199  0.20194  1.0000
  H   H707      1.0  0.80939  0.02548  0.29336  1.0000
  C   C589      1.0  0.66474  0.05172  0.23382  1.0000
  C   C590      1.0  0.67385  0.07869  0.20719  1.0000
  C   C591      1.0  0.69188  0.05557  0.25005  1.0000
  C   C592      1.0  0.70806  0.10681  0.19667  1.0000
  C   C593      1.0  0.72592  0.08401  0.23964  1.0000
  C   C594      1.0  0.73406  0.10923  0.21271  1.0000
  C   C595      1.0  0.94495  0.07529  0.21826  1.0000
  C   C596      1.0  0.73385  0.98961  0.30032  1.0000
  H   H708      1.0  0.62275  0.99560  0.20587  1.0000
  C   C597      1.0  0.60134  0.44092  0.43889  1.0000
  H   H709      1.0  0.51478  0.31879  0.18503  1.0000
  C   C598      1.0  0.53867  0.35764  0.25230  1.0000
  C   C599      1.0  0.50926  0.33019  0.27417  1.0000
  H   H710      1.0  0.96980  0.17257  0.25497  1.0000
  H   H711      1.0  0.93660  0.20847  0.03653  1.0000
  C   C600      1.0  0.90101  0.46294  0.41566  1.0000
  H   H712      1.0  0.95246  0.32723  0.23119  1.0000
  H   H713      1.0  0.95854  0.47006  0.08446  1.0000
  H   H714      1.0  0.89089  0.09929  0.21000  1.0000
  C   C601      1.0  0.53450  0.07660  0.06666  1.0000
  H   H715      1.0  0.65401  0.00556  0.44352  1.0000
  H   H716      1.0  0.53025  0.27215  0.19297  1.0000
  C   C602      1.0  0.53988  0.35242  0.21990  1.0000
  C   C603      1.0  0.61012  0.00589  0.21814  1.0000
  C   C604      1.0  0.61611  0.43136  0.41739  1.0000
  H   H717      1.0  0.89693  0.30582  0.36221  1.0000
  H   H718      1.0  0.93240  0.07152  0.46394  1.0000
  C   C605      1.0  0.82750  0.05351  0.23135  1.0000
  N   N42       1.0  0.83954  0.03383  0.24927  1.0000
  H   H719      1.0  0.60343  0.29873  0.02295  1.0000
  H   H720      1.0  0.82762  0.39951  0.38873  1.0000
  Fe  Fe82      1.0  0.72736  0.00562  0.21451  1.0000
  C   C606      1.0  0.97916  0.34079  0.22138  1.0000
  H   H721      1.0  0.50519  0.03854  0.26528  1.0000
  C   C607      1.0  0.97262  0.32795  0.30241  1.0000
  C   C608      1.0  0.77798  0.07824  0.38749  1.0000
  H   H722      1.0  0.62133  0.41712  0.26447  1.0000
  C   C609      1.0  0.90589  0.41861  0.39785  1.0000
  H   H723      1.0  0.59723  0.36983  0.26913  1.0000
  C   C610      1.0  0.88953  0.02923  0.24847  1.0000
  C   C611      1.0  0.97570  0.35446  0.31789  1.0000
  C   C612      1.0  0.50047  0.03430  0.03291  1.0000
  C   C613      1.0  0.56189  0.39186  0.29666  1.0000
  N   N43       1.0  0.56709  0.39042  0.26202  1.0000
  H   H724      1.0  0.50202  0.19018  0.04189  1.0000
  C   C614      1.0  0.85327  0.41450  0.39508  1.0000
  C   C615      1.0  0.57101  0.42157  0.24254  1.0000
  C   C616      1.0  0.88325  0.02298  0.09090  1.0000
  H   H725      1.0  0.94104  0.24078  0.05830  1.0000
  C   C617      1.0  0.60606  0.05118  0.04671  1.0000
  C   C618      1.0  0.62354  0.99429  0.27015  1.0000
  H   H726      1.0  0.83050  0.05436  0.20488  1.0000
  H   H727      1.0  0.58699  0.09606  0.06395  1.0000
  H   H728      1.0  0.97771  0.21482  0.28849  1.0000
  H   H729      1.0  0.58634  0.32274  0.05418  1.0000
  C   C619      1.0  0.69355  0.46175  0.33942  1.0000
  H   H730      1.0  0.50581  0.33154  0.29927  1.0000
  H   H731      1.0  0.58590  0.02461  0.06101  1.0000
  C   C620      1.0  0.96652  0.09115  0.98223  1.0000
  C   C621      1.0  0.95580  0.23332  0.04511  1.0000
  H   H732      1.0  0.97102  0.25393  0.02327  1.0000
  C   C622      1.0  0.81619  0.99642  0.24521  1.0000
  H   H733      1.0  0.78540  0.01047  0.06723  1.0000
  C   C623      1.0  0.95723  0.20180  0.09436  1.0000
  H   H734      1.0  0.62204  0.37405  0.46927  1.0000
  C   C624      1.0  0.59364  0.42637  0.47188  1.0000
  H   H735      1.0  0.83872  0.99844  0.12455  1.0000
  H   H736      1.0  0.59570  0.45966  0.42978  1.0000
  H   H737      1.0  0.82818  0.43373  0.46289  1.0000
  H   H738      1.0  0.80005  0.04157  0.23912  1.0000
  H   H739      1.0  0.65016  0.01377  0.40178  1.0000
  C   C625      1.0  0.81323  0.44136  0.40261  1.0000
  H   H740      1.0  0.98218  0.14360  0.26579  1.0000
  H   H741      1.0  0.86301  0.08702  0.46413  1.0000
  C   C626      1.0  0.82502  0.98805  0.07591  1.0000
  H   H742      1.0  0.61041  0.04512  0.46933  1.0000
  S   S167      1.0  0.75299  0.98672  0.18686  1.0000
  S   S168      1.0  0.65887  0.48119  0.19324  1.0000
  H   H743      1.0  0.61001  0.04020  0.98692  1.0000
  H   H744      1.0  0.94457  0.20971  0.11011  1.0000
  H   H745      1.0  0.50248  0.46932  0.15861  1.0000
  H   H746      1.0  0.97296  0.19627  0.10925  1.0000
  H   H747      1.0  0.60897  0.10701  0.98442  1.0000
  H   H748      1.0  0.85647  0.13575  0.46415  1.0000
  H   H749      1.0  0.95667  0.98439  0.44190  1.0000
  C   C627      1.0  0.98040  0.19922  0.30894  1.0000
  H   H750      1.0  0.97724  0.16920  0.36506  1.0000
  H   H751      1.0  0.51965  0.47802  0.11767  1.0000
  H   H752      1.0  0.96694  0.26900  0.09854  1.0000
  H   H753      1.0  0.97099  0.29446  0.20695  1.0000
  H   H754      1.0  0.49078  0.29268  0.10159  1.0000
  H   H755      1.0  0.97864  0.03178  0.47298  1.0000
  C   C628      1.0  0.50225  0.48033  0.13356  1.0000
  H   H756      1.0  0.52495  0.25128  0.98137  1.0000
  C   C629      1.0  0.97256  0.15770  0.27599  1.0000
  H   H757      1.0  0.95414  0.17972  0.32234  1.0000
  C   C630      1.0  0.48690  0.12077  0.21402  1.0000
  H   H758      1.0  0.84572  0.98701  0.37830  1.0000
  H   H759      1.0  0.98641  0.13561  0.40676  1.0000
  C   C631      1.0  0.98454  0.11136  0.00516  1.0000
  H   H760      1.0  0.98200  0.13203  0.01012  1.0000
  H   H761      1.0  0.61265  0.98693  0.43089  1.0000
  C   C632      1.0  0.97697  0.47732  0.12982  1.0000
  H   H762      1.0  0.68879  0.98553  0.43034  1.0000
  S   S169      1.0  0.89724  0.23932  0.92295  1.0000
  S   S170      1.0  0.93506  0.33970  0.91427  1.0000
  Fe  Fe83      1.0  0.54857  0.08063  0.61691  1.0000
  S   S171      1.0  0.52313  0.04101  0.58376  1.0000
  S   S172      1.0  0.52748  0.05828  0.67047  1.0000
  Fe  Fe84      1.0  0.59634  0.14037  0.56054  1.0000
  S   S173      1.0  0.57487  0.10441  0.52368  1.0000
  S   S174      1.0  0.64286  0.19817  0.54879  1.0000
  Fe  Fe85      1.0  0.52307  0.08270  0.55101  1.0000
  C   C633      1.0  0.50188  0.11604  0.76518  1.0000
  Fe  Fe86      1.0  0.57653  0.06499  0.55921  1.0000
  S   S175      1.0  0.58435  0.02187  0.55104  1.0000
  S   S176      1.0  0.54479  0.12100  0.58582  1.0000
  S   S177      1.0  0.60162  0.10227  0.59436  1.0000
  Fe  Fe87      1.0  0.60826  0.11896  0.90962  1.0000
  S   S178      1.0  0.59914  0.07585  0.88397  1.0000
  S   S179      1.0  0.65848  0.15685  0.92957  1.0000
  Fe  Fe88      1.0  0.53726  0.10440  0.89834  1.0000
  H   H763      1.0  0.77088  0.03048  0.50308  1.0000
  H   H764      1.0  0.53729  0.99715  0.75828  1.0000
  Fe  Fe89      1.0  0.54552  0.04311  0.91068  1.0000
  C   C634      1.0  0.67681  0.27035  0.53218  1.0000
  Fe  Fe90      1.0  0.57867  0.09634  0.84697  1.0000
  S   S180      1.0  0.60200  0.11471  0.79390  1.0000
  S   S181      1.0  0.55564  0.08539  0.93885  1.0000
  S   S182      1.0  0.59059  0.14151  0.87132  1.0000
  H   H765      1.0  0.67755  0.10830  0.91965  1.0000
  S   S183      1.0  0.65337  0.34050  0.50259  1.0000
  C   C635      1.0  0.54865  0.07486  0.70437  1.0000
  C   C636      1.0  0.58244  0.10476  0.70100  1.0000
  C   C637      1.0  0.59831  0.11660  0.72867  1.0000
  C   C638      1.0  0.58059  0.09882  0.75993  1.0000
  C   C639      1.0  0.54677  0.06892  0.76330  1.0000
  C   C640      1.0  0.53101  0.05694  0.73565  1.0000
  H   H766      1.0  0.59635  0.11879  0.67711  1.0000
  H   H767      1.0  0.62448  0.13973  0.72576  1.0000
  H   H768      1.0  0.53288  0.05479  0.78716  1.0000
  H   H769      1.0  0.65507  0.07474  0.51808  1.0000
  C   C641      1.0  0.48737  0.14403  0.91458  1.0000
  H   H770      1.0  0.55131  0.38905  0.53142  1.0000
  H   H771      1.0  0.58567  0.04522  0.65429  1.0000
  C   C642      1.0  0.93652  0.05143  0.51128  1.0000
  C   C643      1.0  0.91810  0.02607  0.53933  1.0000
  H   H772      1.0  0.52910  0.22927  0.92601  1.0000
  H   H773      1.0  0.95423  0.10157  0.74897  1.0000
  H   H774      1.0  0.93152  0.02508  0.55911  1.0000
  C   C644      1.0  0.61785  0.01908  0.53524  1.0000
  C   C645      1.0  0.66886  0.01136  0.50963  1.0000
  H   H775      1.0  0.98118  0.09018  0.83101  1.0000
  C   C646      1.0  0.88207  0.00235  0.54213  1.0000
  H   H776      1.0  0.93081  0.17067  0.91377  1.0000
  H   H777      1.0  0.50490  0.03367  0.73848  1.0000
  C   C647      1.0  0.64485  0.23730  0.53633  1.0000
  C   C648      1.0  0.61583  0.23642  0.53024  1.0000
  C   C649      1.0  0.61888  0.26817  0.52000  1.0000
  C   C650      1.0  0.65087  0.30121  0.51583  1.0000
  H   H778      1.0  0.59109  0.21127  0.53324  1.0000
  C   C651      1.0  0.97195  0.41234  0.90109  1.0000
  C   C652      1.0  0.95651  0.38217  0.92552  1.0000
  C   C653      1.0  0.95911  0.38672  0.95777  1.0000
  C   C654      1.0  0.97375  0.19208  0.94063  1.0000
  H   H779      1.0  0.62270  0.38800  0.55819  1.0000
  C   C655      1.0  0.88576  0.48013  0.54532  1.0000
  Fe  Fe91      1.0  0.90991  0.28556  0.94654  1.0000
  H   H780      1.0  0.50920  0.16753  0.79568  1.0000
  H   H781      1.0  0.53052  0.29134  0.96208  1.0000
  H   H782      1.0  0.53436  0.42252  0.93671  1.0000
  H   H783      1.0  0.60081  0.03851  0.61873  1.0000
  Fe  Fe92      1.0  0.92182  0.22675  0.96196  1.0000
  C   C656      1.0  0.50932  0.41722  0.93561  1.0000
  C   C657      1.0  0.53203  0.14854  0.71056  1.0000
  H   H784      1.0  0.55247  0.17261  0.69477  1.0000
  H   H785      1.0  0.58516  0.33668  0.51310  1.0000
  H   H786      1.0  0.60549  0.33976  0.96099  1.0000
  C   C658      1.0  0.69580  0.15759  0.93501  1.0000
  C   C659      1.0  0.69872  0.13089  0.92795  1.0000
  C   C660      1.0  0.75735  0.16251  0.94228  1.0000
  C   C661      1.0  0.75401  0.18864  0.95033  1.0000
  C   C662      1.0  0.72348  0.18616  0.94670  1.0000
  H   H787      1.0  0.61769  0.03654  0.65580  1.0000
  H   H788      1.0  0.95655  0.04972  0.95714  1.0000
  C   C663      1.0  0.64981  0.04876  0.52015  1.0000
  C   C664      1.0  0.72930  0.13346  0.93143  1.0000
  N   N44       1.0  0.70228  0.17759  0.82866  1.0000
  C   C665      1.0  0.68144  0.19156  0.83260  1.0000
  C   C666      1.0  0.71143  0.18184  0.79351  1.0000
  C   C667      1.0  0.68014  0.13937  0.84258  1.0000
  C   C668      1.0  0.73377  0.19529  0.84451  1.0000
  C   C669      1.0  0.75590  0.18422  0.84359  1.0000
  C   C670      1.0  0.74336  0.22350  0.86129  1.0000
  C   C671      1.0  0.78540  0.19998  0.85888  1.0000
  C   C672      1.0  0.77325  0.23945  0.87605  1.0000
  C   C673      1.0  0.79412  0.22761  0.87498  1.0000
  H   H789      1.0  0.69589  0.21999  0.82152  1.0000
  H   H790      1.0  0.65779  0.17737  0.82070  1.0000
  H   H791      1.0  0.67272  0.18809  0.85861  1.0000
  H   H792      1.0  0.72896  0.21028  0.78224  1.0000
  H   H793      1.0  0.68822  0.16960  0.78077  1.0000
  H   H794      1.0  0.72431  0.16900  0.78834  1.0000
  H   H795      1.0  0.67277  0.13523  0.86898  1.0000
  H   H796      1.0  0.65616  0.12526  0.83123  1.0000
  H   H797      1.0  0.69268  0.12585  0.83914  1.0000
  H   H798      1.0  0.75025  0.16282  0.83153  1.0000
  H   H799      1.0  0.72789  0.23328  0.86405  1.0000
  H   H800      1.0  0.80125  0.19023  0.85901  1.0000
  H   H801      1.0  0.77975  0.26039  0.88933  1.0000
  H   H802      1.0  0.81657  0.23916  0.88748  1.0000
  Fe  Fe93      1.0  0.70168  0.39708  0.49612  1.0000
  N   N45       1.0  0.59386  0.38642  0.51920  1.0000
  C   C674      1.0  0.57190  0.34723  0.52379  1.0000
  C   C675      1.0  0.62659  0.39794  0.53179  1.0000
  C   C676      1.0  0.57637  0.39715  0.53935  1.0000
  H   H803      1.0  0.54774  0.48066  0.72039  1.0000
  C   C677      1.0  0.48918  0.13965  0.80705  1.0000
  H   H804      1.0  0.77516  0.21106  0.95888  1.0000
  N   N46       1.0  0.49852  0.11551  0.80044  1.0000
  H   H805      1.0  0.56452  0.33483  0.54985  1.0000
  Fe  Fe94      1.0  0.72270  0.46855  0.51168  1.0000
  C   C678      1.0  0.51062  0.11836  0.69756  1.0000
  C   C679      1.0  0.49663  0.01696  0.49613  1.0000
  H   H806      1.0  0.51524  0.03973  0.50743  1.0000
  H   H807      1.0  0.49008  0.44082  0.86221  1.0000
  H   H808      1.0  0.57105  0.38480  0.56529  1.0000
  S   S184      1.0  0.52418  0.06001  0.87158  1.0000
  C   C680      1.0  0.60080  0.40173  0.48434  1.0000
  H   H809      1.0  0.54048  0.18597  0.91376  1.0000
  H   H810      1.0  0.58225  0.43503  0.48710  1.0000
  C   C681      1.0  0.67493  0.04484  0.50723  1.0000
  S   S185      1.0  0.98194  0.08274  0.50672  1.0000
  H   H811      1.0  0.57621  0.34892  0.97613  1.0000
  H   H812      1.0  0.55612  0.03035  0.49309  1.0000
  H   H813      1.0  0.55255  0.15525  0.80179  1.0000
  Fe  Fe95      1.0  0.84823  0.20761  0.95823  1.0000
  H   H814      1.0  0.59258  0.42625  0.53869  1.0000
  C   C682      1.0  0.51442  0.17823  0.91751  1.0000
  C   C683      1.0  0.83529  0.11791  0.48436  1.0000
  C   C684      1.0  0.49321  0.44555  0.83528  1.0000
  H   H815      1.0  0.57763  0.04461  0.97363  1.0000
  C   C685      1.0  0.54417  0.28001  0.97212  1.0000
  S   S186      1.0  0.70144  0.00829  0.49180  1.0000
  H   H816      1.0  0.69930  0.06805  0.49531  1.0000
  C   C686      1.0  0.52762  0.14761  0.74380  1.0000
  H   H817      1.0  0.95817  0.10061  0.69109  1.0000
  C   C687      1.0  0.86387  0.00341  0.51698  1.0000
  H   H818      1.0  0.77073  0.06729  0.50982  1.0000
  H   H819      1.0  0.80865  0.47234  0.59782  1.0000
  H   H820      1.0  0.53843  0.99032  0.61513  1.0000
  C   C688      1.0  0.88238  0.02828  0.48858  1.0000
  C   C689      1.0  0.55076  0.99483  0.70975  1.0000
  C   C690      1.0  0.54462  0.98457  0.74335  1.0000
  H   H821      1.0  0.87410  0.45451  0.56042  1.0000
  H   H822      1.0  0.96625  0.00455  0.51144  1.0000
  S   S187      1.0  0.96521  0.21870  0.96022  1.0000
  C   C691      1.0  0.53158  0.12755  0.81254  1.0000
  H   H823      1.0  0.79720  0.05796  0.53036  1.0000
  H   H824      1.0  0.54488  0.17174  0.75266  1.0000
  H   H825      1.0  0.63978  0.38795  0.52014  1.0000
  H   H826      1.0  0.84781  0.06972  0.50598  1.0000
  H   H827      1.0  0.54004  0.11074  0.80711  1.0000
  H   H828      1.0  0.64456  0.42724  0.52778  1.0000
  C   C692      1.0  0.67984  0.30209  0.52209  1.0000
  C   C693      1.0  0.98302  0.09175  0.80427  1.0000
  S   S188      1.0  0.72404  0.42432  0.53808  1.0000
  H   H829      1.0  0.69943  0.27140  0.53678  1.0000
  H   H830      1.0  0.54803  0.33741  0.51254  1.0000
  H   H831      1.0  0.87533  0.47477  0.66386  1.0000
  C   C694      1.0  0.83954  0.47056  0.63290  1.0000
  C   C695      1.0  0.50641  0.44567  0.92963  1.0000
  S   S189      1.0  0.79589  0.16496  0.94465  1.0000
  H   H832      1.0  0.56055  0.28227  0.95112  1.0000
  C   C696      1.0  0.97652  0.42097  0.96539  1.0000
  H   H833      1.0  0.72153  0.20688  0.95252  1.0000
  S   S190      1.0  0.82026  0.45320  0.53096  1.0000
  H   H834      1.0  0.96714  0.30426  0.90787  1.0000
  C   C697      1.0  0.91842  0.05216  0.48584  1.0000
  C   C698      1.0  0.78754  0.05830  0.50674  1.0000
  C   C699      1.0  0.95313  0.17131  0.91888  1.0000
  H   H835      1.0  0.73139  0.11291  0.92537  1.0000
  H   H836      1.0  0.95641  0.07844  0.79841  1.0000
  H   H837      1.0  0.51145  0.43940  0.82786  1.0000
  Fe  Fe96      1.0  0.77589  0.45061  0.50866  1.0000
  C   C700      1.0  0.96144  0.15139  0.90350  1.0000
  H   H838      1.0  0.70462  0.32719  0.51905  1.0000
  H   H839      1.0  0.94746  0.36383  0.97685  1.0000
  S   S191      1.0  0.49396  0.11229  0.90375  1.0000
  H   H840      1.0  0.94521  0.13554  0.88674  1.0000
  H   H841      1.0  0.51463  0.11881  0.67189  1.0000
  H   H842      1.0  0.84678  0.12130  0.50733  1.0000
  C   C701      1.0  0.59392  0.02937  0.64542  1.0000
  C   C702      1.0  0.97933  0.11408  0.73574  1.0000
  H   H843      1.0  0.81893  0.44444  0.64554  1.0000
  C   C703      1.0  0.50782  0.20278  0.92461  1.0000
  H   H844      1.0  0.59628  0.26706  0.51519  1.0000
  N   N47       1.0  0.50532  0.48221  0.82146  1.0000
  H   H845      1.0  0.52954  0.12647  0.83915  1.0000
  H   H846      1.0  0.95041  0.09645  0.96906  1.0000
  S   S192      1.0  0.52351  0.98937  0.94229  1.0000
  H   H847      1.0  0.81870  0.12747  0.48531  1.0000
  C   C704      1.0  0.52816  0.48021  0.76761  1.0000
  H   H848      1.0  0.54273  0.47190  0.77937  1.0000
  H   H849      1.0  0.54761  0.01508  0.69973  1.0000
  C   C705      1.0  0.98127  0.11364  0.70258  1.0000
  C   C706      1.0  0.96990  0.06476  0.97567  1.0000
  H   H850      1.0  0.52671  0.99887  0.65155  1.0000
  H   H851      1.0  0.49733  0.99405  0.50545  1.0000
  C   C707      1.0  0.61173  0.98557  0.53747  1.0000
  H   H852      1.0  0.97013  0.40923  0.87606  1.0000
  H   H853      1.0  0.98623  0.28061  0.91182  1.0000
  H   H854      1.0  0.96549  0.13621  0.78838  1.0000
  H   H855      1.0  0.98532  0.29980  0.87249  1.0000
  N   N48       1.0  0.56695  0.99079  0.65386  1.0000
  C   C708      1.0  0.83922  0.06935  0.48167  1.0000
  S   S193      1.0  0.85941  0.25449  0.97896  1.0000
  C   C709      1.0  0.52649  0.52864  0.07023  1.0000
  C   C710      1.0  0.81532  0.48692  0.21862  1.0000
  H   H856      1.0  0.83234  0.94932  0.35972  1.0000
  H   H857      1.0  0.48907  0.70698  0.31839  1.0000
  H   H858      1.0  0.60653  0.67556  0.45761  1.0000
  C   C711      1.0  0.62574  0.70135  0.00725  1.0000
  H   H859      1.0  0.74702  0.94621  0.12355  1.0000
  S   S194      1.0  0.93913  0.87024  0.35738  1.0000
  C   C712      1.0  0.70387  0.61577  0.43576  1.0000
  S   S195      1.0  0.53934  0.51453  0.22889  1.0000
  H   H860      1.0  0.53360  0.74211  0.05869  1.0000
  S   S196      1.0  0.55150  0.53031  0.31391  1.0000
  Fe  Fe97      1.0  0.57620  0.71723  0.10593  1.0000
  S   S197      1.0  0.55729  0.67452  0.07541  1.0000
  S   S198      1.0  0.59822  0.77494  0.08621  1.0000
  Fe  Fe98      1.0  0.55415  0.66583  0.16648  1.0000
  S   S199      1.0  0.53330  0.61923  0.14188  1.0000
  S   S200      1.0  0.54889  0.65468  0.22003  1.0000
  Fe  Fe99      1.0  0.58178  0.65416  0.10744  1.0000
  S   S201      1.0  0.60822  0.63056  0.08672  1.0000
  Fe  Fe100     1.0  0.50993  0.64185  0.11241  1.0000
  C   C713      1.0  0.62248  0.93601  0.44957  1.0000
  S   S202      1.0  0.60449  0.69972  0.13440  1.0000
  S   S203      1.0  0.52698  0.68575  0.14035  1.0000
  Fe  Fe101     1.0  0.80913  0.63588  0.30623  1.0000
  S   S204      1.0  0.83604  0.68132  0.26403  1.0000
  S   S205      1.0  0.75892  0.62698  0.32616  1.0000
  Fe  Fe102     1.0  0.86555  0.62219  0.29976  1.0000
  S   S206      1.0  0.89450  0.66651  0.25707  1.0000
  S   S207      1.0  0.88531  0.58706  0.30535  1.0000
  Fe  Fe103     1.0  0.88423  0.69802  0.28551  1.0000
  S   S208      1.0  0.92943  0.75581  0.28082  1.0000
  Fe  Fe104     1.0  0.84402  0.64622  0.23981  1.0000
  S   S209      1.0  0.83299  0.63319  0.18995  1.0000
  S   S210      1.0  0.85766  0.65483  0.32967  1.0000
  S   S211      1.0  0.81483  0.59993  0.28056  1.0000
  Fe  Fe105     1.0  0.88878  0.74672  0.01816  1.0000
  H   H861      1.0  0.81293  0.57874  0.09130  1.0000
  S   S212      1.0  0.88584  0.75590  0.06925  1.0000
  H   H862      1.0  0.90279  0.95443  0.38203  1.0000
  H   H863      1.0  0.58524  0.82378  0.20285  1.0000
  H   H864      1.0  0.95825  0.65386  0.32132  1.0000
  C   C714      1.0  0.61537  0.94536  0.39336  1.0000
  H   H865      1.0  0.52800  0.52720  0.44104  1.0000
  H   H866      1.0  0.49255  0.87665  0.30734  1.0000
  C   C715      1.0  0.77104  0.58046  0.08010  1.0000
  H   H867      1.0  0.53197  0.90588  0.37825  1.0000
  C   C716      1.0  0.88848  0.53166  0.22641  1.0000
  S   S213      1.0  0.68557  0.89625  0.16903  1.0000
  C   C717      1.0  0.86680  0.49807  0.39585  1.0000
  S   S214      1.0  0.74161  0.54111  0.18650  1.0000
  H   H868      1.0  0.96572  0.95213  0.44994  1.0000
  Fe  Fe106     1.0  0.69869  0.52857  0.15648  1.0000
  S   S215      1.0  0.69790  0.57546  0.13242  1.0000
  Fe  Fe107     1.0  0.74791  0.50605  0.15972  1.0000
  S   S216      1.0  0.79663  0.51186  0.14080  1.0000
  H   H869      1.0  0.63624  0.50194  0.27665  1.0000
  H   H870      1.0  0.63429  0.57633  0.41059  1.0000
  C   C718      1.0  0.62783  0.94121  0.36430  1.0000
  H   H871      1.0  0.49369  0.50682  0.18129  1.0000
  C   C719      1.0  0.98337  0.77730  0.05947  1.0000
  H   H872      1.0  0.91756  0.56317  0.10804  1.0000
  C   C720      1.0  0.74747  0.48825  0.36186  1.0000
  C   C721      1.0  0.49617  0.76732  0.04774  1.0000
  H   H873      1.0  0.88130  0.64718  0.03784  1.0000
  H   H874      1.0  0.61628  0.92194  0.31934  1.0000
  H   H875      1.0  0.79238  0.52653  0.32764  1.0000
  H   H876      1.0  0.56889  0.93455  0.41891  1.0000
  C   C722      1.0  0.74427  0.53918  0.45229  1.0000
  H   H877      1.0  0.68027  0.74434  0.06201  1.0000
  C   C723      1.0  0.79790  0.59693  0.01514  1.0000
  H   H878      1.0  0.89598  0.63593  0.13173  1.0000
  H   H879      1.0  0.80996  0.82735  0.41717  1.0000
  C   C724      1.0  0.57683  0.64246  0.00565  1.0000
  H   H880      1.0  0.89956  0.62270  0.04104  1.0000
  Fe  Fe108     1.0  0.97808  0.92986  0.34224  1.0000
  C   C725      1.0  0.57590  0.63356  0.43131  1.0000
  C   C726      1.0  0.72870  0.95727  0.29888  1.0000
  H   H881      1.0  0.69640  0.62196  0.33172  1.0000
  H   H882      1.0  0.54396  0.50088  0.43753  1.0000
  H   H883      1.0  0.63507  0.57143  0.34272  1.0000
  S   S217      1.0  0.73596  0.92461  0.39063  1.0000
  Fe  Fe109     1.0  0.72980  0.93256  0.44187  1.0000
  H   H884      1.0  0.49868  0.69625  0.06903  1.0000
  H   H885      1.0  0.75518  0.58925  0.38164  1.0000
  H   H886      1.0  0.72546  0.91259  0.32552  1.0000
  C   C727      1.0  0.67036  0.59634  0.23345  1.0000
  C   C728      1.0  0.86709  0.54361  0.22349  1.0000
  Fe  Fe110     1.0  0.70224  0.95295  0.16811  1.0000
  H   H887      1.0  0.65716  0.78003  0.05372  1.0000
  N   N49       1.0  0.58141  0.55688  0.42184  1.0000
  C   C729      1.0  0.72936  0.93756  0.32678  1.0000
  C   C730      1.0  0.52050  0.75711  0.25967  1.0000
  C   C731      1.0  0.51234  0.75374  0.11405  1.0000
  C   C732      1.0  0.80124  0.58348  0.07178  1.0000
  C   C733      1.0  0.84763  0.66756  0.15674  1.0000
  C   C734      1.0  0.86134  0.70211  0.16101  1.0000
  C   C735      1.0  0.87267  0.72892  0.13397  1.0000
  C   C736      1.0  0.87092  0.72148  0.10257  1.0000
  C   C737      1.0  0.85691  0.68683  0.09838  1.0000
  C   C738      1.0  0.84498  0.65995  0.12537  1.0000
  H   H888      1.0  0.86331  0.70822  0.18511  1.0000
  H   H889      1.0  0.88331  0.75564  0.13742  1.0000
  H   H890      1.0  0.85494  0.68056  0.07444  1.0000
  H   H891      1.0  0.83378  0.63321  0.12186  1.0000
  H   H892      1.0  0.49054  0.83069  0.28160  1.0000
  C   C739      1.0  0.88768  0.60926  0.13066  1.0000
  C   C740      1.0  0.85267  0.58135  0.13915  1.0000
  C   C741      1.0  0.84092  0.54705  0.13567  1.0000
  C   C742      1.0  0.86482  0.54059  0.12558  1.0000
  C   C743      1.0  0.89983  0.56833  0.11747  1.0000
  H   H893      1.0  0.85176  0.50941  0.39746  1.0000
  H   H894      1.0  0.83459  0.58655  0.14732  1.0000
  H   H895      1.0  0.85603  0.51414  0.12278  1.0000
  H   H896      1.0  0.55504  0.89926  0.32855  1.0000
  C   C744      1.0  0.62812  0.61023  0.10336  1.0000
  C   C745      1.0  0.63462  0.59164  0.08415  1.0000
  C   C746      1.0  0.65273  0.57749  0.09472  1.0000
  C   C747      1.0  0.66496  0.58169  0.12476  1.0000
  C   C748      1.0  0.65798  0.59983  0.14423  1.0000
  C   C749      1.0  0.63933  0.61361  0.13387  1.0000
  H   H897      1.0  0.62632  0.58887  0.06047  1.0000
  H   H898      1.0  0.65876  0.56478  0.07879  1.0000
  H   H899      1.0  0.66817  0.60448  0.16688  1.0000
  H   H900      1.0  0.63508  0.62825  0.14887  1.0000
  C   C750      1.0  0.62207  0.80854  0.10949  1.0000
  C   C751      1.0  0.63480  0.80254  0.13700  1.0000
  C   C752      1.0  0.65412  0.82975  0.15473  1.0000
  C   C753      1.0  0.66078  0.86326  0.14545  1.0000
  C   C754      1.0  0.64809  0.86938  0.11788  1.0000
  C   C755      1.0  0.62898  0.84218  0.09992  1.0000
  H   H901      1.0  0.62992  0.77694  0.14461  1.0000
  H   H902      1.0  0.66386  0.82472  0.17596  1.0000
  H   H903      1.0  0.65294  0.89499  0.11040  1.0000
  H   H904      1.0  0.61933  0.84718  0.07862  1.0000
  C   C756      1.0  0.54329  0.55420  0.22740  1.0000
  C   C757      1.0  0.52262  0.55650  0.24981  1.0000
  C   C758      1.0  0.52582  0.58822  0.24912  1.0000
  C   C759      1.0  0.54967  0.61761  0.22586  1.0000
  C   C760      1.0  0.57102  0.61565  0.20399  1.0000
  C   C761      1.0  0.56776  0.58390  0.20471  1.0000
  H   H905      1.0  0.54211  0.51878  0.07251  1.0000
  C   C762      1.0  0.96863  0.65227  0.25927  1.0000
  H   H906      1.0  0.58966  0.63850  0.18606  1.0000
  H   H907      1.0  0.58440  0.58249  0.18798  1.0000
  C   C763      1.0  0.93628  0.83894  0.33514  1.0000
  C   C764      1.0  0.96084  0.84888  0.30905  1.0000
  C   C765      1.0  0.95825  0.82314  0.29265  1.0000
  C   C766      1.0  0.93086  0.78726  0.30177  1.0000
  C   C767      1.0  0.90606  0.77736  0.32757  1.0000
  C   C768      1.0  0.90890  0.80305  0.34425  1.0000
  H   H908      1.0  0.96175  0.78005  0.05855  1.0000
  H   H909      1.0  0.98192  0.87638  0.30170  1.0000
  H   H910      1.0  0.88490  0.74988  0.33495  1.0000
  H   H911      1.0  0.88979  0.79504  0.36440  1.0000
  C   C769      1.0  0.95088  0.55146  0.34881  1.0000
  C   C770      1.0  0.93560  0.54033  0.32104  1.0000
  C   C771      1.0  0.91532  0.55111  0.30859  1.0000
  C   C772      1.0  0.91018  0.57341  0.32335  1.0000
  C   C773      1.0  0.92553  0.58462  0.35112  1.0000
  C   C774      1.0  0.94579  0.57380  0.36365  1.0000
  H   H912      1.0  0.78464  0.60186  0.41068  1.0000
  H   H913      1.0  0.76010  0.52058  0.28094  1.0000
  H   H914      1.0  0.92148  0.60127  0.36320  1.0000
  C   C775      1.0  0.60999  0.55290  0.42457  1.0000
  C   C776      1.0  0.64499  0.53194  0.34375  1.0000
  C   C777      1.0  0.67082  0.52647  0.33962  1.0000
  C   C778      1.0  0.70574  0.55522  0.33223  1.0000
  C   C779      1.0  0.71529  0.58986  0.32998  1.0000
  C   C780      1.0  0.68939  0.59532  0.33342  1.0000
  C   C781      1.0  0.65449  0.56665  0.33975  1.0000
  H   H915      1.0  0.86392  0.95288  0.45370  1.0000
  H   H916      1.0  0.72522  0.55039  0.32972  1.0000
  C   C782      1.0  0.64569  0.52820  0.26415  1.0000
  C   C783      1.0  0.63513  0.57076  0.24187  1.0000
  C   C784      1.0  0.62283  0.53678  0.25720  1.0000
  C   C785      1.0  0.76476  0.50807  0.33094  1.0000
  H   H917      1.0  0.61712  0.57718  0.23647  1.0000
  S   S218      1.0  0.70752  0.49611  0.12756  1.0000
  N   N50       1.0  0.76533  0.68218  0.06204  1.0000
  C   C786      1.0  0.77691  0.66525  0.08484  1.0000
  C   C787      1.0  0.74042  0.65522  0.04376  1.0000
  C   C788      1.0  0.79512  0.71063  0.03835  1.0000
  C   C789      1.0  0.75110  0.69720  0.08028  1.0000
  C   C790      1.0  0.77229  0.72446  0.09775  1.0000
  C   C791      1.0  0.71620  0.68511  0.08187  1.0000
  C   C792      1.0  0.75939  0.73878  0.11551  1.0000
  C   C793      1.0  0.70359  0.69967  0.09969  1.0000
  C   C794      1.0  0.72509  0.72639  0.11649  1.0000
  H   H918      1.0  0.79699  0.68422  0.09836  1.0000
  H   H919      1.0  0.75530  0.64362  0.10309  1.0000
  H   H920      1.0  0.78812  0.65386  0.07210  1.0000
  H   H921      1.0  0.71841  0.63164  0.06028  1.0000
  H   H922      1.0  0.75235  0.64553  0.02935  1.0000
  H   H923      1.0  0.73065  0.66626  0.02608  1.0000
  H   H924      1.0  0.81706  0.72991  0.05012  1.0000
  H   H925      1.0  0.80515  0.69979  0.02306  1.0000
  H   H926      1.0  0.78804  0.72548  0.02188  1.0000
  H   H927      1.0  0.79904  0.73474  0.09797  1.0000
  H   H928      1.0  0.69792  0.66411  0.06992  1.0000
  H   H929      1.0  0.77609  0.75951  0.12871  1.0000
  H   H930      1.0  0.55792  0.56767  0.13544  1.0000
  H   H931      1.0  0.71504  0.73733  0.13047  1.0000
  H   H932      1.0  0.72418  0.94742  0.27637  1.0000
  H   H933      1.0  0.91299  0.90995  0.37557  1.0000
  N   N51       1.0  0.50064  0.69306  0.27530  1.0000
  C   C795      1.0  0.50997  0.53030  0.09795  1.0000
  H   H934      1.0  0.90367  0.54222  0.28724  1.0000
  H   H935      1.0  0.55939  0.65098  0.00347  1.0000
  H   H936      1.0  0.54907  0.55079  0.38452  1.0000
  C   C796      1.0  0.66178  0.73838  0.04525  1.0000
  C   C797      1.0  0.88804  0.90181  0.38631  1.0000
  H   H937      1.0  0.55273  0.53065  0.16092  1.0000
  H   H938      1.0  0.93914  0.52313  0.30931  1.0000
  H   H939      1.0  0.55321  0.71707  0.22708  1.0000
  H   H940      1.0  0.95813  0.63964  0.99736  1.0000
  H   H941      1.0  0.82389  0.49458  0.19214  1.0000
  H   H942      1.0  0.53780  0.70204  0.30738  1.0000
  H   H943      1.0  0.83223  0.53030  0.28183  1.0000
  H   H944      1.0  0.50727  0.72063  0.02892  1.0000
  C   C798      1.0  0.95106  0.76643  0.15844  1.0000
  C   C799      1.0  0.84948  0.91719  0.40418  1.0000
  H   H945      1.0  0.93517  0.68822  0.08239  1.0000
  C   C800      1.0  0.63284  0.65611  0.99217  1.0000
  S   S219      1.0  0.86555  0.69340  0.00566  1.0000
  C   C801      1.0  0.56930  0.60276  0.42221  1.0000
  Fe  Fe111     1.0  0.49914  0.50399  0.34170  1.0000
  H   H946      1.0  0.50356  0.53371  0.26733  1.0000
  H   H947      1.0  0.56576  0.61877  0.99409  1.0000
  H   H948      1.0  0.73226  0.60144  0.18488  1.0000
  S   S220      1.0  0.67992  0.91539  0.46924  1.0000
  H   H949      1.0  0.60474  0.52931  0.41519  1.0000
  H   H950      1.0  0.61355  0.76553  0.01718  1.0000
  C   C802      1.0  0.94417  0.71431  0.06811  1.0000
  C   C803      1.0  0.96063  0.76888  0.12585  1.0000
  C   C804      1.0  0.54954  0.73699  0.23169  1.0000
  C   C805      1.0  0.82357  0.88036  0.41390  1.0000
  C   C806      1.0  0.57146  0.77072  0.21296  1.0000
  H   H951      1.0  0.66084  0.69503  0.03436  1.0000
  C   C807      1.0  0.74200  0.64837  0.24381  1.0000
  C   C808      1.0  0.81040  0.53408  0.22532  1.0000
  C   C809      1.0  0.64882  0.75853  0.04063  1.0000
  H   H952      1.0  0.78344  0.94814  0.13484  1.0000
  H   H953      1.0  0.71513  0.59722  0.39712  1.0000
  H   H954      1.0  0.71026  0.51238  0.40324  1.0000
  S   S221      1.0  0.77160  0.49397  0.39459  1.0000
  H   H955      1.0  0.96634  0.60736  0.19584  1.0000
  H   H956      1.0  0.53807  0.68082  0.27489  1.0000
  C   C810      1.0  0.85887  0.60242  0.99573  1.0000
  C   C811      1.0  0.52353  0.72913  0.25587  1.0000
  H   H957      1.0  0.59127  0.77600  0.19492  1.0000
  C   C812      1.0  0.94364  0.71065  0.17149  1.0000
  C   C813      1.0  0.88188  0.92705  0.39020  1.0000
  C   C814      1.0  0.62111  0.63961  0.46007  1.0000
  C   C815      1.0  0.84060  0.55876  0.04328  1.0000
  C   C816      1.0  0.54243  0.79072  0.24058  1.0000
  S   S222      1.0  0.97477  0.53676  0.36698  1.0000
  C   C817      1.0  0.50421  0.55354  0.03435  1.0000
  C   C818      1.0  0.95346  0.71296  0.13906  1.0000
  H   H958      1.0  0.63927  0.94661  0.46878  1.0000
  C   C819      1.0  0.58915  0.58992  0.43115  1.0000
  H   H959      1.0  0.86356  0.55892  0.03740  1.0000
  H   H960      1.0  0.83403  0.55118  0.06998  1.0000
  S   S223      1.0  0.95230  0.63898  0.09931  1.0000
  C   C820      1.0  0.96237  0.74221  0.11517  1.0000
  N   N52       1.0  0.63718  0.96179  0.41874  1.0000
  C   C821      1.0  0.75329  0.60475  0.24298  1.0000
  H   H961      1.0  0.96215  0.50493  0.03806  1.0000
  H   H962      1.0  0.53580  0.53786  0.01813  1.0000
  H   H963      1.0  0.73356  0.64192  0.27028  1.0000
  C   C822      1.0  0.88346  0.58003  0.21061  1.0000
  C   C823      1.0  0.91880  0.60252  0.20054  1.0000
  C   C824      1.0  0.92387  0.55453  0.21671  1.0000
  C   C825      1.0  0.93895  0.58983  0.20360  1.0000
  H   H964      1.0  0.86949  0.59173  0.20753  1.0000
  H   H965      1.0  0.93057  0.62988  0.18982  1.0000
  H   H966      1.0  0.95161  0.71417  0.04277  1.0000
  H   H967      1.0  0.65417  0.95041  0.35869  1.0000
  N   N53       1.0  0.73347  0.55628  0.42876  1.0000
  C   C826      1.0  0.76238  0.57886  0.40228  1.0000
  C   C827      1.0  0.49143  0.54537  0.09236  1.0000
  C   C828      1.0  0.60623  0.92484  0.34125  1.0000
  C   C829      1.0  0.72396  0.57756  0.44280  1.0000
  H   H968      1.0  0.95384  0.69151  0.13272  1.0000
  H   H969      1.0  0.78305  0.91755  0.09056  1.0000
  C   C830      1.0  0.96207  0.97025  0.46126  1.0000
  H   H970      1.0  0.72979  0.58119  0.06281  1.0000
  S   S224      1.0  0.67585  0.96935  0.19881  1.0000
  H   H971      1.0  0.76698  0.55897  0.46299  1.0000
  H   H972      1.0  0.77129  0.56398  0.39222  1.0000
  Fe  Fe112     1.0  0.70186  0.49108  0.22138  1.0000
  H   H973      1.0  0.78228  0.51442  0.23221  1.0000
  H   H974      1.0  0.75148  0.52390  0.44046  1.0000
  H   H975      1.0  0.53680  0.77117  0.09897  1.0000
  H   H976      1.0  0.49770  0.66641  0.23589  1.0000
  H   H977      1.0  0.53951  0.81156  0.24390  1.0000
  H   H978      1.0  0.59609  0.97186  0.27677  1.0000
  N   N54       1.0  0.82964  0.51868  0.23388  1.0000
  N   N55       1.0  0.61229  0.67085  0.99052  1.0000
  C   C831      1.0  0.51195  0.75430  0.14718  1.0000
  H   H979      1.0  0.86725  0.84665  0.39260  1.0000
  C   C832      1.0  0.86798  0.96804  0.42925  1.0000
  N   N56       1.0  0.78721  0.96622  0.08391  1.0000
  H   H980      1.0  0.94948  0.78681  0.16603  1.0000
  H   H981      1.0  0.76069  0.57427  0.10533  1.0000
  H   H982      1.0  0.50143  0.75391  0.27719  1.0000
  C   C833      1.0  0.82310  0.50741  0.26947  1.0000
  N   N57       1.0  0.97294  0.74408  0.08099  1.0000
  N   N58       1.0  0.84703  0.59345  0.03097  1.0000
  Fe  Fe113     1.0  0.55382  0.48764  0.34146  1.0000
  H   H983      1.0  0.96004  0.62726  0.27560  1.0000
  H   H984      1.0  0.81934  0.97831  0.26185  1.0000
  H   H985      1.0  0.66384  0.49979  0.34257  1.0000
  H   H986      1.0  0.95718  0.58238  0.38531  1.0000
  H   H987      1.0  0.89101  0.51595  0.40561  1.0000
  H   H988      1.0  0.67677  0.68976  0.10083  1.0000
  H   H989      1.0  0.86951  0.61504  0.07301  1.0000
  C   C834      1.0  0.81559  0.59162  0.03904  1.0000
  C   C835      1.0  0.87544  0.62066  0.04642  1.0000
  C   C836      1.0  0.58013  0.93201  0.39770  1.0000
  C   C837      1.0  0.94252  0.73738  0.18118  1.0000
  C   C838      1.0  0.50669  0.72226  0.05509  1.0000
  H   H990      1.0  0.80520  0.95137  0.42555  1.0000
  H   H991      1.0  0.78896  0.91293  0.40813  1.0000
  H   H992      1.0  0.63106  0.64374  0.01726  1.0000
  H   H993      1.0  0.74860  0.58189  0.23284  1.0000
  H   H994      1.0  0.67857  0.62217  0.22126  1.0000
  H   H995      1.0  0.81795  0.55654  0.23781  1.0000
  H   H996      1.0  0.92194  0.71598  0.06822  1.0000
  C   C839      1.0  0.73450  0.94968  0.35637  1.0000
  C   C840      1.0  0.73954  0.98194  0.35780  1.0000
  H   H997      1.0  0.72329  0.52011  0.47213  1.0000
  C   C841      1.0  0.86219  0.86601  0.39597  1.0000
  H   H998      1.0  0.98104  0.70070  0.31756  1.0000
  C   C842      1.0  0.84993  0.96617  0.37621  1.0000
  C   C843      1.0  0.68095  0.55355  0.25584  1.0000
  C   C844      1.0  0.69444  0.58857  0.24029  1.0000
  H   H999      1.0  0.69705  0.54505  0.26238  1.0000
  S   S225      1.0  0.93919  0.77107  0.98764  1.0000
  H   H1000     1.0  0.98327  0.65360  0.23746  1.0000
  S   S226      1.0  0.93708  0.68576  0.98177  1.0000
  H   H1001     1.0  0.94349  0.67560  0.29779  1.0000
  C   C845      1.0  0.57420  0.55543  0.38781  1.0000
  C   C846      1.0  0.70365  0.52789  0.41559  1.0000
  H   H1002     1.0  0.93648  0.68783  0.18915  1.0000
  C   C847      1.0  0.55073  0.52651  0.44324  1.0000
  C   C848      1.0  0.60190  0.65206  0.45001  1.0000
  S   S227      1.0  0.53209  0.95610  0.31013  1.0000
  C   C849      1.0  0.80867  0.93009  0.42310  1.0000
  C   C850      1.0  0.65046  0.71012  0.02896  1.0000
  H   H1003     1.0  0.78097  0.62594  0.23579  1.0000
  H   H1004     1.0  0.73114  0.66197  0.23217  1.0000
  H   H1005     1.0  0.67430  0.95091  0.40755  1.0000
  H   H1006     1.0  0.52281  0.78769  0.05165  1.0000
  C   C851      1.0  0.96714  0.67843  0.30413  1.0000
  C   C852      1.0  0.74658  0.50461  0.30434  1.0000
  N   N59       1.0  0.51295  0.51731  0.13079  1.0000
  N   N60       1.0  0.73164  0.61604  0.23092  1.0000
  H   H1007     1.0  0.80275  0.91471  0.44786  1.0000
  H   H1008     1.0  0.56037  0.64280  0.42436  1.0000
  H   H1009     1.0  0.87807  0.50461  0.23674  1.0000
  H   H1010     1.0  0.79525  0.48781  0.27818  1.0000
  C   C853      1.0  0.61473  0.60881  0.45114  1.0000
  H   H1011     1.0  0.87656  0.98007  0.36416  1.0000
  H   H1012     1.0  0.62940  0.59972  0.46105  1.0000
  C   C854      1.0  0.52119  0.68268  0.29203  1.0000
  C   C855      1.0  0.71447  0.59679  0.42288  1.0000
  C   C856      1.0  0.54909  0.53975  0.13670  1.0000
  H   H1013     1.0  0.72548  0.63538  0.18407  1.0000
  S   S228      1.0  0.50606  0.96999  0.37567  1.0000
  H   H1014     1.0  0.93980  0.54495  0.21946  1.0000
  C   C857      1.0  0.49163  0.51774  0.15704  1.0000
  H   H1015     1.0  0.94531  0.64954  0.25179  1.0000
  C   C858      1.0  0.83003  0.85530  0.40974  1.0000
  C   C859      1.0  0.56801  0.79759  0.21740  1.0000
  H   H1016     1.0  0.81886  0.53732  0.03288  1.0000
  H   H1017     1.0  0.77728  0.93067  0.05074  1.0000
  H   H1018     1.0  0.74883  0.59749  0.26971  1.0000
  H   H1019     1.0  0.76740  0.64543  0.18716  1.0000
  C   C860      1.0  0.73951  0.62513  0.19522  1.0000
  H   H1020     1.0  0.57585  0.63403  0.03185  1.0000
  C   C861      1.0  0.52335  0.53984  0.03895  1.0000
  H   H1021     1.0  0.50896  0.58950  0.26578  1.0000
  H   H1022     1.0  0.74492  0.96825  0.07115  1.0000
  C   C862      1.0  0.67309  0.97345  0.41081  1.0000
  H   H1023     1.0  0.87341  0.49969  0.36976  1.0000
  H   H1024     1.0  0.77031  0.66819  0.24002  1.0000
  H   H1025     1.0  0.69393  0.53852  0.39767  1.0000
  H   H1026     1.0  0.48797  0.63738  0.99985  1.0000
  H   H1027     1.0  0.53566  0.77169  0.15666  1.0000
  S   S229      1.0  0.96223  0.96191  0.31485  1.0000
  H   H1028     1.0  0.56666  0.53968  0.11884  1.0000
  C   C863      1.0  0.57179  0.91204  0.34638  1.0000
  H   H1029     1.0  0.57289  0.53329  0.37909  1.0000
  Fe  Fe114     1.0  0.52335  0.49152  0.28120  1.0000
  H   H1030     1.0  0.66017  0.67677  0.98229  1.0000
  C   C864      1.0  0.77227  0.93031  0.07682  1.0000
  H   H1031     1.0  0.59553  0.51713  0.26377  1.0000
  H   H1032     1.0  0.69701  0.63044  0.41997  1.0000
  H   H1033     1.0  0.86481  0.62861  0.98495  1.0000
  C   C865      1.0  0.91138  0.60299  0.11921  1.0000
  H   H1034     1.0  0.50009  0.54503  0.15853  1.0000
  H   H1035     1.0  0.59445  0.58032  0.37131  1.0000
  H   H1036     1.0  0.68192  0.50923  0.43498  1.0000
  H   H1037     1.0  0.79808  0.87017  0.42469  1.0000
  H   H1038     1.0  0.97749  0.83107  0.27270  1.0000
  C   C866      1.0  0.76733  0.59320  0.02373  1.0000
  N   N61       1.0  0.84385  0.94464  0.40820  1.0000
  C   C867      1.0  0.61263  0.72207  0.00358  1.0000
  H   H1039     1.0  0.74388  0.91280  0.08365  1.0000
  H   H1040     1.0  0.93459  0.73542  0.20630  1.0000
  H   H1041     1.0  0.83642  0.49529  0.27803  1.0000
  C   C868      1.0  0.77549  0.96212  0.11838  1.0000
  H   H1042     1.0  0.81448  0.54356  0.19892  1.0000
  H   H1043     1.0  0.55497  0.52670  0.46911  1.0000
  C   C869      1.0  0.55877  0.91564  0.37452  1.0000
  C   C870      1.0  0.75374  0.58461  0.05612  1.0000
  H   H1044     1.0  0.54806  0.58882  0.40864  1.0000
  H   H1045     1.0  0.50457  0.65609  0.30770  1.0000
  S   S230      1.0  0.60211  0.49521  0.35863  1.0000
  H   H1046     1.0  0.61898  0.91096  0.44633  1.0000
  H   H1047     1.0  0.61408  0.54874  0.45007  1.0000
  C   C871      1.0  0.62428  0.75037  0.01988  1.0000
  H   H1048     1.0  0.88306  0.60452  0.99060  1.0000
  H   H1049     1.0  0.49630  0.76833  0.02115  1.0000
  H   H1050     1.0  0.50162  0.56200  0.01011  1.0000
  H   H1051     1.0  0.83957  0.58206  0.98260  1.0000
  H   H1052     1.0  0.97540  0.73460  0.27617  1.0000
  H   H1053     1.0  0.96599  0.79166  0.10948  1.0000
  H   H1054     1.0  0.64023  0.65335  0.47588  1.0000
  H   H1055     1.0  0.59255  0.71593  0.98881  1.0000
  C   C872      1.0  0.48869  0.55672  0.06095  1.0000
  C   C873      1.0  0.98508  0.50688  0.02794  1.0000
  H   H1056     1.0  0.80697  0.60382  0.98960  1.0000
  H   H1057     1.0  0.59719  0.92928  0.45939  1.0000
  H   H1058     1.0  0.89518  0.98154  0.41910  1.0000
  H   H1059     1.0  0.69350  0.63024  0.47894  1.0000
  H   H1060     1.0  0.91333  0.48707  0.42538  1.0000
  H   H1061     1.0  0.75412  0.59696  0.00500  1.0000
  C   C874      1.0  0.70217  0.61595  0.46883  1.0000
  S   S231      1.0  0.86635  0.76310  0.98003  1.0000
  C   C875      1.0  0.98036  0.48712  0.09624  1.0000
  C   C876      1.0  0.72282  0.57913  0.47630  1.0000
  C   C877      1.0  0.77303  0.98258  0.06416  1.0000
  H   H1062     1.0  0.49437  0.92081  0.98046  1.0000
  H   H1063     1.0  0.77687  0.98279  0.03794  1.0000
  H   H1064     1.0  0.97206  0.92374  0.97967  1.0000
  H   H1065     1.0  0.58290  0.98340  0.22651  1.0000
  H   H1066     1.0  0.63734  0.98344  0.26140  1.0000
  H   H1067     1.0  0.93871  0.95385  0.47947  1.0000
  S   S232      1.0  0.89367  0.73157  0.93057  1.0000
  S   S233      1.0  0.94160  0.83441  0.91057  1.0000
  Fe  Fe115     1.0  0.56642  0.57783  0.61327  1.0000
  S   S234      1.0  0.53681  0.52955  0.59010  1.0000
  S   S235      1.0  0.58371  0.57679  0.66324  1.0000
  Fe  Fe116     1.0  0.58278  0.62797  0.55032  1.0000
  S   S236      1.0  0.55420  0.58316  0.52251  1.0000
  S   S237      1.0  0.61964  0.68560  0.52459  1.0000
  H   H1068     1.0  0.97230  0.52927  0.64469  1.0000
  H   H1069     1.0  0.71023  0.59780  0.51478  1.0000
  Fe  Fe117     1.0  0.57924  0.55981  0.54839  1.0000
  S   S238      1.0  0.59840  0.53533  0.51779  1.0000
  S   S239      1.0  0.53994  0.60176  0.59200  1.0000
  S   S240      1.0  0.61044  0.60628  0.57286  1.0000
  Fe  Fe118     1.0  0.61248  0.62157  0.89926  1.0000
  S   S241      1.0  0.59528  0.58038  0.86760  1.0000
  S   S242      1.0  0.66588  0.66656  0.90863  1.0000
  Fe  Fe119     1.0  0.53903  0.59863  0.91939  1.0000
  C   C878      1.0  0.88067  0.52020  0.50805  1.0000
  Fe  Fe120     1.0  0.51309  0.55529  0.56545  1.0000
  Fe  Fe121     1.0  0.55259  0.54286  0.90854  1.0000
  H   H1070     1.0  0.95783  0.56041  0.67870  1.0000
  Fe  Fe122     1.0  0.55902  0.59357  0.85107  1.0000
  S   S243      1.0  0.54256  0.59626  0.80098  1.0000
  S   S244      1.0  0.57227  0.58331  0.94103  1.0000
  S   S245      1.0  0.57993  0.63849  0.87883  1.0000
  C   C879      1.0  0.93217  0.54632  0.67009  1.0000
  S   S246      1.0  0.65257  0.83610  0.53993  1.0000
  C   C880      1.0  0.57229  0.58313  0.70104  1.0000
  C   C881      1.0  0.54761  0.58990  0.70545  1.0000
  C   C882      1.0  0.53915  0.59414  0.73613  1.0000
  C   C883      1.0  0.55525  0.59181  0.76271  1.0000
  C   C884      1.0  0.58036  0.58566  0.75813  1.0000
  C   C885      1.0  0.58872  0.58127  0.72749  1.0000
  H   H1071     1.0  0.53459  0.59121  0.68545  1.0000
  C   C886      1.0  0.87265  0.76464  0.85621  1.0000
  H   H1072     1.0  0.59334  0.58427  0.77813  1.0000
  H   H1073     1.0  0.63177  0.95574  0.52716  1.0000
  H   H1074     1.0  0.61987  0.50149  0.48173  1.0000
  H   H1075     1.0  0.61646  0.72742  0.66825  1.0000
  C   C887      1.0  0.92126  0.50621  0.54403  1.0000
  C   C888      1.0  0.93672  0.53953  0.52475  1.0000
  C   C889      1.0  0.91620  0.54619  0.50661  1.0000
  C   C890      1.0  0.84644  0.77122  0.90210  1.0000
  H   H1076     1.0  0.59240  0.68679  0.95170  1.0000
  H   H1077     1.0  0.91214  0.56236  0.58422  1.0000
  C   C891      1.0  0.62714  0.52328  0.52529  1.0000
  C   C892      1.0  0.67362  0.50435  0.53435  1.0000
  C   C893      1.0  0.66774  0.52088  0.55675  1.0000
  C   C894      1.0  0.64454  0.53013  0.55239  1.0000
  H   H1078     1.0  0.68142  0.52682  0.57758  1.0000
  H   H1079     1.0  0.64042  0.54290  0.56983  1.0000
  C   C895      1.0  0.62734  0.72687  0.52892  1.0000
  C   C896      1.0  0.60691  0.72971  0.55108  1.0000
  C   C897      1.0  0.61467  0.76324  0.55380  1.0000
  C   C898      1.0  0.64275  0.79431  0.53430  1.0000
  H   H1080     1.0  0.58502  0.70618  0.56594  1.0000
  H   H1081     1.0  0.59892  0.76516  0.57123  1.0000
  C   C899      1.0  0.96042  0.87796  0.91867  1.0000
  C   C900      1.0  0.95871  0.88437  0.95001  1.0000
  C   C901      1.0  0.96054  0.57365  0.61589  1.0000
  C   C902      1.0  0.49113  0.64804  0.91818  1.0000
  H   H1082     1.0  0.68110  0.74036  0.58433  1.0000
  S   S247      1.0  0.81823  0.97326  0.52277  1.0000
  H   H1083     1.0  0.65977  0.48405  0.49024  1.0000
  H   H1084     1.0  0.58714  0.96233  0.54893  1.0000
  Fe  Fe123     1.0  0.91467  0.71799  0.97251  1.0000
  C   C903      1.0  0.96015  0.67504  0.95754  1.0000
  C   C904      1.0  0.53970  0.50709  0.83060  1.0000
  H   H1085     1.0  0.97385  0.95946  0.52217  1.0000
  C   C905      1.0  0.65572  0.49691  0.50755  1.0000
  C   C906      1.0  0.48810  0.94051  0.90171  1.0000
  S   S248      1.0  0.79150  0.66790  0.95794  1.0000
  C   C907      1.0  0.49577  0.63751  0.94900  1.0000
  C   C908      1.0  0.69955  0.66577  0.92432  1.0000
  C   C909      1.0  0.69855  0.63506  0.92973  1.0000
  C   C910      1.0  0.75617  0.66794  0.94609  1.0000
  C   C911      1.0  0.75670  0.69841  0.94180  1.0000
  C   C912      1.0  0.72864  0.69733  0.93079  1.0000
  H   H1086     1.0  0.63054  0.65437  0.67834  1.0000
  H   H1087     1.0  0.72983  0.56569  0.49341  1.0000
  C   C913      1.0  0.63295  0.50666  0.50291  1.0000
  N   N62       1.0  0.93408  0.53938  0.63695  1.0000
  N   N63       1.0  0.63331  0.68967  0.63776  1.0000
  H   H1088     1.0  0.95410  0.59308  0.61538  1.0000
  C   C914      1.0  0.64936  0.67813  0.61678  1.0000
  C   C915      1.0  0.63864  0.68214  0.67150  1.0000
  C   C916      1.0  0.64717  0.72751  0.62855  1.0000
  C   C917      1.0  0.53504  0.98336  0.64198  1.0000
  C   C918      1.0  0.89271  0.53720  0.59907  1.0000
  C   C919      1.0  0.71176  0.59781  0.48899  1.0000
  C   C920      1.0  0.89978  0.52176  0.62611  1.0000
  H   H1089     1.0  0.77880  0.72287  0.94653  1.0000
  H   H1090     1.0  0.58485  0.63915  0.64162  1.0000
  H   H1091     1.0  0.58330  0.98254  0.60947  1.0000
  C   C921      1.0  0.85997  0.51971  0.58961  1.0000
  H   H1092     1.0  0.63895  0.64978  0.62488  1.0000
  H   H1093     1.0  0.49937  0.64208  0.89728  1.0000
  Fe  Fe124     1.0  0.76909  0.95511  0.49990  1.0000
  S   S249      1.0  0.70464  0.49512  0.54022  1.0000
  H   H1094     1.0  0.49612  0.96278  0.88295  1.0000
  H   H1095     1.0  0.58152  0.67278  0.65246  1.0000
  C   C922      1.0  0.74761  0.70676  0.84265  1.0000
  C   C923      1.0  0.67154  0.74979  0.60072  1.0000
  C   C924      1.0  0.56061  0.97923  0.68940  1.0000
  H   H1096     1.0  0.92244  0.56291  0.67100  1.0000
  H   H1097     1.0  0.86529  0.52600  0.49426  1.0000
  H   H1098     1.0  0.51971  0.59893  0.73941  1.0000
  H   H1099     1.0  0.87152  0.81808  0.82587  1.0000
  H   H1100     1.0  0.55946  0.92146  0.74988  1.0000
  H   H1101     1.0  0.82891  0.77784  0.91085  1.0000
  Fe  Fe125     1.0  0.91510  0.78345  0.94814  1.0000
  C   C925      1.0  0.67122  0.79933  0.61109  1.0000
  H   H1102     1.0  0.60274  0.97808  0.64328  1.0000
  C   C926      1.0  0.57833  0.97289  0.63606  1.0000
  S   S250      1.0  0.51329  0.61254  0.95551  1.0000
  Fe  Fe126     1.0  0.84634  0.71089  0.96513  1.0000
  C   C927      1.0  0.59608  0.66784  0.63558  1.0000
  C   C928      1.0  0.98513  0.64169  0.95386  1.0000
  H   H1103     1.0  0.51668  0.50097  0.69099  1.0000
  C   C929      1.0  0.49786  0.94623  0.93250  1.0000
  N   N64       1.0  0.85016  0.77512  0.86644  1.0000
  H   H1104     1.0  0.72968  0.72124  0.92674  1.0000
  C   C930      1.0  0.65525  0.75791  0.50931  1.0000
  H   H1105     1.0  0.54279  0.95018  0.78382  1.0000
  C   C931      1.0  0.55719  0.94209  0.73853  1.0000
  H   H1106     1.0  0.92954  0.49109  0.65482  1.0000
  Fe  Fe127     1.0  0.71124  0.96543  0.48982  1.0000
  H   H1107     1.0  0.55876  0.50247  0.82194  1.0000
  C   C932      1.0  0.94612  0.51629  0.63739  1.0000
  H   H1108     1.0  0.81200  0.79356  0.83087  1.0000
  H   H1109     1.0  0.96404  0.57019  0.59068  1.0000
  H   H1110     1.0  0.64422  0.68063  0.59129  1.0000
  C   C933      1.0  0.63545  0.74288  0.64715  1.0000
  H   H1111     1.0  0.89906  0.78241  0.86258  1.0000
  H   H1112     1.0  0.80650  0.70251  0.88045  1.0000
  C   C934      1.0  0.66289  0.79138  0.51189  1.0000
  S   S251      1.0  0.51557  0.55425  0.89078  1.0000
  C   C935      1.0  0.49015  0.49879  0.76795  1.0000
  H   H1113     1.0  0.87481  0.76565  0.82961  1.0000
  C   C936      1.0  0.86514  0.48694  0.52752  1.0000
  S   S252      1.0  0.77649  0.49694  0.48588  1.0000
  H   H1114     1.0  0.74843  0.66433  0.86761  1.0000
  C   C937      1.0  0.97717  0.90687  0.89279  1.0000
  H   H1115     1.0  0.83601  0.74385  0.91425  1.0000
  H   H1116     1.0  0.85527  0.53146  0.56843  1.0000
  H   H1117     1.0  0.67958  0.82644  0.60369  1.0000
  H   H1118     1.0  0.62364  0.63483  0.97761  1.0000
  H   H1119     1.0  0.63739  0.70460  0.94402  1.0000
  C   C938      1.0  0.64729  0.77824  0.63841  1.0000
  C   C939      1.0  0.68348  0.78521  0.59246  1.0000
  H   H1120     1.0  0.85423  0.82399  0.86158  1.0000
  H   H1121     1.0  0.94596  0.86253  0.97020  1.0000
  H   H1122     1.0  0.96697  0.70810  0.91320  1.0000
  C   C940      1.0  0.83358  0.48632  0.60620  1.0000
  H   H1123     1.0  0.67752  0.69354  0.61717  1.0000
  H   H1124     1.0  0.68455  0.81494  0.49675  1.0000
  C   C941      1.0  0.76300  0.69262  0.85916  1.0000
  C   C942      1.0  0.61176  0.68117  0.95575  1.0000
  H   H1125     1.0  0.60793  0.57616  0.72431  1.0000
  C   C943      1.0  0.79645  0.71482  0.86620  1.0000
  H   H1126     1.0  0.86329  0.73757  0.86814  1.0000
  C   C944      1.0  0.86808  0.81326  0.85277  1.0000
  H   H1127     1.0  0.91505  0.52158  0.68803  1.0000
  C   C945      1.0  0.81577  0.75209  0.85651  1.0000
  H   H1128     1.0  0.54968  0.53489  0.82041  1.0000
  H   H1129     1.0  0.72585  0.61238  0.94392  1.0000
  H   H1130     1.0  0.59105  0.67325  0.61068  1.0000
  C   C946      1.0  0.87202  0.48806  0.64296  1.0000
  H   H1131     1.0  0.63741  0.78925  0.65248  1.0000
  H   H1132     1.0  0.66612  0.69990  0.67475  1.0000
  C   C947      1.0  0.72671  0.63620  0.94051  1.0000
  C   C948      1.0  0.50748  0.48687  0.78576  1.0000
  H   H1133     1.0  0.62342  0.68522  0.68952  1.0000
  H   H1134     1.0  0.55842  0.94390  0.63975  1.0000
  H   H1135     1.0  0.89422  0.82955  0.86021  1.0000
  H   H1136     1.0  0.72120  0.68947  0.83832  1.0000
  Fe  Fe128     1.0  0.69345  0.89024  0.50934  1.0000
  H   H1137     1.0  0.87145  0.78904  0.91071  1.0000
  S   S253      1.0  0.72178  0.93939  0.53183  1.0000
  H   H1138     1.0  0.57071  0.93870  0.69150  1.0000
  H   H1139     1.0  0.75365  0.75396  0.81976  1.0000
  H   H1140     1.0  0.51355  0.95493  0.64915  1.0000
  C   C949      1.0  0.76591  0.74315  0.83245  1.0000
  H   H1141     1.0  0.67638  0.61056  0.92496  1.0000
  C   C950      1.0  0.97191  0.68964  0.92473  1.0000
  H   H1142     1.0  0.70126  0.80153  0.57063  1.0000
  C   C951      1.0  0.79954  0.76566  0.83912  1.0000
  H   H1143     1.0  0.60468  0.65962  0.94212  1.0000
  H   H1144     1.0  0.94704  0.50966  0.61308  1.0000
  H   H1145     1.0  0.97877  0.90235  0.86844  1.0000
  C   C952      1.0  0.56358  0.95233  0.70484  1.0000
  S   S254      1.0  0.98143  0.57364  0.52195  1.0000
  C   C953      1.0  0.54777  0.95821  0.75773  1.0000
  C   C954      1.0  0.53113  0.48498  0.73386  1.0000
  C   C955      1.0  0.63703  0.98171  0.52499  1.0000
  C   C956      1.0  0.51352  0.49630  0.71722  1.0000
  C   C957      1.0  0.96701  0.65110  0.97197  1.0000
  H   H1146     1.0  0.53907  0.50470  0.85730  1.0000
  C   C958      1.0  0.49304  0.50310  0.73422  1.0000
  S   S255      1.0  0.74121  0.90410  0.48075  1.0000
  H   H1147     1.0  0.92783  0.57181  0.49151  1.0000
  S   S256      1.0  0.54423  0.48955  0.92378  1.0000
  H   H1148     1.0  0.93665  0.50033  0.55765  1.0000
  C   C959      1.0  0.97357  0.91919  0.95532  1.0000
  H   H1149     1.0  0.67115  0.75609  0.49197  1.0000
  H   H1150     1.0  0.86814  0.98322  0.56418  1.0000
  H   H1151     1.0  0.49051  0.51688  0.82917  1.0000
  C   C960      1.0  0.48707  0.91680  0.95655  1.0000
  H   H1152     1.0  0.98596  0.58606  0.62464  1.0000
