data_image0
_chemical_formula_structural       CHSHFeS2FeS2FeS3HFeHSCHFeSH2FeSC2SC6H3C2HS2H4CHC6H4C6HCH2FeHCHCHC3HSC3HCHCHC3SC2H4CSHFeHC2HC2NH2CHCFeHCH3CH2C2HFeSCH2C2HSHCHC5HC2H8CNHCHCHSCH10SH2NHFeSCHCH2C3HCHCHCH2CHC3HCHSH4C4FeS2CFe2HFeCSC2SHC2SC2H3CHFeCH3SC3H3CH3FeNH2C4HCHC3HCHSHSC2SH6C2H2CHCNHCNH2C4H3CHC3HSH2SCH3C2H3CH2C3H2C2H2C3H5SH3CHC3H3CHCSFeSFeSHCFeH2CFeC3FeH2C6H4CHC2SFeSCSFeSCS2C5H2CHC2HCH2C2HS2HCHCH5C3H3C2HSHCFeCHC2FeC4NHN2HNC9H14C2HCSCHCSH3CH2CSCH2CFeH2C4HCHS2H4CH2SHFeSH5CH2CH4CH2CHCHCS2CHC2FeS3FeH2CNC4HNH2CH2C4HC2H3CFeSHFeS2FeS3C6H3CHS2HCH5CHCS2CHC7H2CFeCH3NC2HSCH2CHCH2NCH8C2H2C3HC2H2SH2C2H2C5H3C2SC2H5C6H5C4HSCHCHCH3CHC2H5CHNH3CH4CFeS2FeS2FeSFeS4FeSFeS2FeSHS2HCHC8H5SC5H2CHCFeCFeH2CH3C5SH3CHC2H2CH2C3HSCHNHCHCH4SHCH2CFeCSHSCHCH3CH4CH3CH2C4HNCH8C5H4FeH2NC3HC4NHNH4CHC4SNCHC2FeS2FeS2FeSFeS4FeHC6H5CH2C4H2CHSCH2SHCH3CHCHC4HCHCHC5HC2H2C2H7CH4NCHSC3H2C3H3CH3CHCH2C2HC2HC3H4CN2C4H4CHCH2CH7CHCHCSCH2C2H2CNH3CHCH2C2HC3H6FeSHSHFeSFeHSHFeSHFeS2FeSFeS4C6HNHCHC8H4C2H2CH7FeCH4CHCH3SCH2C3H3CFeH4C2HNC4H5CH5C5H2C2HFeH2CHCNC2HNH2C3H3CHSCH2CH5C2HCHCNH3C4SCHCHC2H2CH2NC3H2C2HCHCFeS2FeCH3FeS3CFeSFeSHFeSFeS3CNC2H3CH2SC8H4C2HCHC2FeCH3SH5CSCH3CH2CH2CNH2C2HCH2C2H3C2HCHC3H4CHCHCSH2CHFeS2FeSCH2C3HSNC3HC2H2SHCSC2H2SFe2SHFeHFeCSCHCFeSHSHC6H3FeCH2SCSH2CHSNC6H2CH10CH4SH3NFeC4HFeSHSFe2HCNC2SH3C2H2C2H5C3HC3FeH3C2H2CH3FeC2HNH7CH2SHCHCHFeCHCHSHCHFeH3NHCSH2CSHS3H4FeHSH4C2SHC3H2CH2C2H2CHCHCH2C3H2CSC2HCH4C5HCHFeH2CH2NCHCHCHCHSHFeSHCS2FeSH2SC5H5C2HC3HC3SHCH2CH2NHCHCHCH2SH5C6HFeCH2NCHCHFeC2HNHCH2C2H3CNSFeH2C2HCFeH3CH3C2HNHCHSHCHC2H3CH2SHCHCSHSC3HCHSH3C3H2SCHCH3CHCH2SHCH2CHCHFe2CS2HFeH2S3C2HCH2C3H2C3H2CH4FeSC2H2CH3CH7C3NHCHC2HSH2C4HC3HCH2CHNH3C2NHFeH2CFeS2FeS2FeS3HFeS2CHFeSCHFeSFeH2C6H5SC3HSHCHCHC3H4C9H2CHNCSH2SH7CHS2CHCH6CHNC2H3SCH2C2SH2CNHC2H2FeCH3C3SHCFeSHSCH2SCHCFeHCHC2HNC8H3C2H6C4H2C2HC2H2CH5SH4NH2CHSHC2HSHCHS2HFeCHFeHSCHSHC3H4NCH2CH2CH2CH5CHC2S2C2HCFeHCHC6H3CHCH2CFeCHCHCHSCNH2C2H2SCHFeH3C6H4CHCSCHC4H3C2SHC3HCHCH3NC3H3C2HCHCH2CSH2CHFeCHCH4C3H3SCHCSCSFeS2HCH2C6FeHC6H3S2HFeHSHSC2FeSNSC6H2FeH2CHC2H2CHCH3SCH4CH3CNCH2CFeNC2H3C6HFeCS2HFeCH4C2FeHFeHNCH3CSH3SC2HCHC2HSHCHCSHCSHSHCH3CH4C2HC4HFeCH2CH4SCHC2H3CH3C2H5CHCH2SHCH3C2H4FeSNHFeH2SCH3CH5CHCHCH2C2HSHCFeSHFeS2FeS3C6H5CH5C2H2C2HC3HC3H3C3HC3H3SNC3SCHCH4C4HCHCHC2H2CH2NCHCH3SH2CH5CS2HC10SCNCHC2HCH2C2NCH4C2H3FeS2FeS2FeSFeHS2HFeSFeS2FeSFeSH4NHC7NH3C5H3CH2SCFeHSHCHSC6H3C6HCHCH2CH2CHNCH2CH2SC3HSH3C2H2C2H2NH2C7HSCH3CH7C2HCHC2HCSHC3H3C2H6CHFeS2FeS2FeSFeS4FeHC6H4C2H2SCHCFeH3CHSHC3H5CH2CH3CHC2H7C2HC3HCHCH2NC5HSCH11CH3C3HC2HNH2CHSCSHC3HCH2C6H3CNH3CH2CH2C3NH2C4H2C2HCSHC2H2CFeNCH5C2H2FeSFeSHFeSFeCSHFeSCFeS2FeSFeS4C6H3CH3C6H4C2HC2H2CHCHC2HSC2NFeCHCHCHCHC3HFeHNH2C2HC3HC2H6SC4HCH3CHCH6CH5SHCHNC5H3NCH6CHNH2CHCSH3C2NH3C2H3CH2CH2CH3C2FeS2FeSCFeHFeS3HFeSFeS2FeSFeS3CH2C3H5CHC6H4C2HC2H2C2NH3CSHC2HC3H2C2HCHCHC2HC2HCH4CH2C2H2CHSNH3C3HCHCSH4CH2CH3C2HCHC2S2FeSNH2C2H2SHC4HCH4CH2CH2SFe2SHFeHFeCSCH3SHSHC6H4SCH5CFeSN2CFeC3H2SHCH2CHCNHCFeCHCHCH5C4FeC2HSHCHC6FeCH3SHFe2CSFeHC2H2CHC3H3CHC2H4NHCHCH3CH6CSH3C2HNH3SCSH2C2HC2FeCH3C2H2CH2CSHCHCHSCHCS2H2NHFeSHCH4NC4SHCHFeC2HCH2C2HCHC2HSCHCH3SH2FeCSHCHCHCH7C2H2CHSHFeSCHS2FeSNHC6H3C4H3CHC3H2CH2CH5SCH2SC2HCSFeSCH2C2NCHC7H3Fe2SHC2H5SH2SCNCHSCHCH4CH2CNCH3CHFeCSCH2CH3CH2CH10CFeH3CH2CSHCHCH2SC3SH2CFeCSHCNFeCH3CFeH2S3HCSCH3CHC2HC2H3FeSHCHCHC3H2CHCH2C2HCH2CSCHSCHNH3CSHC2SC2H3C2HC2FeHSH2CH2
_chemical_formula_sum              "C1440 H1728 S384 Fe192 N96"
_cell_length_a       47.016
_cell_length_b       44.9591
_cell_length_c       38.8455
_cell_angle_alpha    91.1456
_cell_angle_beta     90.2604
_cell_angle_gamma    120.158

_space_group_name_H-M_alt    "P 1"
_space_group_IT_number       1

loop_
  _space_group_symop_operation_xyz
  'x, y, z'

loop_
  _atom_site_type_symbol
  _atom_site_label
  _atom_site_symmetry_multiplicity
  _atom_site_fract_x
  _atom_site_fract_y
  _atom_site_fract_z
  _atom_site_occupancy
  C   C1        1.0  0.05785  0.09150  0.16417  1.0000
  H   H1        1.0  0.21639  0.23971  0.43985  1.0000
  S   S1        1.0  0.99626  0.07223  0.32197  1.0000
  H   H2        1.0  0.12508  0.01852  0.45947  1.0000
  Fe  Fe1       1.0  0.11661  0.22780  0.30297  1.0000
  S   S2        1.0  0.10542  0.26353  0.33365  1.0000
  S   S3        1.0  0.12333  0.18462  0.32393  1.0000
  Fe  Fe2       1.0  0.10708  0.25466  0.23571  1.0000
  S   S4        1.0  0.09514  0.29224  0.26056  1.0000
  S   S5        1.0  0.10840  0.24614  0.17905  1.0000
  Fe  Fe3       1.0  0.06312  0.24884  0.29588  1.0000
  S   S6        1.0  0.01029  0.24008  0.29901  1.0000
  S   S7        1.0  0.15137  0.26909  0.26856  1.0000
  S   S8        1.0  0.07271  0.21070  0.26761  1.0000
  H   H3        1.0  0.01814  0.10983  0.25951  1.0000
  Fe  Fe4       1.0  0.08670  0.27519  0.42178  1.0000
  H   H4        1.0  0.15580  0.23757  0.37715  1.0000
  S   S9        1.0  0.05363  0.21540  0.41282  1.0000
  C   C2        1.0  0.98729  0.01759  0.12735  1.0000
  H   H5        1.0  0.03672  0.14439  0.23000  1.0000
  Fe  Fe5       1.0  0.01261  0.01650  0.43812  1.0000
  S   S10       1.0  0.02959  0.05817  0.39978  1.0000
  H   H6        1.0  0.14089  0.09202  0.40571  1.0000
  H   H7        1.0  0.21715  0.03563  0.97847  1.0000
  Fe  Fe6       1.0  0.04697  0.02643  0.36955  1.0000
  S   S11       1.0  0.09868  0.04012  0.34907  1.0000
  C   C3        1.0  0.19445  0.10324  0.28587  1.0000
  C   C4        1.0  0.20120  0.01714  0.18650  1.0000
  S   S12       1.0  0.06351  0.30139  0.45152  1.0000
  C   C5        1.0  0.13431  0.20544  0.98232  1.0000
  C   C6        1.0  0.16700  0.10761  0.28074  1.0000
  C   C7        1.0  0.13734  0.08817  0.29899  1.0000
  C   C8        1.0  0.13468  0.06430  0.32333  1.0000
  C   C9        1.0  0.16151  0.05888  0.32728  1.0000
  C   C10       1.0  0.19087  0.07791  0.30872  1.0000
  H   H8        1.0  0.11696  0.09254  0.29498  1.0000
  H   H9        1.0  0.15976  0.03981  0.34494  1.0000
  H   H10       1.0  0.22448  0.29540  0.45850  1.0000
  C   C11       1.0  0.13351  0.28582  0.15989  1.0000
  C   C12       1.0  0.13947  0.28713  0.12453  1.0000
  H   H11       1.0  0.03628  0.00507  0.24723  1.0000
  S   S13       1.0  0.13049  0.29646  0.45888  1.0000
  S   S14       1.0  0.05309  0.12778  0.02644  1.0000
  H   H12       1.0  0.09327  0.05192  0.14722  1.0000
  H   H13       1.0  0.12852  0.26364  0.10895  1.0000
  H   H14       1.0  0.16891  0.03971  0.45674  1.0000
  H   H15       1.0  0.10499  0.06068  0.42699  1.0000
  C   C13       1.0  0.17056  0.26261  0.39120  1.0000
  H   H16       1.0  0.10347  0.09271  0.40146  1.0000
  C   C14       1.0  0.19070  0.21170  0.33364  1.0000
  C   C15       1.0  0.21805  0.20918  0.34460  1.0000
  C   C16       1.0  0.15902  0.18314  0.33547  1.0000
  C   C17       1.0  0.15512  0.15224  0.34789  1.0000
  C   C18       1.0  0.18257  0.14935  0.35730  1.0000
  C   C19       1.0  0.08214  0.15180  0.18039  1.0000
  H   H17       1.0  0.05620  0.00814  0.18632  1.0000
  H   H18       1.0  0.13065  0.13013  0.34963  1.0000
  H   H19       1.0  0.17941  0.12514  0.36569  1.0000
  H   H20       1.0  0.22174  0.05680  0.01876  1.0000
  C   C20       1.0  0.01265  0.11121  0.34916  1.0000
  C   C21       1.0  0.00259  0.11244  0.38307  1.0000
  C   C22       1.0  0.01511  0.14408  0.40197  1.0000
  C   C23       1.0  0.03845  0.17555  0.38783  1.0000
  C   C24       1.0  0.04904  0.17416  0.35453  1.0000
  C   C25       1.0  0.03641  0.14270  0.33556  1.0000
  H   H21       1.0  0.99795  0.23127  0.41868  1.0000
  C   C26       1.0  0.11901  0.08828  0.42006  1.0000
  H   H22       1.0  0.06723  0.19726  0.34313  1.0000
  H   H23       1.0  0.04533  0.14306  0.30999  1.0000
  Fe  Fe7       1.0  0.03495  0.01562  0.05969  1.0000
  H   H24       1.0  0.16878  0.12642  0.26273  1.0000
  C   C27       1.0  0.22707  0.03825  0.00515  1.0000
  H   H25       1.0  0.08147  0.07645  0.47367  1.0000
  C   C28       1.0  0.14942  0.06058  0.20752  1.0000
  H   H26       1.0  0.21591  0.03379  0.27236  1.0000
  C   C29       1.0  0.09433  0.01424  0.22299  1.0000
  C   C30       1.0  0.98647  0.27463  0.38965  1.0000
  C   C31       1.0  0.14674  0.01519  0.46375  1.0000
  H   H27       1.0  0.01119  0.32202  0.44142  1.0000
  S   S15       1.0  0.08103  0.05859  0.03789  1.0000
  C   C32       1.0  0.10282  0.19645  0.46496  1.0000
  C   C33       1.0  0.14776  0.31627  0.17991  1.0000
  C   C34       1.0  0.00695  0.14081  0.13797  1.0000
  H   H28       1.0  0.00661  0.10209  0.21472  1.0000
  C   C35       1.0  0.08213  0.02171  0.19285  1.0000
  H   H29       1.0  0.10305  0.12474  0.24525  1.0000
  C   C36       1.0  0.99914  0.99555  0.13540  1.0000
  H   H30       1.0  0.11668  0.21338  0.41429  1.0000
  C   C37       1.0  0.98869  0.23332  0.44353  1.0000
  C   C38       1.0  0.20785  0.01913  0.24818  1.0000
  C   C39       1.0  0.20400  0.24199  0.41644  1.0000
  S   S16       1.0  0.20384  0.00459  0.34631  1.0000
  C   C40       1.0  0.18259  0.11532  0.46253  1.0000
  C   C41       1.0  0.12875  0.03476  0.22984  1.0000
  H   H31       1.0  0.20396  0.03044  0.16266  1.0000
  H   H32       1.0  0.00661  0.14404  0.42778  1.0000
  H   H33       1.0  0.19449  0.30733  0.44740  1.0000
  H   H34       1.0  0.08758  0.17261  0.19855  1.0000
  C   C42       1.0  0.06739  0.10064  0.13014  1.0000
  S   S17       1.0  0.00160  0.03358  0.03976  1.0000
  H   H35       1.0  0.22220  0.06378  0.21792  1.0000
  Fe  Fe8       1.0  0.04722  0.07496  0.01473  1.0000
  H   H36       1.0  0.16617  0.15436  0.42383  1.0000
  C   C43       1.0  0.09171  0.16063  0.14633  1.0000
  C   C44       1.0  0.08423  0.13510  0.12122  1.0000
  H   H37       1.0  0.16642  0.22562  0.21935  1.0000
  C   C45       1.0  0.21412  0.17782  0.35598  1.0000
  C   C46       1.0  0.15983  0.31886  0.10926  1.0000
  N   N1        1.0  0.18488  0.25919  0.42410  1.0000
  H   H38       1.0  0.10449  0.18748  0.13923  1.0000
  H   H39       1.0  0.09111  0.14203  0.09467  1.0000
  C   C47       1.0  0.15959  0.23873  0.44971  1.0000
  H   H40       1.0  0.05882  0.06326  0.22842  1.0000
  C   C48       1.0  0.15028  0.10564  0.47337  1.0000
  Fe  Fe9       1.0  0.13748  0.30434  0.29632  1.0000
  H   H41       1.0  0.16464  0.31966  0.08202  1.0000
  C   C49       1.0  0.02239  0.17161  0.15704  1.0000
  H   H42       1.0  0.15233  0.16561  0.46235  1.0000
  H   H43       1.0  0.12765  0.15237  0.42330  1.0000
  H   H44       1.0  0.14031  0.03200  0.25270  1.0000
  C   C50       1.0  0.02776  0.11657  0.23295  1.0000
  H   H45       1.0  0.18774  0.21555  0.40565  1.0000
  H   H46       1.0  0.11045  0.14990  0.98286  1.0000
  C   C51       1.0  0.21140  0.03600  0.21751  1.0000
  C   C52       1.0  0.11034  0.17250  0.99278  1.0000
  H   H47       1.0  0.18560  0.18850  0.00056  1.0000
  Fe  Fe10      1.0  0.99447  0.00030  0.99344  1.0000
  S   S18       1.0  0.23153  0.12877  0.26181  1.0000
  C   C53       1.0  0.00698  0.17637  0.18558  1.0000
  H   H48       1.0  0.04457  0.06431  0.16907  1.0000
  H   H49       1.0  0.15469  0.27414  0.39561  1.0000
  C   C54       1.0  0.10313  0.04722  0.17046  1.0000
  C   C55       1.0  0.08174  0.12820  0.25112  1.0000
  H   H50       1.0  0.99133  0.19099  0.35588  1.0000
  S   S19       1.0  0.11249  0.32029  0.38551  1.0000
  H   H51       1.0  0.06883  0.02566  0.27923  1.0000
  C   C56       1.0  0.13668  0.06669  0.17783  1.0000
  H   H52       1.0  0.08128  0.11003  0.45082  1.0000
  C   C57       1.0  0.12601  0.21608  0.44037  1.0000
  C   C58       1.0  0.13420  0.23515  0.99404  1.0000
  C   C59       1.0  0.05242  0.00096  0.26510  1.0000
  C   C60       1.0  0.04037  0.07122  0.23377  1.0000
  C   C61       1.0  0.08569  0.16886  0.01512  1.0000
  H   H53       1.0  0.22468  0.31140  0.41733  1.0000
  C   C62       1.0  0.06510  0.11693  0.19047  1.0000
  C   C63       1.0  0.08609  0.19863  0.02787  1.0000
  H   H54       1.0  0.15280  0.08678  0.16066  1.0000
  H   H55       1.0  0.21054  0.07254  0.31201  1.0000
  H   H56       1.0  0.06714  0.19610  0.04528  1.0000
  H   H57       1.0  0.19406  0.23573  0.32420  1.0000
  H   H58       1.0  0.10966  0.25424  0.02660  1.0000
  H   H59       1.0  0.01902  0.13731  0.11577  1.0000
  H   H60       1.0  0.17545  0.07647  0.21370  1.0000
  H   H61       1.0  0.09057  0.15621  0.25137  1.0000
  C   C64       1.0  0.14433  0.14748  0.43975  1.0000
  N   N2        1.0  0.05397  0.10817  0.22638  1.0000
  H   H62       1.0  0.07719  0.18012  0.45722  1.0000
  C   C65       1.0  0.19042  0.23137  0.22892  1.0000
  H   H63       1.0  0.06139  0.08084  0.11040  1.0000
  C   C66       1.0  0.11031  0.23168  0.01749  1.0000
  H   H64       1.0  0.19144  0.12643  0.43763  1.0000
  S   S20       1.0  0.22406  0.07856  0.40672  1.0000
  C   C67       1.0  0.20797  0.29460  0.43759  1.0000
  H   H65       1.0  0.21266  0.01282  0.01741  1.0000
  H   H66       1.0  0.02043  0.20057  0.19985  1.0000
  H   H67       1.0  0.07463  0.12030  0.27824  1.0000
  H   H68       1.0  0.04653  0.19203  0.14965  1.0000
  H   H69       1.0  0.14363  0.31549  0.20726  1.0000
  H   H70       1.0  0.18984  0.27927  0.37283  1.0000
  H   H71       1.0  0.01737  0.05439  0.21863  1.0000
  H   H72       1.0  0.22343  0.25646  0.39728  1.0000
  H   H73       1.0  0.03340  0.06581  0.26136  1.0000
  H   H74       1.0  0.99990  0.03763  0.10913  1.0000
  S   S21       1.0  0.99851  0.99647  0.34186  1.0000
  H   H75       1.0  0.01339  0.28506  0.39326  1.0000
  H   H76       1.0  0.00394  0.17848  0.25657  1.0000
  N   N3        1.0  0.12793  0.11126  0.45091  1.0000
  H   H77       1.0  0.17287  0.18087  0.24843  1.0000
  Fe  Fe11      1.0  0.06810  0.02300  0.99145  1.0000
  S   S22       1.0  0.03281  0.99805  0.11378  1.0000
  C   C68       1.0  0.19416  0.20611  0.24500  1.0000
  H   H78       1.0  0.21091  0.25094  0.99805  1.0000
  C   C69       1.0  0.22406  0.23914  0.98693  1.0000
  H   H79       1.0  0.22604  0.19237  0.26931  1.0000
  H   H80       1.0  0.10321  0.00001  0.29175  1.0000
  C   C70       1.0  0.20925  0.20334  0.98839  1.0000
  C   C71       1.0  0.19889  0.00040  0.47147  1.0000
  C   C72       1.0  0.22509  0.21329  0.25715  1.0000
  H   H81       1.0  0.16266  0.01283  0.39604  1.0000
  C   C73       1.0  0.99229  0.21476  0.47002  1.0000
  H   H82       1.0  0.22880  0.11820  0.47476  1.0000
  C   C74       1.0  0.09691  0.10411  0.46778  1.0000
  H   H83       1.0  0.21425  0.28399  0.21362  1.0000
  C   C75       1.0  0.21746  0.26425  0.22564  1.0000
  H   H84       1.0  0.11993  0.99818  0.40279  1.0000
  H   H85       1.0  0.00391  0.19954  0.46483  1.0000
  C   C76       1.0  0.13957  0.99151  0.40642  1.0000
  H   H86       1.0  0.21359  0.15892  0.97592  1.0000
  C   C77       1.0  0.22506  0.99419  0.47533  1.0000
  C   C78       1.0  0.17798  0.20114  0.90264  1.0000
  C   C79       1.0  0.04533  0.26754  0.64196  1.0000
  H   H87       1.0  0.06647  0.18968  0.67064  1.0000
  C   C80       1.0  0.04774  0.23777  0.64797  1.0000
  H   H88       1.0  0.19792  0.13619  0.79502  1.0000
  S   S23       1.0  0.11581  0.99599  0.57030  1.0000
  H   H89       1.0  0.08295  0.14877  0.89610  1.0000
  H   H90       1.0  0.08737  0.28086  0.69882  1.0000
  H   H91       1.0  0.04262  0.19181  0.62174  1.0000
  H   H92       1.0  0.18105  0.99449  0.57591  1.0000
  C   C81       1.0  0.03897  0.22480  0.58573  1.0000
  C   C82       1.0  0.13855  0.30913  0.64479  1.0000
  C   C83       1.0  0.15246  0.19114  0.73173  1.0000
  C   C84       1.0  0.22672  0.26975  0.84140  1.0000
  Fe  Fe12      1.0  0.10709  0.29945  0.80623  1.0000
  S   S24       1.0  0.05995  0.27170  0.83904  1.0000
  S   S25       1.0  0.13073  0.27122  0.78152  1.0000
  C   C85       1.0  0.03630  0.10182  0.70396  1.0000
  Fe  Fe13      1.0  0.09107  0.03499  0.68236  1.0000
  Fe  Fe14      1.0  0.17728  0.30884  0.81031  1.0000
  H   H93       1.0  0.21382  0.11280  0.77210  1.0000
  Fe  Fe15      1.0  0.15011  0.02293  0.69230  1.0000
  C   C86       1.0  0.99669  0.29656  0.69586  1.0000
  S   S26       1.0  0.19705  0.04211  0.72421  1.0000
  C   C87       1.0  0.18024  0.22386  0.73373  1.0000
  C   C88       1.0  0.14502  0.21965  0.50924  1.0000
  S   S27       1.0  0.13878  0.05278  0.65453  1.0000
  H   H94       1.0  0.19959  0.02040  0.48794  1.0000
  C   C89       1.0  0.04374  0.01974  0.51664  1.0000
  C   C90       1.0  0.21040  0.13559  0.77098  1.0000
  S   S28       1.0  0.10458  0.00874  0.72266  1.0000
  C   C91       1.0  0.23592  0.00102  0.80450  1.0000
  C   C92       1.0  0.07709  0.02536  0.56687  1.0000
  H   H95       1.0  0.14777  0.01150  0.49193  1.0000
  H   H96       1.0  0.11621  0.08017  0.51573  1.0000
  H   H97       1.0  0.00975  0.07984  0.60815  1.0000
  C   C93       1.0  0.01702  0.08598  0.63500  1.0000
  H   H98       1.0  0.01095  0.17774  0.67747  1.0000
  Fe  Fe16      1.0  0.14715  0.31139  0.74010  1.0000
  C   C94       1.0  0.14088  0.29476  0.61307  1.0000
  H   H99       1.0  0.14191  0.26823  0.90386  1.0000
  H   H100      1.0  0.19779  0.99258  0.63449  1.0000
  H   H101      1.0  0.15003  0.27698  0.61275  1.0000
  S   S29       1.0  0.15031  0.29704  0.68365  1.0000
  C   C95       1.0  0.03808  0.25491  0.58061  1.0000
  C   C96       1.0  0.01577  0.25204  0.83867  1.0000
  C   C97       1.0  0.01478  0.11168  0.68940  1.0000
  H   H102      1.0  0.00945  0.25477  0.78415  1.0000
  H   H103      1.0  0.01264  0.24494  0.89357  1.0000
  H   H104      1.0  0.04675  0.06160  0.63423  1.0000
  C   C98       1.0  0.16113  0.16569  0.90674  1.0000
  H   H105      1.0  0.04726  0.28503  0.66247  1.0000
  H   H106      1.0  0.11382  0.11970  0.90824  1.0000
  H   H107      1.0  0.03618  0.20810  0.56393  1.0000
  Fe  Fe17      1.0  0.11076  0.00158  0.62675  1.0000
  N   N4        1.0  0.10683  0.21737  0.88425  1.0000
  H   H108      1.0  0.15273  0.20788  0.96447  1.0000
  H   H109      1.0  0.07471  0.21574  0.84342  1.0000
  C   C99       1.0  0.16851  0.23919  0.48481  1.0000
  C   C100      1.0  0.99879  0.24108  0.86995  1.0000
  C   C101      1.0  0.21456  0.19831  0.74063  1.0000
  C   C102      1.0  0.05492  0.03269  0.55006  1.0000
  H   H110      1.0  0.00357  0.20910  0.69814  1.0000
  C   C103      1.0  0.12770  0.25507  0.87990  1.0000
  H   H111      1.0  0.04642  0.26478  0.71426  1.0000
  C   C104      1.0  0.08793  0.00507  0.55016  1.0000
  C   C105      1.0  0.02177  0.20042  0.69547  1.0000
  C   C106      1.0  0.12823  0.99505  0.96276  1.0000
  H   H112      1.0  0.18531  0.23237  0.81105  1.0000
  C   C107      1.0  0.12691  0.14725  0.90444  1.0000
  H   H113      1.0  0.13296  0.29141  0.55772  1.0000
  S   S30       1.0  0.01780  0.03060  0.49460  1.0000
  H   H114      1.0  0.08701  0.21571  0.70764  1.0000
  S   S31       1.0  0.21555  0.30235  0.84148  1.0000
  C   C108      1.0  0.03802  0.07556  0.64973  1.0000
  C   C109      1.0  0.06539  0.25764  0.70833  1.0000
  S   S32       1.0  0.10433  0.01555  0.95864  1.0000
  H   H115      1.0  0.16360  0.07868  0.74259  1.0000
  H   H116      1.0  0.06841  0.22449  0.90606  1.0000
  H   H117      1.0  0.17468  0.15256  0.91192  1.0000
  H   H118      1.0  0.20083  0.18741  0.81452  1.0000
  H   H119      1.0  0.21200  0.11044  0.70784  1.0000
  H   H120      1.0  0.09875  0.23324  0.66563  1.0000
  C   C110      1.0  0.16081  0.21837  0.89572  1.0000
  C   C111      1.0  0.07734  0.21630  0.68165  1.0000
  H   H121      1.0  0.07200  0.25122  0.73349  1.0000
  H   H122      1.0  0.11268  0.26717  0.87392  1.0000
  C   C112      1.0  0.20411  0.11032  0.48335  1.0000
  H   H123      1.0  0.04669  0.04860  0.56284  1.0000
  C   C113      1.0  0.14897  0.99867  0.93549  1.0000
  N   N5        1.0  0.19114  0.13411  0.73991  1.0000
  H   H124      1.0  0.06934  0.17479  0.85367  1.0000
  C   C114      1.0  0.10946  0.16419  0.89752  1.0000
  N   N6        1.0  0.05322  0.22852  0.68281  1.0000
  H   H125      1.0  0.10174  0.11961  0.49203  1.0000
  H   H126      1.0  0.20459  0.21544  0.90498  1.0000
  C   C115      1.0  0.08323  0.21208  0.91196  1.0000
  C   C116      1.0  0.12587  0.20029  0.89271  1.0000
  C   C117      1.0  0.08816  0.20242  0.85153  1.0000
  C   C118      1.0  0.21643  0.21216  0.82688  1.0000
  H   H127      1.0  0.21061  0.09042  0.53076  1.0000
  H   H128      1.0  0.17780  0.24654  0.73173  1.0000
  H   H129      1.0  0.03980  0.29920  0.60469  1.0000
  C   C119      1.0  0.13130  0.30298  0.58174  1.0000
  H   H130      1.0  0.14436  0.09996  0.76278  1.0000
  C   C120      1.0  0.14050  0.08930  0.50564  1.0000
  C   C121      1.0  0.18678  0.16454  0.73892  1.0000
  C   C122      1.0  0.15548  0.16183  0.73421  1.0000
  H   H131      1.0  0.10498  0.20466  0.83037  1.0000
  S   S33       1.0  0.07558  0.07246  0.70381  1.0000
  H   H132      1.0  0.09637  0.22352  0.93683  1.0000
  H   H133      1.0  0.09391  0.18375  0.51835  1.0000
  S   S34       1.0  0.03743  0.04270  0.96586  1.0000
  C   C123      1.0  0.19389  0.09464  0.51498  1.0000
  H   H134      1.0  0.06556  0.18449  0.91632  1.0000
  H   H135      1.0  0.17550  0.24591  0.89332  1.0000
  H   H136      1.0  0.08604  0.03577  0.59252  1.0000
  C   C124      1.0  0.99715  0.24668  0.80852  1.0000
  C   C125      1.0  0.20914  0.13355  0.70889  1.0000
  H   H137      1.0  0.12838  0.18838  0.72793  1.0000
  H   H138      1.0  0.13288  0.13735  0.73197  1.0000
  H   H139      1.0  0.19586  0.13314  0.68492  1.0000
  C   C126      1.0  0.04065  0.27586  0.60872  1.0000
  H   H140      1.0  0.15226  0.22119  0.53607  1.0000
  H   H141      1.0  0.03549  0.26218  0.55485  1.0000
  C   C127      1.0  0.04328  0.21602  0.61892  1.0000
  C   C128      1.0  0.04791  0.08355  0.68431  1.0000
  C   C129      1.0  0.20748  0.23774  0.82485  1.0000
  H   H142      1.0  0.15407  0.07130  0.55048  1.0000
  H   H143      1.0  0.02479  0.19170  0.72114  1.0000
  C   C130      1.0  0.16211  0.08397  0.52600  1.0000
  C   C131      1.0  0.98969  0.30016  0.66169  1.0000
  H   H144      1.0  0.04371  0.10802  0.73076  1.0000
  H   H145      1.0  0.14528  0.26109  0.85853  1.0000
  C   C132      1.0  0.21122  0.22742  0.73825  1.0000
  C   C133      1.0  0.07636  0.99179  0.51711  1.0000
  C   C134      1.0  0.15956  0.10094  0.74046  1.0000
  H   H146      1.0  0.14483  0.09632  0.71643  1.0000
  H   H147      1.0  0.15033  0.01395  0.91369  1.0000
  H   H148      1.0  0.19366  0.25472  0.49379  1.0000
  H   H149      1.0  0.23276  0.25295  0.74020  1.0000
  H   H150      1.0  0.00564  0.12511  0.70503  1.0000
  S   S35       1.0  0.16106  0.27476  0.97431  1.0000
  H   H151      1.0  0.22692  0.30050  0.96957  1.0000
  H   H152      1.0  0.23438  0.15627  0.70825  1.0000
  H   H153      1.0  0.98978  0.07927  0.52702  1.0000
  C   C135      1.0  0.00516  0.10398  0.65469  1.0000
  H   H154      1.0  0.23516  0.00643  0.77758  1.0000
  C   C136      1.0  0.05432  0.99911  0.50046  1.0000
  C   C137      1.0  0.11220  0.19848  0.49934  1.0000
  C   C138      1.0  0.22486  0.18662  0.97447  1.0000
  H   H155      1.0  0.23557  0.15840  0.77199  1.0000
  H   H156      1.0  0.14185  0.99000  0.82202  1.0000
  H   H157      1.0  0.14037  0.98967  0.77597  1.0000
  C   C139      1.0  0.21041  0.62308  0.06621  1.0000
  H   H158      1.0  0.03039  0.39096  0.44705  1.0000
  C   C140      1.0  0.18608  0.59505  0.29599  1.0000
  S   S36       1.0  0.18296  0.35746  0.30429  1.0000
  Fe  Fe18      1.0  0.15527  0.34199  0.42361  1.0000
  S   S37       1.0  0.13492  0.37109  0.45245  1.0000
  Fe  Fe19      1.0  0.09065  0.34636  0.41667  1.0000
  S   S38       1.0  0.07057  0.38195  0.40027  1.0000
  H   H159      1.0  0.02360  0.56382  0.20499  1.0000
  C   C141      1.0  0.19245  0.57194  0.18130  1.0000
  Fe  Fe20      1.0  0.05124  0.50601  0.97795  1.0000
  H   H160      1.0  0.06561  0.58225  0.16607  1.0000
  H   H161      1.0  0.10399  0.57900  0.23730  1.0000
  C   C142      1.0  0.22327  0.61714  0.09614  1.0000
  Fe  Fe21      1.0  0.04826  0.54169  0.04335  1.0000
  C   C143      1.0  0.18757  0.39421  0.32717  1.0000
  C   C144      1.0  0.16055  0.39667  0.33811  1.0000
  C   C145      1.0  0.16531  0.42758  0.35326  1.0000
  Fe  Fe22      1.0  0.20437  0.38150  0.05438  1.0000
  H   H162      1.0  0.13594  0.37512  0.33405  1.0000
  H   H163      1.0  0.14421  0.42904  0.36172  1.0000
  C   C146      1.0  0.00164  0.39972  0.32693  1.0000
  C   C147      1.0  0.02066  0.42359  0.35300  1.0000
  C   C148      1.0  0.04120  0.41754  0.37504  1.0000
  C   C149      1.0  0.04376  0.38771  0.37133  1.0000
  C   C150      1.0  0.02540  0.36408  0.34479  1.0000
  C   C151      1.0  0.00468  0.37009  0.32283  1.0000
  H   H164      1.0  0.01948  0.44680  0.35623  1.0000
  H   H165      1.0  0.05517  0.43634  0.39509  1.0000
  H   H166      1.0  0.02741  0.34132  0.34085  1.0000
  H   H167      1.0  0.06709  0.62936  0.27475  1.0000
  C   C152      1.0  0.09408  0.49288  0.45466  1.0000
  H   H168      1.0  0.03914  0.51163  0.16668  1.0000
  C   C153      1.0  0.21887  0.49746  0.46911  1.0000
  C   C154      1.0  0.17229  0.47894  0.04921  1.0000
  S   S39       1.0  0.99777  0.49657  0.34739  1.0000
  Fe  Fe23      1.0  0.99916  0.51397  0.44389  1.0000
  S   S40       1.0  0.02173  0.55648  0.40649  1.0000
  C   C155      1.0  0.09346  0.64124  0.41757  1.0000
  S   S41       1.0  0.21986  0.61698  0.26694  1.0000
  Fe  Fe24      1.0  0.04258  0.52536  0.38145  1.0000
  S   S42       1.0  0.09682  0.53994  0.36962  1.0000
  C   C156      1.0  0.98676  0.48983  0.17126  1.0000
  S   S43       1.0  0.02119  0.48411  0.42159  1.0000
  S   S44       1.0  0.05577  0.54217  0.10052  1.0000
  C   C157      1.0  0.15632  0.59450  0.28917  1.0000
  C   C158      1.0  0.12877  0.57733  0.31087  1.0000
  C   C159      1.0  0.13039  0.56045  0.34005  1.0000
  C   C160      1.0  0.15977  0.55998  0.34624  1.0000
  C   C161      1.0  0.18730  0.57706  0.32450  1.0000
  H   H169      1.0  0.10662  0.57815  0.30591  1.0000
  H   H170      1.0  0.16168  0.54690  0.36838  1.0000
  C   C162      1.0  0.19062  0.64925  0.36206  1.0000
  H   H171      1.0  0.15503  0.60860  0.26759  1.0000
  C   C163      1.0  0.17392  0.34931  0.12929  1.0000
  C   C164      1.0  0.00975  0.60798  0.33348  1.0000
  H   H172      1.0  0.13881  0.63130  0.35688  1.0000
  C   C165      1.0  0.04319  0.62895  0.34333  1.0000
  H   H173      1.0  0.06521  0.54893  0.25588  1.0000
  H   H174      1.0  0.05976  0.61905  0.34054  1.0000
  C   C166      1.0  0.00164  0.65526  0.35335  1.0000
  C   C167      1.0  0.01676  0.50725  0.15415  1.0000
  H   H175      1.0  0.21583  0.47963  0.27327  1.0000
  S   S45       1.0  0.22469  0.34953  0.03289  1.0000
  S   S46       1.0  0.22971  0.58126  0.40924  1.0000
  H   H176      1.0  0.03843  0.64040  0.13691  1.0000
  C   C168      1.0  0.22410  0.45403  0.34654  1.0000
  H   H177      1.0  0.06785  0.40960  0.98851  1.0000
  C   C169      1.0  0.01776  0.51836  0.12059  1.0000
  H   H178      1.0  0.10184  0.62270  0.27783  1.0000
  H   H179      1.0  0.20152  0.56744  0.00860  1.0000
  H   H180      1.0  0.22688  0.63828  0.04598  1.0000
  H   H181      1.0  0.19213  0.48002  0.46447  1.0000
  H   H182      1.0  0.99554  0.61279  0.42093  1.0000
  C   C170      1.0  0.21599  0.52914  0.02023  1.0000
  C   C171      1.0  0.20388  0.49667  0.03565  1.0000
  C   C172      1.0  0.19467  0.54305  0.01987  1.0000
  H   H183      1.0  0.09296  0.62327  0.12078  1.0000
  H   H184      1.0  0.14680  0.53558  0.03221  1.0000
  H   H185      1.0  0.09117  0.61673  0.42624  1.0000
  C   C173      1.0  0.00207  0.63199  0.44259  1.0000
  C   C174      1.0  0.15563  0.59064  0.08869  1.0000
  H   H186      1.0  0.17452  0.54570  0.17114  1.0000
  S   S47       1.0  0.00983  0.49502  0.01409  1.0000
  H   H187      1.0  0.22821  0.64156  0.17747  1.0000
  C   C175      1.0  0.16307  0.52506  0.03354  1.0000
  Fe  Fe25      1.0  0.19262  0.40280  0.98588  1.0000
  C   C176      1.0  0.17662  0.60983  0.06248  1.0000
  H   H188      1.0  0.15057  0.56980  0.13804  1.0000
  C   C177      1.0  0.98854  0.51122  0.10376  1.0000
  C   C178      1.0  0.01753  0.62656  0.15355  1.0000
  Fe  Fe26      1.0  0.18245  0.32989  0.99520  1.0000
  C   C179      1.0  0.98973  0.62247  0.33784  1.0000
  C   C180      1.0  0.09676  0.63238  0.14744  1.0000
  C   C181      1.0  0.23348  0.45744  0.44566  1.0000
  C   C182      1.0  0.16756  0.34800  0.16454  1.0000
  N   N7        1.0  0.12640  0.49476  0.45599  1.0000
  H   H189      1.0  0.00531  0.57693  0.13235  1.0000
  N   N8        1.0  0.21715  0.59257  0.15511  1.0000
  N   N9        1.0  0.06775  0.59463  0.23587  1.0000
  H   H190      1.0  0.16658  0.61444  0.03930  1.0000
  N   N10       1.0  0.11079  0.46348  0.29038  1.0000
  C   C183      1.0  0.07559  0.43907  0.28193  1.0000
  C   C184      1.0  0.11405  0.46844  0.32830  1.0000
  C   C185      1.0  0.11939  0.49676  0.27469  1.0000
  C   C186      1.0  0.13322  0.45145  0.27813  1.0000
  C   C187      1.0  0.16787  0.47344  0.28096  1.0000
  C   C188      1.0  0.12172  0.41765  0.26435  1.0000
  C   C189      1.0  0.18955  0.46266  0.26981  1.0000
  C   C190      1.0  0.14368  0.40707  0.25349  1.0000
  C   C191      1.0  0.17749  0.42954  0.25606  1.0000
  H   H191      1.0  0.06653  0.41436  0.29535  1.0000
  H   H192      1.0  0.05946  0.44930  0.29051  1.0000
  H   H193      1.0  0.07138  0.43362  0.25375  1.0000
  H   H194      1.0  0.13977  0.48703  0.33669  1.0000
  H   H195      1.0  0.10670  0.44374  0.34112  1.0000
  H   H196      1.0  0.09819  0.47836  0.33854  1.0000
  H   H197      1.0  0.11896  0.49460  0.24611  1.0000
  H   H198      1.0  0.10205  0.50566  0.28251  1.0000
  H   H199      1.0  0.14416  0.51782  0.28296  1.0000
  H   H200      1.0  0.17855  0.49875  0.29311  1.0000
  H   H201      1.0  0.09592  0.39857  0.26235  1.0000
  H   H202      1.0  0.17904  0.58503  0.19065  1.0000
  H   H203      1.0  0.13453  0.38090  0.24395  1.0000
  H   H204      1.0  0.02382  0.59772  0.23080  1.0000
  C   C192      1.0  0.19694  0.45671  0.35648  1.0000
  C   C193      1.0  0.12962  0.47859  0.42364  1.0000
  H   H205      1.0  0.10471  0.64543  0.39165  1.0000
  C   C194      1.0  0.03175  0.57820  0.23000  1.0000
  S   S48       1.0  0.20044  0.38900  0.11086  1.0000
  C   C195      1.0  0.23536  0.57450  0.14615  1.0000
  H   H206      1.0  0.17826  0.37151  0.18003  1.0000
  C   C196      1.0  0.20267  0.59789  0.12348  1.0000
  S   S49       1.0  0.08996  0.54983  0.00965  1.0000
  H   H207      1.0  0.15298  0.47808  0.42328  1.0000
  H   H208      1.0  0.10888  0.45189  0.41960  1.0000
  H   H209      1.0  0.12946  0.49282  0.40058  1.0000
  C   C197      1.0  0.15184  0.49301  0.04797  1.0000
  H   H210      1.0  0.07363  0.46570  0.45334  1.0000
  H   H211      1.0  0.01784  0.55924  0.25013  1.0000
  C   C198      1.0  0.99892  0.59080  0.15099  1.0000
  S   S50       1.0  0.21231  0.37334  0.41852  1.0000
  C   C199      1.0  0.08120  0.60899  0.17365  1.0000
  H   H212      1.0  0.12928  0.58035  0.08572  1.0000
  H   H213      1.0  0.12699  0.47872  0.05756  1.0000
  C   C200      1.0  0.16829  0.58469  0.11881  1.0000
  Fe  Fe27      1.0  0.00218  0.53276  0.98395  1.0000
  H   H214      1.0  0.21863  0.36502  0.22654  1.0000
  H   H215      1.0  0.21376  0.33630  0.35530  1.0000
  C   C201      1.0  0.16335  0.65280  0.35350  1.0000
  C   C202      1.0  0.07691  0.56751  0.23473  1.0000
  C   C203      1.0  0.08521  0.61992  0.20878  1.0000
  C   C204      1.0  0.07513  0.61004  0.27123  1.0000
  H   H216      1.0  0.06196  0.59024  0.29096  1.0000
  C   C205      1.0  0.15282  0.53151  0.45630  1.0000
  H   H217      1.0  0.09175  0.50593  0.43167  1.0000
  S   S51       1.0  0.20078  0.49601  0.37166  1.0000
  S   S52       1.0  0.03830  0.57917  0.01624  1.0000
  H   H218      1.0  0.06895  0.55209  0.21036  1.0000
  H   H219      1.0  0.01323  0.62466  0.46366  1.0000
  H   H220      1.0  0.19428  0.42071  0.24864  1.0000
  H   H221      1.0  0.98914  0.51979  0.07781  1.0000
  C   C206      1.0  0.21938  0.42274  0.33234  1.0000
  H   H222      1.0  0.17749  0.53412  0.45983  1.0000
  H   H223      1.0  0.12473  0.43155  0.46299  1.0000
  S   S53       1.0  0.99481  0.56514  0.31472  1.0000
  H   H224      1.0  0.20956  0.57656  0.33005  1.0000
  Fe  Fe28      1.0  0.07708  0.58379  0.97957  1.0000
  S   S54       1.0  0.15968  0.35889  0.01952  1.0000
  H   H225      1.0  0.20431  0.56855  0.20469  1.0000
  H   H226      1.0  0.16332  0.45364  0.05980  1.0000
  H   H227      1.0  0.15308  0.54417  0.43180  1.0000
  H   H228      1.0  0.06817  0.63690  0.41394  1.0000
  H   H229      1.0  0.18701  0.62556  0.37246  1.0000
  C   C207      1.0  0.09141  0.42958  0.97954  1.0000
  H   H230      1.0  0.13761  0.64592  0.46469  1.0000
  H   H231      1.0  0.20759  0.43888  0.43750  1.0000
  C   C208      1.0  0.00946  0.64473  0.17741  1.0000
  H   H232      1.0  0.00402  0.64788  0.26447  1.0000
  H   H233      1.0  0.21841  0.48419  0.03643  1.0000
  H   H234      1.0  0.99087  0.35147  0.30262  1.0000
  H   H235      1.0  0.11580  0.40037  0.98887  1.0000
  C   C209      1.0  0.11852  0.42418  0.97957  1.0000
  H   H236      1.0  0.21896  0.54927  0.13293  1.0000
  H   H237      1.0  0.22887  0.51263  0.44546  1.0000
  C   C210      1.0  0.03216  0.39232  0.47492  1.0000
  H   H238      1.0  0.23567  0.36912  0.16565  1.0000
  C   C211      1.0  0.10609  0.65570  0.21607  1.0000
  H   H239      1.0  0.01987  0.46189  0.88618  1.0000
  C   C212      1.0  0.05074  0.52243  0.84307  1.0000
  S   S55       1.0  0.12077  0.33728  0.76297  1.0000
  S   S56       1.0  0.19503  0.34658  0.76758  1.0000
  C   C213      1.0  0.02064  0.36305  0.66882  1.0000
  H   H240      1.0  0.02157  0.32382  0.74283  1.0000
  C   C214      1.0  0.22803  0.58467  0.69422  1.0000
  C   C215      1.0  0.02326  0.44914  0.86396  1.0000
  Fe  Fe29      1.0  0.16840  0.37077  0.79287  1.0000
  S   S57       1.0  0.19800  0.42969  0.79141  1.0000
  S   S58       1.0  0.99528  0.52505  0.49968  1.0000
  S   S59       1.0  0.04071  0.54017  0.94478  1.0000
  Fe  Fe30      1.0  0.06791  0.45889  0.67093  1.0000
  H   H241      1.0  0.15937  0.48703  0.80387  1.0000
  H   H242      1.0  0.17860  0.56129  0.91013  1.0000
  C   C216      1.0  0.22585  0.58601  0.79622  1.0000
  N   N11       1.0  0.07073  0.50535  0.84484  1.0000
  C   C217      1.0  0.08772  0.51341  0.87891  1.0000
  C   C218      1.0  0.22237  0.55426  0.70945  1.0000
  C   C219      1.0  0.00457  0.59570  0.76802  1.0000
  C   C220      1.0  0.07813  0.40858  0.89089  1.0000
  H   H243      1.0  0.13275  0.48957  0.57538  1.0000
  N   N12       1.0  0.09284  0.39172  0.87037  1.0000
  H   H244      1.0  0.18939  0.43597  0.86559  1.0000
  H   H245      1.0  0.04242  0.38220  0.71901  1.0000
  C   C221      1.0  0.11701  0.34027  0.61335  1.0000
  H   H246      1.0  0.07807  0.34015  0.85292  1.0000
  H   H247      1.0  0.03017  0.65344  0.67182  1.0000
  C   C222      1.0  0.01896  0.57065  0.70812  1.0000
  C   C223      1.0  0.13002  0.49292  0.52049  1.0000
  C   C224      1.0  0.09164  0.39075  0.80465  1.0000
  C   C225      1.0  0.17005  0.60325  0.90106  1.0000
  H   H248      1.0  0.11431  0.38147  0.91476  1.0000
  C   C226      1.0  0.12771  0.44423  0.83565  1.0000
  C   C227      1.0  0.06804  0.35449  0.86715  1.0000
  H   H249      1.0  0.23315  0.41265  0.89368  1.0000
  H   H250      1.0  0.19200  0.59543  0.74724  1.0000
  H   H251      1.0  0.03251  0.51455  0.86405  1.0000
  C   C228      1.0  0.00423  0.39587  0.83126  1.0000
  Fe  Fe31      1.0  0.07545  0.52447  0.70684  1.0000
  S   S60       1.0  0.05352  0.49791  0.65610  1.0000
  H   H252      1.0  0.17811  0.40055  0.58865  1.0000
  Fe  Fe32      1.0  0.13571  0.51581  0.69911  1.0000
  S   S61       1.0  0.11812  0.48837  0.64796  1.0000
  S   S62       1.0  0.18277  0.52365  0.72431  1.0000
  Fe  Fe33      1.0  0.10520  0.52893  0.63708  1.0000
  S   S63       1.0  0.11995  0.55357  0.58543  1.0000
  S   S64       1.0  0.12635  0.55863  0.68674  1.0000
  S   S65       1.0  0.08629  0.48318  0.72358  1.0000
  C   C229      1.0  0.03143  0.53776  0.52321  1.0000
  C   C230      1.0  0.03083  0.53920  0.55918  1.0000
  C   C231      1.0  0.05870  0.54596  0.57857  1.0000
  C   C232      1.0  0.08715  0.55141  0.56196  1.0000
  C   C233      1.0  0.08849  0.55247  0.52599  1.0000
  C   C234      1.0  0.06041  0.54505  0.50651  1.0000
  H   H253      1.0  0.00850  0.53406  0.57207  1.0000
  H   H254      1.0  0.05799  0.54638  0.60635  1.0000
  H   H255      1.0  0.11092  0.55794  0.51323  1.0000
  C   C235      1.0  0.18971  0.41592  0.56631  1.0000
  H   H256      1.0  0.20942  0.48704  0.90460  1.0000
  S   S66       1.0  0.10533  0.33610  0.54316  1.0000
  S   S67       1.0  0.15323  0.33520  0.83743  1.0000
  H   H257      1.0  0.12702  0.50839  0.94380  1.0000
  C   C236      1.0  0.04899  0.37812  0.52788  1.0000
  H   H258      1.0  0.23146  0.51723  0.95785  1.0000
  H   H259      1.0  0.19931  0.56130  0.85334  1.0000
  H   H260      1.0  0.20753  0.58827  0.68805  1.0000
  H   H261      1.0  0.04515  0.34995  0.85380  1.0000
  H   H262      1.0  0.16386  0.56679  0.77780  1.0000
  C   C237      1.0  0.18263  0.59420  0.77375  1.0000
  H   H263      1.0  0.13798  0.45430  0.74918  1.0000
  C   C238      1.0  0.21826  0.47129  0.53932  1.0000
  S   S68       1.0  0.12097  0.63233  0.95911  1.0000
  S   S69       1.0  0.05368  0.54548  0.74604  1.0000
  C   C239      1.0  0.10358  0.40735  0.77350  1.0000
  H   H264      1.0  0.03101  0.57556  0.79486  1.0000
  C   C240      1.0  0.23386  0.49871  0.80915  1.0000
  C   C241      1.0  0.12856  0.43018  0.51718  1.0000
  C   C242      1.0  0.00156  0.33320  0.64831  1.0000
  C   C243      1.0  0.19583  0.60519  0.83453  1.0000
  C   C244      1.0  0.21924  0.45581  0.50743  1.0000
  C   C245      1.0  0.13040  0.44583  0.54904  1.0000
  C   C246      1.0  0.02793  0.35948  0.70294  1.0000
  H   H265      1.0  0.20319  0.46393  0.59235  1.0000
  H   H266      1.0  0.03167  0.39904  0.78600  1.0000
  C   C247      1.0  0.02944  0.41305  0.80793  1.0000
  Fe  Fe34      1.0  0.10876  0.32493  0.48573  1.0000
  C   C248      1.0  0.99958  0.64196  0.85294  1.0000
  H   H267      1.0  0.18559  0.64709  0.82733  1.0000
  H   H268      1.0  0.08529  0.51723  0.79203  1.0000
  H   H269      1.0  0.10751  0.35777  0.61377  1.0000
  N   N13       1.0  0.00967  0.43202  0.55034  1.0000
  C   C249      1.0  0.12772  0.44198  0.77335  1.0000
  C   C250      1.0  0.18459  0.62806  0.84461  1.0000
  H   H270      1.0  0.03898  0.39654  0.57441  1.0000
  S   S70       1.0  0.21174  0.37203  0.95783  1.0000
  C   C251      1.0  0.17213  0.62716  0.87748  1.0000
  H   H271      1.0  0.04746  0.44935  0.59027  1.0000
  H   H272      1.0  0.12467  0.34348  0.66868  1.0000
  C   C252      1.0  0.03654  0.39580  0.54663  1.0000
  H   H273      1.0  0.05801  0.47695  0.55408  1.0000
  C   C253      1.0  0.01943  0.40985  0.49335  1.0000
  H   H274      1.0  0.06630  0.55097  0.84525  1.0000
  H   H275      1.0  0.02954  0.47567  0.58554  1.0000
  N   N14       1.0  0.20954  0.60690  0.79983  1.0000
  C   C254      1.0  0.12153  0.39489  0.88977  1.0000
  H   H276      1.0  0.14005  0.42206  0.89638  1.0000
  H   H277      1.0  0.20490  0.40533  0.48351  1.0000
  H   H278      1.0  0.13422  0.38384  0.87463  1.0000
  H   H279      1.0  0.07356  0.36366  0.80272  1.0000
  H   H280      1.0  0.07031  0.50583  0.90059  1.0000
  H   H281      1.0  0.09497  0.39301  0.74924  1.0000
  H   H282      1.0  0.13851  0.45939  0.85901  1.0000
  H   H283      1.0  0.13015  0.51692  0.52345  1.0000
  C   C255      1.0  0.13121  0.47719  0.55065  1.0000
  C   C256      1.0  0.04887  0.46763  0.84032  1.0000
  H   H284      1.0  0.06843  0.39559  0.91574  1.0000
  H   H285      1.0  0.11244  0.54909  0.82252  1.0000
  C   C257      1.0  0.10372  0.40869  0.83682  1.0000
  C   C258      1.0  0.13960  0.46046  0.80432  1.0000
  C   C259      1.0  0.15136  0.47935  0.95341  1.0000
  H   H286      1.0  0.09621  0.43585  0.89759  1.0000
  C   C260      1.0  0.03021  0.56622  0.74024  1.0000
  C   C261      1.0  0.11909  0.32568  0.58167  1.0000
  H   H287      1.0  0.11287  0.50959  0.81835  1.0000
  H   H288      1.0  0.99154  0.59077  0.68153  1.0000
  S   S71       1.0  0.03374  0.40387  0.65061  1.0000
  H   H289      1.0  0.13099  0.43347  0.57252  1.0000
  H   H290      1.0  0.16081  0.60307  0.92666  1.0000
  C   C262      1.0  0.12664  0.33210  0.64466  1.0000
  C   C263      1.0  0.02167  0.41254  0.52991  1.0000
  H   H291      1.0  0.05738  0.40811  0.87671  1.0000
  H   H292      1.0  0.06064  0.36591  0.54121  1.0000
  C   C264      1.0  0.19044  0.39994  0.53551  1.0000
  C   C265      1.0  0.21640  0.49053  0.87798  1.0000
  C   C266      1.0  0.12836  0.47786  0.48752  1.0000
  C   C267      1.0  0.20475  0.46140  0.85580  1.0000
  C   C268      1.0  0.02266  0.57878  0.76996  1.0000
  H   H293      1.0  0.02439  0.56085  0.68492  1.0000
  H   H294      1.0  0.17921  0.37214  0.53408  1.0000
  H   H295      1.0  0.04669  0.60761  0.53277  1.0000
  C   C269      1.0  0.19216  0.58026  0.85882  1.0000
  C   C270      1.0  0.00030  0.58758  0.70620  1.0000
  S   S72       1.0  0.18150  0.44076  0.95933  1.0000
  C   C271      1.0  0.20376  0.45155  0.56829  1.0000
  C   C272      1.0  0.99538  0.44856  0.52902  1.0000
  H   H296      1.0  0.10511  0.54149  0.88280  1.0000
  H   H297      1.0  0.08033  0.61424  0.48271  1.0000
  H   H298      1.0  0.22053  0.37433  0.86752  1.0000
  H   H299      1.0  0.99325  0.39721  0.59297  1.0000
  H   H300      1.0  0.12768  0.40560  0.51620  1.0000
  C   C273      1.0  0.01206  0.64181  0.88546  1.0000
  C   C274      1.0  0.09646  0.52079  0.81825  1.0000
  C   C275      1.0  0.17987  0.57972  0.89168  1.0000
  C   C276      1.0  0.20511  0.41944  0.50645  1.0000
  C   C277      1.0  0.01602  0.32638  0.71636  1.0000
  C   C278      1.0  0.05164  0.44832  0.81240  1.0000
  H   H301      1.0  0.06059  0.34232  0.89273  1.0000
  H   H302      1.0  0.03687  0.51618  0.81807  1.0000
  H   H303      1.0  0.05567  0.65273  0.72743  1.0000
  H   H304      1.0  0.10174  0.49969  0.88192  1.0000
  H   H305      1.0  0.07056  0.45985  0.79342  1.0000
  C   C279      1.0  0.03737  0.45961  0.57087  1.0000
  C   C280      1.0  0.21291  0.46533  0.82103  1.0000
  C   C281      1.0  0.12709  0.44557  0.48675  1.0000
  C   C282      1.0  0.05889  0.63204  0.51989  1.0000
  H   H306      1.0  0.16436  0.64537  0.88495  1.0000
  S   S73       1.0  0.05804  0.46192  0.95800  1.0000
  C   C283      1.0  0.14846  0.44872  0.96571  1.0000
  H   H307      1.0  0.99580  0.33561  0.62189  1.0000
  C   C284      1.0  0.12458  0.48515  0.95430  1.0000
  H   H308      1.0  0.01378  0.46732  0.51110  1.0000
  C   C285      1.0  0.04724  0.37683  0.49207  1.0000
  H   H309      1.0  0.17426  0.49848  0.94245  1.0000
  H   H310      1.0  0.20802  0.55786  0.79678  1.0000
  H   H311      1.0  0.17000  0.60951  0.77419  1.0000
  C   C286      1.0  0.09416  0.45990  0.96656  1.0000
  H   H312      1.0  0.22206  0.51627  0.48993  1.0000
  C   C287      1.0  0.07806  0.63604  0.49101  1.0000
  C   C288      1.0  0.00131  0.41384  0.85938  1.0000
  H   H313      1.0  0.99940  0.60533  0.79142  1.0000
  H   H314      1.0  0.99908  0.61943  0.90139  1.0000
  H   H315      1.0  0.00814  0.42119  0.47820  1.0000
  H   H316      1.0  0.06103  0.54455  0.47867  1.0000
  H   H317      1.0  0.22886  0.41330  0.84793  1.0000
  C   C289      1.0  0.99328  0.60044  0.73636  1.0000
  H   H318      1.0  0.22876  0.49886  0.54209  1.0000
  N   N15       1.0  0.23513  0.47742  0.47734  1.0000
  H   H319      1.0  0.09008  0.50528  0.47762  1.0000
  H   H320      1.0  0.14988  0.54714  0.47692  1.0000
  H   H321      1.0  0.05786  0.36402  0.47761  1.0000
  C   C290      1.0  0.23466  0.64287  0.79194  1.0000
  H   H322      1.0  0.06587  0.65427  0.65399  1.0000
  H   H323      1.0  0.98697  0.36856  0.82758  1.0000
  H   H324      1.0  0.98694  0.46339  0.54509  1.0000
  H   H325      1.0  0.20037  0.92811  0.26086  1.0000
  C   C291      1.0  0.10623  0.67877  0.99033  1.0000
  Fe  Fe35      1.0  0.12439  0.72677  0.30367  1.0000
  S   S74       1.0  0.11155  0.75976  0.33654  1.0000
  S   S75       1.0  0.13225  0.68405  0.32436  1.0000
  Fe  Fe36      1.0  0.11276  0.75559  0.23827  1.0000
  S   S76       1.0  0.09902  0.79055  0.26571  1.0000
  S   S77       1.0  0.11290  0.75286  0.18067  1.0000
  Fe  Fe37      1.0  0.14225  0.80297  0.30021  1.0000
  S   S78       1.0  0.18599  0.85788  0.30765  1.0000
  Fe  Fe38      1.0  0.06833  0.74527  0.29965  1.0000
  S   S79       1.0  0.01229  0.72627  0.29838  1.0000
  S   S80       1.0  0.15781  0.77013  0.27006  1.0000
  S   S81       1.0  0.07997  0.70965  0.26904  1.0000
  S   S82       1.0  0.22007  0.89414  0.11918  1.0000
  Fe  Fe39      1.0  0.15062  0.83964  0.41643  1.0000
  S   S83       1.0  0.12749  0.86551  0.44662  1.0000
  Fe  Fe40      1.0  0.08290  0.77354  0.40469  1.0000
  S   S84       1.0  0.05656  0.79631  0.43434  1.0000
  S   S85       1.0  0.04758  0.71664  0.38585  1.0000
  Fe  Fe41      1.0  0.08699  0.84550  0.40601  1.0000
  S   S86       1.0  0.07194  0.88474  0.38694  1.0000
  H   H326      1.0  0.13668  0.70618  0.19569  1.0000
  S   S87       1.0  0.11170  0.82282  0.37415  1.0000
  S   S88       1.0  0.12293  0.78986  0.44557  1.0000
  H   H327      1.0  0.03059  0.95862  0.21119  1.0000
  C   C292      1.0  0.20196  0.95052  0.43026  1.0000
  H   H328      1.0  0.09064  0.88581  0.29830  1.0000
  C   C293      1.0  0.09371  0.66740  0.47305  1.0000
  C   C294      1.0  0.13917  0.91015  0.23824  1.0000
  C   C295      1.0  0.14363  0.79179  0.16392  1.0000
  C   C296      1.0  0.14654  0.79553  0.12822  1.0000
  C   C297      1.0  0.17042  0.82670  0.11442  1.0000
  C   C298      1.0  0.19158  0.85427  0.13625  1.0000
  C   C299      1.0  0.18935  0.85026  0.17196  1.0000
  C   C300      1.0  0.16516  0.81919  0.18583  1.0000
  H   H329      1.0  0.13007  0.77441  0.11115  1.0000
  H   H330      1.0  0.17216  0.82932  0.08683  1.0000
  H   H331      1.0  0.20618  0.87121  0.18884  1.0000
  H   H332      1.0  0.16315  0.81648  0.21344  1.0000
  H   H333      1.0  0.00326  0.90421  0.42257  1.0000
  S   S89       1.0  0.02463  0.97883  0.01540  1.0000
  C   C301      1.0  0.22138  0.92507  0.33129  1.0000
  C   C302      1.0  0.18972  0.89687  0.32425  1.0000
  C   C303      1.0  0.16268  0.90173  0.32673  1.0000
  C   C304      1.0  0.16741  0.93465  0.33492  1.0000
  C   C305      1.0  0.17548  0.95606  0.42659  1.0000
  H   H334      1.0  0.13823  0.88034  0.32135  1.0000
  H   H335      1.0  0.14633  0.93824  0.33597  1.0000
  C   C306      1.0  0.16758  0.68317  0.33912  1.0000
  H   H336      1.0  0.03633  0.89838  0.43514  1.0000
  C   C307      1.0  0.99921  0.81674  0.27494  1.0000
  Fe  Fe42      1.0  0.22006  0.88892  0.06138  1.0000
  C   C308      1.0  0.19946  0.71101  0.33581  1.0000
  Fe  Fe43      1.0  0.20733  0.91187  0.99299  1.0000
  H   H337      1.0  0.01633  0.69537  0.22712  1.0000
  H   H338      1.0  0.02532  0.67239  0.17831  1.0000
  C   C309      1.0  0.03464  0.67595  0.36368  1.0000
  H   H339      1.0  0.11119  0.97218  0.01225  1.0000
  H   H340      1.0  0.12809  0.68566  0.13508  1.0000
  H   H341      1.0  0.19199  0.97182  0.27261  1.0000
  C   C310      1.0  0.99977  0.90839  0.32553  1.0000
  C   C311      1.0  0.02899  0.93452  0.34099  1.0000
  C   C312      1.0  0.05023  0.92670  0.35973  1.0000
  C   C313      1.0  0.04275  0.89250  0.36415  1.0000
  C   C314      1.0  0.01277  0.86620  0.35031  1.0000
  S   S90       1.0  0.03047  0.98547  0.40954  1.0000
  H   H342      1.0  0.03617  0.96109  0.33745  1.0000
  H   H343      1.0  0.07297  0.94756  0.37037  1.0000
  H   H344      1.0  0.00590  0.83967  0.35398  1.0000
  C   C315      1.0  0.16106  0.90830  0.18318  1.0000
  H   H345      1.0  0.21525  0.83106  0.35997  1.0000
  C   C316      1.0  0.14668  0.95928  0.99138  1.0000
  C   C317      1.0  0.19337  0.91736  0.23422  1.0000
  H   H346      1.0  0.20327  0.93146  0.41386  1.0000
  H   H347      1.0  0.20167  0.67888  0.25910  1.0000
  C   C318      1.0  0.11225  0.71220  0.99795  1.0000
  H   H348      1.0  0.13246  0.96846  0.38956  1.0000
  H   H349      1.0  0.18315  0.91768  0.16668  1.0000
  C   C319      1.0  0.99210  0.87418  0.33047  1.0000
  C   C320      1.0  0.22277  0.70471  0.25840  1.0000
  C   C321      1.0  0.22614  0.95793  0.33981  1.0000
  H   H350      1.0  0.11092  0.93089  0.43967  1.0000
  S   S91       1.0  0.23243  0.85116  0.03739  1.0000
  C   C322      1.0  0.12140  0.67889  0.18963  1.0000
  H   H351      1.0  0.20478  0.74077  0.04194  1.0000
  N   N16       1.0  0.16965  0.92553  0.21779  1.0000
  H   H352      1.0  0.03461  0.93488  0.45146  1.0000
  C   C323      1.0  0.12704  0.97518  0.99091  1.0000
  H   H353      1.0  0.09198  0.95562  0.44994  1.0000
  C   C324      1.0  0.01957  0.90709  0.44480  1.0000
  H   H354      1.0  0.10165  0.70570  0.41630  1.0000
  H   H355      1.0  0.14108  0.72620  0.43844  1.0000
  H   H356      1.0  0.18298  0.88905  0.23636  1.0000
  H   H357      1.0  0.15841  0.67241  0.42896  1.0000
  S   S92       1.0  0.17435  0.87156  0.02940  1.0000
  H   H358      1.0  0.99305  0.95422  0.16731  1.0000
  C   C325      1.0  0.21757  0.70625  0.01661  1.0000
  H   H359      1.0  0.12059  0.91561  0.22683  1.0000
  H   H360      1.0  0.15041  0.87993  0.18484  1.0000
  C   C326      1.0  0.04811  0.95548  0.22778  1.0000
  Fe  Fe44      1.0  0.18893  0.83638  0.00248  1.0000
  C   C327      1.0  0.19917  0.96300  0.34113  1.0000
  S   S93       1.0  0.14504  0.78231  0.99357  1.0000
  H   H361      1.0  0.19965  0.68399  0.03030  1.0000
  S   S94       1.0  0.20781  0.87250  0.41564  1.0000
  C   C328      1.0  0.98985  0.68363  0.21965  1.0000
  H   H362      1.0  0.09387  0.71552  0.01138  1.0000
  C   C329      1.0  0.08881  0.97850  0.27300  1.0000
  H   H363      1.0  0.15886  0.69186  0.47017  1.0000
  H   H364      1.0  0.14394  0.92021  0.26524  1.0000
  H   H365      1.0  0.11081  0.66658  0.24197  1.0000
  C   C330      1.0  0.22650  0.96918  0.45485  1.0000
  H   H366      1.0  0.18073  0.96842  0.16109  1.0000
  H   H367      1.0  0.06642  0.82731  0.32087  1.0000
  H   H368      1.0  0.07128  0.95682  0.28893  1.0000
  H   H369      1.0  0.02137  0.65700  0.43268  1.0000
  C   C331      1.0  0.22241  0.67576  0.35556  1.0000
  H   H370      1.0  0.01924  0.90557  0.98239  1.0000
  H   H371      1.0  0.14588  0.94419  0.01309  1.0000
  H   H372      1.0  0.12786  0.88165  0.23972  1.0000
  C   C332      1.0  0.21886  0.73236  0.24962  1.0000
  H   H373      1.0  0.00433  0.73886  0.37211  1.0000
  H   H374      1.0  0.14224  0.91201  0.16959  1.0000
  C   C333      1.0  0.22676  0.70726  0.34402  1.0000
  C   C334      1.0  0.18773  0.98134  0.18602  1.0000
  C   C335      1.0  0.18394  0.96337  0.21697  1.0000
  C   C336      1.0  0.11456  0.95411  0.45421  1.0000
  H   H375      1.0  0.13575  0.70377  0.39860  1.0000
  N   N17       1.0  0.11308  0.67066  0.44191  1.0000
  C   C337      1.0  0.12324  0.70296  0.42318  1.0000
  H   H376      1.0  0.98788  0.69068  0.19282  1.0000
  H   H377      1.0  0.05778  0.90038  0.25946  1.0000
  H   H378      1.0  0.20312  0.73480  0.32540  1.0000
  H   H379      1.0  0.19452  0.72783  0.24309  1.0000
  H   H380      1.0  0.06131  0.94601  0.21127  1.0000
  H   H381      1.0  0.01726  0.70272  0.45182  1.0000
  H   H382      1.0  0.08122  0.67857  0.36379  1.0000
  H   H383      1.0  0.00968  0.78455  0.30775  1.0000
  C   C338      1.0  0.01429  0.85029  0.26115  1.0000
  C   C339      1.0  0.01932  0.80921  0.29613  1.0000
  C   C340      1.0  0.04712  0.87470  0.26913  1.0000
  C   C341      1.0  0.05205  0.83367  0.30378  1.0000
  C   C342      1.0  0.06582  0.86651  0.29070  1.0000
  H   H384      1.0  0.99654  0.84059  0.45329  1.0000
  H   H385      1.0  0.15673  0.94018  0.40765  1.0000
  H   H386      1.0  0.21633  0.92776  0.21924  1.0000
  H   H387      1.0  0.03197  0.93481  0.24567  1.0000
  Fe  Fe45      1.0  0.09838  0.81526  0.47319  1.0000
  H   H388      1.0  0.10562  0.97087  0.26081  1.0000
  H   H389      1.0  0.03579  0.98253  0.28431  1.0000
  N   N18       1.0  0.14418  0.98576  0.44306  1.0000
  C   C343      1.0  0.14149  0.74134  0.98786  1.0000
  C   C344      1.0  0.22055  0.73826  0.02320  1.0000
  C   C345      1.0  0.11660  0.66734  0.15541  1.0000
  H   H390      1.0  0.00089  0.85871  0.24529  1.0000
  C   C346      1.0  0.14331  0.67019  0.45191  1.0000
  C   C347      1.0  0.05556  0.66283  0.35732  1.0000
  C   C348      1.0  0.19421  0.98346  0.24802  1.0000
  C   C349      1.0  0.17314  0.98128  0.44692  1.0000
  N   N19       1.0  0.07156  0.98774  0.24684  1.0000
  H   H391      1.0  0.04927  0.87035  0.47452  1.0000
  N   N20       1.0  0.00064  0.88743  0.47478  1.0000
  H   H392      1.0  0.23552  0.67812  0.98735  1.0000
  H   H393      1.0  0.08340  0.65667  0.99795  1.0000
  H   H394      1.0  0.10136  0.71986  0.47518  1.0000
  H   H395      1.0  0.23147  0.71475  0.89053  1.0000
  C   C350      1.0  0.21923  0.96667  0.81523  1.0000
  H   H396      1.0  0.02498  0.82693  0.62054  1.0000
  C   C351      1.0  0.18154  0.93733  0.63315  1.0000
  C   C352      1.0  0.02014  0.83022  0.64706  1.0000
  C   C353      1.0  0.15927  0.91064  0.68749  1.0000
  C   C354      1.0  0.02795  0.75003  0.72485  1.0000
  S   S95       1.0  0.06194  0.98574  0.65112  1.0000
  N   N21       1.0  0.08968  0.72982  0.89102  1.0000
  C   C355      1.0  0.08327  0.74266  0.92389  1.0000
  H   H397      1.0  0.12810  0.78078  0.87840  1.0000
  C   C356      1.0  0.99942  0.80108  0.66622  1.0000
  C   C357      1.0  0.23110  0.72917  0.86873  1.0000
  Fe  Fe46      1.0  0.16237  0.80449  0.80375  1.0000
  S   S96       1.0  0.14338  0.83713  0.82910  1.0000
  S   S97       1.0  0.18027  0.77721  0.84066  1.0000
  Fe  Fe47      1.0  0.14303  0.81586  0.73073  1.0000
  S   S98       1.0  0.12263  0.84779  0.75187  1.0000
  S   S99       1.0  0.15049  0.80832  0.67335  1.0000
  Fe  Fe48      1.0  0.16797  0.87396  0.78614  1.0000
  S   S100      1.0  0.19720  0.93296  0.78390  1.0000
  Fe  Fe49      1.0  0.09936  0.80842  0.79329  1.0000
  S   S101      1.0  0.04510  0.79172  0.80351  1.0000
  S   S102      1.0  0.18967  0.84349  0.76310  1.0000
  S   S103      1.0  0.11701  0.77426  0.76980  1.0000
  S   S104      1.0  0.08469  0.81400  0.53016  1.0000
  Fe  Fe50      1.0  0.07878  0.96063  0.68936  1.0000
  H   H398      1.0  0.06298  0.74838  0.92084  1.0000
  C   C358      1.0  0.13209  0.81074  0.63393  1.0000
  C   C359      1.0  0.10579  0.81698  0.63292  1.0000
  C   C360      1.0  0.09163  0.81774  0.60100  1.0000
  C   C361      1.0  0.10386  0.81296  0.56959  1.0000
  C   C362      1.0  0.13061  0.80744  0.57058  1.0000
  C   C363      1.0  0.14443  0.80612  0.60252  1.0000
  H   H399      1.0  0.09620  0.82107  0.65668  1.0000
  H   H400      1.0  0.07101  0.82209  0.60068  1.0000
  H   H401      1.0  0.14047  0.80386  0.54675  1.0000
  H   H402      1.0  0.16491  0.80151  0.60285  1.0000
  H   H403      1.0  0.99036  0.92750  0.49023  1.0000
  C   C364      1.0  0.16661  0.90789  0.61073  1.0000
  H   H404      1.0  0.07657  0.72399  0.94490  1.0000
  H   H405      1.0  0.00423  0.93936  0.90150  1.0000
  C   C365      1.0  0.22920  0.76646  0.81235  1.0000
  C   C366      1.0  0.21214  0.91987  0.67018  1.0000
  C   C367      1.0  0.01309  0.75192  0.86047  1.0000
  C   C368      1.0  0.01040  0.76605  0.82972  1.0000
  H   H406      1.0  0.09332  0.66074  0.70977  1.0000
  H   H407      1.0  0.03669  0.75647  0.86913  1.0000
  C   C369      1.0  0.05881  0.70003  0.87741  1.0000
  H   H408      1.0  0.00768  0.73185  0.55452  1.0000
  S   S105      1.0  0.19486  0.94669  0.96225  1.0000
  C   C370      1.0  0.10974  0.71820  0.67896  1.0000
  H   H409      1.0  0.08379  0.97511  0.50489  1.0000
  H   H410      1.0  0.03972  0.86210  0.92100  1.0000
  S   S106      1.0  0.04622  0.91005  0.71607  1.0000
  H   H411      1.0  0.19289  0.73745  0.88932  1.0000
  C   C371      1.0  0.00411  0.87971  0.91828  1.0000
  H   H412      1.0  0.08667  0.90478  0.57684  1.0000
  H   H413      1.0  0.05672  0.72074  0.82712  1.0000
  H   H414      1.0  0.03264  0.96614  0.93462  1.0000
  C   C372      1.0  0.16287  0.94096  0.56434  1.0000
  H   H415      1.0  0.04603  0.92335  0.58649  1.0000
  C   C373      1.0  0.02366  0.90703  0.53586  1.0000
  H   H416      1.0  0.07345  0.95808  0.91001  1.0000
  C   C374      1.0  0.20914  0.74207  0.86792  1.0000
  C   C375      1.0  0.05641  0.93007  0.90493  1.0000
  C   C376      1.0  0.16854  0.98334  0.93612  1.0000
  C   C377      1.0  0.01478  0.72032  0.50228  1.0000
  H   H417      1.0  0.10621  0.69882  0.91688  1.0000
  C   C378      1.0  0.99928  0.79005  0.50895  1.0000
  H   H418      1.0  0.05044  0.88575  0.64675  1.0000
  C   C379      1.0  0.11171  0.92189  0.76591  1.0000
  H   H419      1.0  0.04041  0.68683  0.75225  1.0000
  C   C380      1.0  0.11064  0.91900  0.82805  1.0000
  C   C381      1.0  0.13620  0.93150  0.85346  1.0000
  C   C382      1.0  0.08384  0.88504  0.83196  1.0000
  C   C383      1.0  0.13496  0.91102  0.88070  1.0000
  C   C384      1.0  0.08262  0.86507  0.85967  1.0000
  H   H420      1.0  0.10543  0.76667  0.93352  1.0000
  C   C385      1.0  0.10476  0.75911  0.86734  1.0000
  C   C386      1.0  0.07112  0.69072  0.51579  1.0000
  H   H421      1.0  0.10770  0.86221  0.90492  1.0000
  H   H422      1.0  0.04453  0.77672  0.67756  1.0000
  C   C387      1.0  0.01450  0.85504  0.91561  1.0000
  C   C388      1.0  0.14060  0.97484  0.79849  1.0000
  H   H423      1.0  0.07987  0.95532  0.82271  1.0000
  H   H424      1.0  0.13815  0.74113  0.90708  1.0000
  H   H425      1.0  0.02260  0.80288  0.49590  1.0000
  H   H426      1.0  0.15780  0.95677  0.85258  1.0000
  H   H427      1.0  0.06388  0.87330  0.81317  1.0000
  H   H428      1.0  0.11128  0.75149  0.84253  1.0000
  H   H429      1.0  0.06206  0.83906  0.86173  1.0000
  C   C389      1.0  0.20803  0.76087  0.83977  1.0000
  H   H430      1.0  0.15545  0.94231  0.53823  1.0000
  H   H431      1.0  0.09354  0.69022  0.74189  1.0000
  H   H432      1.0  0.10956  0.73157  0.65529  1.0000
  H   H433      1.0  0.13312  0.91784  0.76554  1.0000
  N   N22       1.0  0.11138  0.93957  0.79838  1.0000
  C   C390      1.0  0.16488  0.73669  0.97014  1.0000
  H   H434      1.0  0.98772  0.72151  0.90431  1.0000
  S   S107      1.0  0.21914  0.87575  0.96323  1.0000
  C   C391      1.0  0.05526  0.65926  0.53213  1.0000
  C   C392      1.0  0.18694  0.96885  0.61942  1.0000
  C   C393      1.0  0.04609  0.91133  0.56198  1.0000
  H   H435      1.0  0.00319  0.84256  0.74206  1.0000
  H   H436      1.0  0.02008  0.81815  0.55655  1.0000
  C   C394      1.0  0.04440  0.75735  0.69379  1.0000
  C   C395      1.0  0.17751  0.97039  0.58557  1.0000
  C   C396      1.0  0.15751  0.90978  0.57687  1.0000
  H   H437      1.0  0.21992  0.91873  0.69707  1.0000
  H   H438      1.0  0.12476  0.73845  0.69878  1.0000
  H   H439      1.0  0.05427  0.68494  0.64094  1.0000
  C   C397      1.0  0.22038  0.96034  0.85017  1.0000
  H   H440      1.0  0.01583  0.76402  0.73293  1.0000
  H   H441      1.0  0.14735  0.88383  0.67677  1.0000
  H   H442      1.0  0.15523  0.92069  0.89917  1.0000
  C   C398      1.0  0.01617  0.67055  0.83239  1.0000
  H   H443      1.0  0.16440  0.90932  0.71521  1.0000
  C   C399      1.0  0.00082  0.71190  0.53471  1.0000
  H   H444      1.0  0.07137  0.74536  0.65828  1.0000
  H   H445      1.0  0.22969  0.98668  0.67699  1.0000
  C   C400      1.0  0.06921  0.90109  0.55652  1.0000
  C   C401      1.0  0.99795  0.79872  0.54324  1.0000
  H   H446      1.0  0.16388  0.97415  0.79662  1.0000
  C   C402      1.0  0.03466  0.86366  0.66189  1.0000
  C   C403      1.0  0.02691  0.72458  0.74546  1.0000
  H   H447      1.0  0.12320  0.70449  0.67207  1.0000
  C   C404      1.0  0.05587  0.67073  0.66331  1.0000
  C   C405      1.0  0.06027  0.71388  0.70397  1.0000
  C   C406      1.0  0.10821  0.87798  0.88392  1.0000
  H   H448      1.0  0.05855  0.91782  0.79456  1.0000
  H   H449      1.0  0.06870  0.71208  0.52569  1.0000
  H   H450      1.0  0.07175  0.91785  0.90788  1.0000
  H   H451      1.0  0.08807  0.87855  0.52072  1.0000
  C   C407      1.0  0.07002  0.88648  0.52487  1.0000
  N   N23       1.0  0.18982  0.93426  0.66928  1.0000
  N   N24       1.0  0.07622  0.69445  0.69178  1.0000
  C   C408      1.0  0.02860  0.86838  0.69621  1.0000
  C   C409      1.0  0.04273  0.70661  0.73533  1.0000
  C   C410      1.0  0.01385  0.93899  0.92762  1.0000
  C   C411      1.0  0.02370  0.89203  0.50326  1.0000
  H   H452      1.0  0.04799  0.92660  0.87758  1.0000
  H   H453      1.0  0.05382  0.90309  0.96632  1.0000
  H   H454      1.0  0.08163  0.95885  0.77669  1.0000
  H   H455      1.0  0.20025  0.89299  0.65965  1.0000
  C   C412      1.0  0.09001  0.69488  0.48664  1.0000
  H   H456      1.0  0.08844  0.76971  0.86198  1.0000
  C   C413      1.0  0.05998  0.73934  0.68317  1.0000
  H   H457      1.0  0.16155  0.88303  0.61937  1.0000
  H   H458      1.0  0.00692  0.91620  0.54181  1.0000
  C   C414      1.0  0.04761  0.88186  0.49861  1.0000
  H   H459      1.0  0.23471  0.93579  0.65515  1.0000
  H   H460      1.0  0.18710  0.75886  0.96145  1.0000
  H   H461      1.0  0.11969  0.70909  0.87332  1.0000
  H   H462      1.0  0.03280  0.74685  0.49710  1.0000
  H   H463      1.0  0.08909  0.89630  0.76208  1.0000
  H   H464      1.0  0.14598  0.88681  0.56035  1.0000
  H   H465      1.0  0.11327  0.93706  0.74297  1.0000
  C   C415      1.0  0.00804  0.83926  0.71548  1.0000
  H   H466      1.0  0.22441  0.66027  0.78991  1.0000
  C   C416      1.0  0.11434  0.71912  0.89739  1.0000
  H   H467      1.0  0.14087  0.91924  0.68587  1.0000
  C   C417      1.0  0.15865  0.70315  0.96206  1.0000
  S   S108      1.0  0.12533  0.97278  0.66244  1.0000
  C   C418      1.0  0.12922  0.67404  0.97199  1.0000
  H   H468      1.0  0.20755  0.93418  0.85902  1.0000
  H   H469      1.0  0.21269  0.96457  0.71590  1.0000
  C   C419      1.0  0.20627  0.96758  0.68902  1.0000
  C   C420      1.0  0.08161  0.94301  0.79833  1.0000
  H   H470      1.0  0.99371  0.93145  0.94651  1.0000
  H   H471      1.0  0.22883  0.78087  0.79055  1.0000
  C   C421      1.0  0.16769  0.96352  0.96386  1.0000
  N   N25       1.0  0.02795  0.91588  0.92846  1.0000
  H   H472      1.0  0.04022  0.65601  0.55438  1.0000
  H   H473      1.0  0.01365  0.71889  0.76939  1.0000
  H   H474      1.0  0.19003  0.97888  0.69152  1.0000
  C   C422      1.0  0.99337  0.80580  0.70055  1.0000
  H   H475      1.0  0.17652  0.69979  0.94763  1.0000
  C   C423      1.0  0.99247  0.82068  0.90626  1.0000
  H   H476      1.0  0.11645  0.94953  0.48199  1.0000
  H   H477      1.0  0.00086  0.80222  0.90423  1.0000
  C   C424      1.0  0.00581  0.69477  0.47660  1.0000
  C   C425      1.0  0.04127  0.67034  0.89759  1.0000
  H   H478      1.0  0.05011  0.66899  0.92295  1.0000
  C   C426      1.0  0.04538  0.69931  0.84427  1.0000
  C   C427      1.0  0.04001  0.91707  0.96408  1.0000
  C   C428      1.0  0.07986  0.67378  0.71902  1.0000
  H   H479      1.0  0.18487  0.98732  0.91494  1.0000
  H   H480      1.0  0.05707  0.94399  0.97322  1.0000
  H   H481      1.0  0.22425  0.85271  0.83023  1.0000
  H   H482      1.0  0.00628  0.67032  0.80705  1.0000
  H   H483      1.0  0.04506  0.98828  0.47541  1.0000
  H   H484      1.0  0.25979  0.08828  0.05926  1.0000
  Fe  Fe51      1.0  0.26968  0.09294  0.43745  1.0000
  S   S109      1.0  0.29707  0.14402  0.41352  1.0000
  H   H485      1.0  0.44381  0.29009  0.23668  1.0000
  S   S110      1.0  0.27229  0.10453  0.34032  1.0000
  H   H486      1.0  0.25342  0.30099  0.02263  1.0000
  Fe  Fe52      1.0  0.31634  0.12006  0.37597  1.0000
  S   S111      1.0  0.37231  0.16109  0.37617  1.0000
  Fe  Fe53      1.0  0.25355  0.12817  0.37896  1.0000
  H   H487      1.0  0.45471  0.25144  0.30217  1.0000
  S   S112      1.0  0.29020  0.06852  0.40242  1.0000
  H   H488      1.0  0.39056  0.02565  0.99719  1.0000
  Fe  Fe54      1.0  0.28676  0.14314  0.25924  1.0000
  S   S113      1.0  0.31966  0.18652  0.22407  1.0000
  H   H489      1.0  0.42148  0.12910  0.38605  1.0000
  Fe  Fe55      1.0  0.34350  0.12894  0.27696  1.0000
  S   S114      1.0  0.37982  0.17191  0.24371  1.0000
  S   S115      1.0  0.34611  0.08402  0.30339  1.0000
  Fe  Fe56      1.0  0.35945  0.20478  0.26540  1.0000
  S   S116      1.0  0.38280  0.26335  0.27776  1.0000
  Fe  Fe57      1.0  0.33860  0.15273  0.20423  1.0000
  S   S117      1.0  0.35191  0.14621  0.14899  1.0000
  S   S118      1.0  0.32625  0.16387  0.30115  1.0000
  S   S119      1.0  0.30330  0.10814  0.23594  1.0000
  S   S120      1.0  0.30445  0.17638  0.00561  1.0000
  C   C429      1.0  0.37242  0.06935  0.32086  1.0000
  C   C430      1.0  0.40627  0.08494  0.31465  1.0000
  C   C431      1.0  0.42543  0.07163  0.32873  1.0000
  C   C432      1.0  0.41124  0.04220  0.34931  1.0000
  C   C433      1.0  0.37728  0.02672  0.35518  1.0000
  C   C434      1.0  0.35825  0.04004  0.34129  1.0000
  H   H490      1.0  0.41795  0.10753  0.29921  1.0000
  N   N26       1.0  0.26267  0.04959  0.00514  1.0000
  H   H491      1.0  0.33221  0.02749  0.34651  1.0000
  C   C435      1.0  0.40416  0.29719  0.30975  1.0000
  H   H492      1.0  0.42775  0.16916  0.43164  1.0000
  C   C436      1.0  0.28276  0.07644  0.09969  1.0000
  C   C437      1.0  0.31662  0.27787  0.38754  1.0000
  C   C438      1.0  0.33975  0.15654  0.10952  1.0000
  C   C439      1.0  0.31754  0.16863  0.10836  1.0000
  C   C440      1.0  0.30723  0.17470  0.07637  1.0000
  C   C441      1.0  0.31898  0.16889  0.04513  1.0000
  C   C442      1.0  0.34129  0.15693  0.04629  1.0000
  C   C443      1.0  0.35157  0.15080  0.07828  1.0000
  H   H493      1.0  0.30806  0.17299  0.13206  1.0000
  H   H494      1.0  0.28995  0.18391  0.07581  1.0000
  H   H495      1.0  0.35068  0.15245  0.02257  1.0000
  H   H496      1.0  0.36855  0.14121  0.07880  1.0000
  C   C444      1.0  0.41323  0.18080  0.35929  1.0000
  C   C445      1.0  0.43870  0.20965  0.37681  1.0000
  H   H497      1.0  0.43199  0.21528  0.15049  1.0000
  H   H498      1.0  0.29642  0.01877  0.03449  1.0000
  C   C446      1.0  0.42151  0.16776  0.33037  1.0000
  H   H499      1.0  0.43297  0.22064  0.39886  1.0000
  H   H500      1.0  0.40217  0.14670  0.31576  1.0000
  H   H501      1.0  0.32460  0.28994  0.30145  1.0000
  H   H502      1.0  0.47655  0.05861  0.46884  1.0000
  H   H503      1.0  0.42057  0.03710  0.17193  1.0000
  H   H504      1.0  0.42617  0.27296  0.33807  1.0000
  H   H505      1.0  0.36537  0.00405  0.37050  1.0000
  Fe  Fe58      1.0  0.24520  0.05550  0.36972  1.0000
  C   C447      1.0  0.35226  0.99674  0.47315  1.0000
  H   H506      1.0  0.45681  0.22276  0.27090  1.0000
  H   H507      1.0  0.46264  0.06717  0.16332  1.0000
  H   H508      1.0  0.44846  0.06852  0.25872  1.0000
  H   H509      1.0  0.31289  0.23301  0.29059  1.0000
  C   C448      1.0  0.45438  0.23096  0.16563  1.0000
  H   H510      1.0  0.48452  0.01780  0.21482  1.0000
  C   C449      1.0  0.45255  0.24315  0.19846  1.0000
  H   H511      1.0  0.41152  0.08919  0.24155  1.0000
  H   H512      1.0  0.37881  0.10441  0.46847  1.0000
  H   H513      1.0  0.46056  0.17059  0.29877  1.0000
  S   S121      1.0  0.43383  0.02441  0.37024  1.0000
  C   C450      1.0  0.29973  0.05988  0.10928  1.0000
  H   H514      1.0  0.26079  0.01343  0.16603  1.0000
  H   H515      1.0  0.29496  0.00771  0.26585  1.0000
  C   C451      1.0  0.24846  0.27186  0.23798  1.0000
  C   C452      1.0  0.48032  0.21001  0.33873  1.0000
  C   C453      1.0  0.26900  0.00068  0.18348  1.0000
  H   H516      1.0  0.29971  0.21811  0.42389  1.0000
  H   H517      1.0  0.42792  0.23762  0.26614  1.0000
  H   H518      1.0  0.27582  0.10298  0.00221  1.0000
  C   C454      1.0  0.47848  0.13702  0.23985  1.0000
  Fe  Fe59      1.0  0.48042  0.01692  0.37722  1.0000
  H   H519      1.0  0.29846  0.24260  0.21563  1.0000
  H   H520      1.0  0.27628  0.03497  0.22624  1.0000
  H   H521      1.0  0.47864  0.12577  0.15237  1.0000
  H   H522      1.0  0.36034  0.24568  0.35536  1.0000
  C   C455      1.0  0.45480  0.18165  0.32061  1.0000
  C   C456      1.0  0.31297  0.30626  0.38069  1.0000
  H   H523      1.0  0.41985  0.08994  0.39500  1.0000
  N   N27       1.0  0.34987  0.25171  0.40812  1.0000
  C   C457      1.0  0.34357  0.23039  0.37623  1.0000
  C   C458      1.0  0.38278  0.26037  0.42186  1.0000
  C   C459      1.0  0.32535  0.23099  0.43431  1.0000
  C   C460      1.0  0.34684  0.28216  0.40045  1.0000
  H   H524      1.0  0.39084  0.05122  0.21492  1.0000
  H   H525      1.0  0.32692  0.24732  0.45698  1.0000
  H   H526      1.0  0.29217  0.30223  0.02283  1.0000
  H   H527      1.0  0.34735  0.20819  0.38041  1.0000
  H   H528      1.0  0.45715  0.32255  0.37907  1.0000
  C   C461      1.0  0.41101  0.07859  0.21534  1.0000
  H   H529      1.0  0.40237  0.27516  0.40316  1.0000
  H   H530      1.0  0.38421  0.23680  0.42688  1.0000
  H   H531      1.0  0.30773  0.09422  0.99036  1.0000
  H   H532      1.0  0.33438  0.99355  0.28389  1.0000
  H   H533      1.0  0.32934  0.21025  0.44405  1.0000
  C   C462      1.0  0.47177  0.22405  0.36668  1.0000
  C   C463      1.0  0.30404  0.03897  0.08544  1.0000
  C   C464      1.0  0.48114  0.26299  0.21935  1.0000
  C   C465      1.0  0.27679  0.31040  0.00848  1.0000
  C   C466      1.0  0.37299  0.31650  0.40612  1.0000
  H   H534      1.0  0.27240  0.21807  0.30598  1.0000
  H   H535      1.0  0.27829  0.20310  0.26502  1.0000
  C   C467      1.0  0.27496  0.05217  0.04087  1.0000
  C   C468      1.0  0.43129  0.11713  0.40377  1.0000
  H   H536      1.0  0.29569  0.25245  0.38271  1.0000
  Fe  Fe60      1.0  0.45388  0.00598  0.31367  1.0000
  H   H537      1.0  0.31805  0.21933  0.36612  1.0000
  H   H538      1.0  0.46510  0.17108  0.44542  1.0000
  C   C469      1.0  0.28843  0.99659  0.24005  1.0000
  H   H539      1.0  0.28008  0.09324  0.11817  1.0000
  C   C470      1.0  0.43914  0.06511  0.17188  1.0000
  N   N28       1.0  0.44302  0.08177  0.20638  1.0000
  C   C471      1.0  0.42398  0.29567  0.33596  1.0000
  C   C472      1.0  0.46741  0.30053  0.25136  1.0000
  H   H540      1.0  0.38883  0.27545  0.44656  1.0000
  N   N29       1.0  0.42334  0.11989  0.44019  1.0000
  H   H541      1.0  0.30566  0.30910  0.27798  1.0000
  H   H542      1.0  0.37690  0.11481  0.42469  1.0000
  C   C473      1.0  0.38706  0.10289  0.44216  1.0000
  C   C474      1.0  0.28751  0.22608  0.28248  1.0000
  C   C475      1.0  0.46887  0.11858  0.20783  1.0000
  H   H543      1.0  0.45131  0.08520  0.32430  1.0000
  H   H544      1.0  0.33064  0.13108  0.46166  1.0000
  H   H545      1.0  0.46278  0.30833  0.27713  1.0000
  C   C476      1.0  0.38767  0.00034  0.99362  1.0000
  H   H546      1.0  0.31122  0.28729  0.22217  1.0000
  S   S122      1.0  0.24882  0.17609  0.37117  1.0000
  C   C477      1.0  0.28068  0.08376  0.98923  1.0000
  H   H547      1.0  0.45402  0.08088  0.42714  1.0000
  H   H548      1.0  0.42847  0.23679  0.20752  1.0000
  C   C478      1.0  0.45083  0.06223  0.23143  1.0000
  H   H549      1.0  0.47626  0.06713  0.22815  1.0000
  H   H550      1.0  0.37539  0.07527  0.43428  1.0000
  H   H551      1.0  0.46770  0.12462  0.26375  1.0000
  H   H552      1.0  0.43030  0.07624  0.15206  1.0000
  H   H553      1.0  0.45827  0.13013  0.39962  1.0000
  C   C479      1.0  0.43792  0.15708  0.44872  1.0000
  C   C480      1.0  0.25333  0.24652  0.25386  1.0000
  H   H554      1.0  0.28346  0.28008  0.31149  1.0000
  C   C481      1.0  0.45125  0.08535  0.45394  1.0000
  H   H555      1.0  0.40414  0.09288  0.19714  1.0000
  C   C482      1.0  0.41566  0.99741  0.98718  1.0000
  N   N30       1.0  0.28672  0.25495  0.26537  1.0000
  H   H556      1.0  0.26866  0.29776  0.23482  1.0000
  H   H557      1.0  0.24227  0.23169  0.34431  1.0000
  H   H558      1.0  0.43404  0.03402  0.22819  1.0000
  C   C483      1.0  0.30065  0.28474  0.29008  1.0000
  C   C484      1.0  0.45343  0.24541  0.27406  1.0000
  C   C485      1.0  0.27775  0.01280  0.21734  1.0000
  C   C486      1.0  0.45584  0.99834  0.16815  1.0000
  S   S123      1.0  0.45429  0.03541  0.98066  1.0000
  C   C487      1.0  0.30840  0.26415  0.23509  1.0000
  H   H559      1.0  0.29908  0.01206  0.42615  1.0000
  C   C488      1.0  0.27105  0.07323  0.06590  1.0000
  H   H560      1.0  0.31028  0.06406  0.13504  1.0000
  C   C489      1.0  0.29184  0.03500  0.05170  1.0000
  C   C490      1.0  0.45656  0.00096  0.13222  1.0000
  H   H561      1.0  0.31740  0.02621  0.09295  1.0000
  H   H562      1.0  0.33364  0.27006  0.24249  1.0000
  C   C491      1.0  0.43559  0.10388  0.46473  1.0000
  H   H563      1.0  0.40695  0.01116  0.43957  1.0000
  H   H564      1.0  0.28981  0.30269  0.37091  1.0000
  N   N31       1.0  0.47826  0.27491  0.25429  1.0000
  C   C492      1.0  0.31502  0.01393  0.44738  1.0000
  C   C493      1.0  0.26676  0.02484  0.98276  1.0000
  C   C494      1.0  0.33147  0.99532  0.44581  1.0000
  H   H565      1.0  0.25447  0.99872  0.99376  1.0000
  H   H566      1.0  0.29315  0.03361  0.97838  1.0000
  C   C495      1.0  0.48439  0.13744  0.17789  1.0000
  C   C496      1.0  0.48477  0.01825  0.18735  1.0000
  H   H567      1.0  0.39699  0.32256  0.41562  1.0000
  C   C497      1.0  0.48478  0.23877  0.15235  1.0000
  H   H568      1.0  0.48611  0.22936  0.12685  1.0000
  C   C498      1.0  0.43157  0.10611  0.50076  1.0000
  Fe  Fe61      1.0  0.39706  0.14765  0.67700  1.0000
  S   S124      1.0  0.41503  0.19715  0.64859  1.0000
  S   S125      1.0  0.35395  0.12886  0.71377  1.0000
  Fe  Fe62      1.0  0.45335  0.13656  0.65230  1.0000
  C   C499      1.0  0.48524  0.30709  0.67215  1.0000
  H   H569      1.0  0.47085  0.06551  0.53129  1.0000
  H   H570      1.0  0.41876  0.11863  0.51091  1.0000
  H   H571      1.0  0.40997  0.00716  0.50412  1.0000
  Fe  Fe63      1.0  0.42319  0.16802  0.60597  1.0000
  S   S126      1.0  0.41630  0.17327  0.54975  1.0000
  S   S127      1.0  0.44763  0.16323  0.69938  1.0000
  S   S128      1.0  0.40172  0.11763  0.63247  1.0000
  C   C500      1.0  0.33981  0.03752  0.50311  1.0000
  Fe  Fe64      1.0  0.31501  0.16837  0.94966  1.0000
  S   S129      1.0  0.34595  0.14715  0.92893  1.0000
  Fe  Fe65      1.0  0.29164  0.17514  0.87687  1.0000
  S   S130      1.0  0.32100  0.15369  0.85103  1.0000
  H   H572      1.0  0.41491  0.29051  0.75566  1.0000
  Fe  Fe66      1.0  0.30261  0.11425  0.89291  1.0000
  S   S131      1.0  0.28158  0.05560  0.89329  1.0000
  Fe  Fe67      1.0  0.36232  0.18796  0.88859  1.0000
  S   S132      1.0  0.41552  0.22904  0.87486  1.0000
  S   S133      1.0  0.27100  0.13354  0.91615  1.0000
  S   S134      1.0  0.33358  0.21140  0.91181  1.0000
  C   C501      1.0  0.39196  0.19054  0.78124  1.0000
  N   N32       1.0  0.27118  0.29736  0.97224  1.0000
  C   C502      1.0  0.24029  0.06688  0.71761  1.0000
  C   C503      1.0  0.45343  0.23235  0.86152  1.0000
  H   H573      1.0  0.37204  0.02217  0.52368  1.0000
  H   H574      1.0  0.34311  0.05425  0.52519  1.0000
  H   H575      1.0  0.30439  0.00490  0.87473  1.0000
  C   C504      1.0  0.46073  0.07579  0.51296  1.0000
  H   H576      1.0  0.45422  0.22272  0.77419  1.0000
  H   H577      1.0  0.24025  0.06308  0.66211  1.0000
  S   S135      1.0  0.47468  0.18510  0.62255  1.0000
  C   C505      1.0  0.44428  0.09255  0.52446  1.0000
  C   C506      1.0  0.29459  0.09905  0.74488  1.0000
  C   C507      1.0  0.37511  0.14992  0.53585  1.0000
  C   C508      1.0  0.36769  0.15129  0.50129  1.0000
  C   C509      1.0  0.37471  0.23170  0.79210  1.0000
  C   C510      1.0  0.31009  0.11071  0.51088  1.0000
  C   C511      1.0  0.31727  0.10972  0.54574  1.0000
  C   C512      1.0  0.34990  0.12912  0.55820  1.0000
  H   H578      1.0  0.33678  0.00108  0.85399  1.0000
  H   H579      1.0  0.44160  0.09531  0.55193  1.0000
  H   H580      1.0  0.29771  0.09395  0.56307  1.0000
  H   H581      1.0  0.35544  0.12815  0.58506  1.0000
  C   C513      1.0  0.45704  0.20356  0.85599  1.0000
  C   C514      1.0  0.37881  0.21505  0.73377  1.0000
  H   H582      1.0  0.26762  0.05472  0.81932  1.0000
  C   C515      1.0  0.35634  0.01887  0.50183  1.0000
  H   H583      1.0  0.30096  0.30661  0.92728  1.0000
  C   C516      1.0  0.48074  0.26520  0.85577  1.0000
  C   C517      1.0  0.32553  0.00081  0.87921  1.0000
  Fe  Fe68      1.0  0.46547  0.21068  0.66748  1.0000
  C   C518      1.0  0.25506  0.27575  0.85992  1.0000
  H   H584      1.0  0.47824  0.28769  0.85947  1.0000
  H   H585      1.0  0.28604  0.25528  0.87597  1.0000
  H   H586      1.0  0.34410  0.02383  0.89433  1.0000
  S   S136      1.0  0.26959  0.08652  0.49472  1.0000
  H   H587      1.0  0.40330  0.18012  0.76315  1.0000
  H   H588      1.0  0.48489  0.31757  0.92195  1.0000
  H   H589      1.0  0.40383  0.19478  0.80709  1.0000
  H   H590      1.0  0.38747  0.24125  0.81752  1.0000
  H   H591      1.0  0.36596  0.16945  0.78354  1.0000
  C   C519      1.0  0.25575  0.02227  0.86301  1.0000
  S   S137      1.0  0.25501  0.18471  0.84589  1.0000
  C   C520      1.0  0.25523  0.20561  0.95891  1.0000
  H   H592      1.0  0.24910  0.07582  0.77219  1.0000
  H   H593      1.0  0.29416  0.25434  0.94551  1.0000
  H   H594      1.0  0.30185  0.09661  0.65809  1.0000
  C   C521      1.0  0.25533  0.25936  0.97182  1.0000
  H   H595      1.0  0.43643  0.17811  0.86025  1.0000
  H   H596      1.0  0.25526  0.02177  0.95679  1.0000
  C   C522      1.0  0.25533  0.07315  0.68521  1.0000
  H   H597      1.0  0.39259  0.20776  0.71553  1.0000
  H   H598      1.0  0.23916  0.20249  0.74389  1.0000
  C   C523      1.0  0.43475  0.28538  0.75973  1.0000
  N   N33       1.0  0.39420  0.22264  0.76858  1.0000
  H   H599      1.0  0.37832  0.23750  0.72303  1.0000
  H   H600      1.0  0.46165  0.28433  0.66675  1.0000
  C   C524      1.0  0.24480  0.21807  0.84526  1.0000
  C   C525      1.0  0.26407  0.25013  0.86190  1.0000
  H   H601      1.0  0.24135  0.29496  0.92876  1.0000
  C   C526      1.0  0.29027  0.09211  0.68292  1.0000
  H   H602      1.0  0.27030  0.30050  0.87258  1.0000
  H   H603      1.0  0.48404  0.17211  0.55386  1.0000
  C   C527      1.0  0.31005  0.10498  0.71301  1.0000
  C   C528      1.0  0.42846  0.25169  0.76661  1.0000
  H   H604      1.0  0.35303  0.19306  0.73388  1.0000
  H   H605      1.0  0.34994  0.20920  0.79686  1.0000
  H   H606      1.0  0.30932  0.10870  0.76830  1.0000
  C   C529      1.0  0.26026  0.08022  0.74712  1.0000
  C   C530      1.0  0.33551  0.13100  0.48869  1.0000
  H   H607      1.0  0.37022  0.25182  0.78178  1.0000
  C   C531      1.0  0.46396  0.07195  0.47777  1.0000
  H   H608      1.0  0.24439  0.00909  0.49422  1.0000
  C   C532      1.0  0.30346  0.31479  0.95487  1.0000
  C   C533      1.0  0.25411  0.02861  0.82818  1.0000
  C   C534      1.0  0.45632  0.24733  0.76957  1.0000
  H   H609      1.0  0.32166  0.30959  0.96778  1.0000
  H   H610      1.0  0.27345  0.08242  0.96166  1.0000
  H   H611      1.0  0.31893  0.99494  0.94572  1.0000
  H   H612      1.0  0.26745  0.19252  0.94848  1.0000
  C   C535      1.0  0.27043  0.24143  0.95754  1.0000
  H   H613      1.0  0.38684  0.16778  0.48399  1.0000
  C   C536      1.0  0.24937  0.30753  0.95472  1.0000
  H   H614      1.0  0.48307  0.17590  0.50854  1.0000
  C   C537      1.0  0.46684  0.31312  0.75740  1.0000
  S   S138      1.0  0.47914  0.10630  0.63840  1.0000
  H   H615      1.0  0.36474  0.98948  0.91839  1.0000
  H   H616      1.0  0.30623  0.04930  0.47716  1.0000
  C   C538      1.0  0.31898  0.03480  0.47608  1.0000
  H   H617      1.0  0.43277  0.16207  0.47537  1.0000
  Fe  Fe69      1.0  0.42809  0.46670  0.24669  1.0000
  S   S139      1.0  0.40667  0.41329  0.26613  1.0000
  S   S140      1.0  0.42497  0.47656  0.19065  1.0000
  Fe  Fe70      1.0  0.38421  0.43138  0.30720  1.0000
  S   S141      1.0  0.32914  0.39217  0.31782  1.0000
  C   C539      1.0  0.36917  0.34463  0.39871  1.0000
  H   H618      1.0  0.24044  0.42058  0.32521  1.0000
  H   H619      1.0  0.38717  0.51756  0.42980  1.0000
  C   C540      1.0  0.41869  0.35494  0.33187  1.0000
  C   C541      1.0  0.43913  0.35391  0.35764  1.0000
  C   C542      1.0  0.25803  0.58023  0.98958  1.0000
  H   H620      1.0  0.41592  0.37728  0.33033  1.0000
  S   S142      1.0  0.42799  0.44755  0.34180  1.0000
  N   N34       1.0  0.39004  0.55776  0.46361  1.0000
  C   C543      1.0  0.29712  0.38844  0.34572  1.0000
  C   C544      1.0  0.30296  0.41098  0.37380  1.0000
  C   C545      1.0  0.27681  0.40613  0.39546  1.0000
  H   H621      1.0  0.24864  0.47603  0.34948  1.0000
  C   C546      1.0  0.40569  0.54256  0.44205  1.0000
  C   C547      1.0  0.26464  0.36134  0.33963  1.0000
  H   H622      1.0  0.32770  0.43194  0.37905  1.0000
  H   H623      1.0  0.28193  0.42357  0.41719  1.0000
  S   S143      1.0  0.32556  0.63625  0.15042  1.0000
  H   H624      1.0  0.25944  0.34394  0.31780  1.0000
  C   C548      1.0  0.46189  0.50621  0.17119  1.0000
  S   S144      1.0  0.45938  0.38742  0.39030  1.0000
  C   C549      1.0  0.34313  0.44036  0.98793  1.0000
  C   C550      1.0  0.46129  0.51410  0.13666  1.0000
  H   H625      1.0  0.45333  0.53936  0.23084  1.0000
  H   H626      1.0  0.43822  0.50242  0.12235  1.0000
  S   S145      1.0  0.40518  0.48488  0.28578  1.0000
  Fe  Fe71      1.0  0.27414  0.59579  0.44156  1.0000
  Fe  Fe72      1.0  0.24610  0.54926  0.37919  1.0000
  S   S146      1.0  0.27710  0.59197  0.34332  1.0000
  H   H627      1.0  0.25640  0.58974  0.12899  1.0000
  Fe  Fe73      1.0  0.32012  0.60902  0.38130  1.0000
  H   H628      1.0  0.36204  0.58593  0.18827  1.0000
  Fe  Fe74      1.0  0.26299  0.62494  0.37599  1.0000
  C   C551      1.0  0.40194  0.32721  0.30786  1.0000
  S   S147      1.0  0.28946  0.56253  0.41364  1.0000
  C   C552      1.0  0.32591  0.63763  0.07948  1.0000
  H   H629      1.0  0.28545  0.42075  0.14627  1.0000
  C   C553      1.0  0.46696  0.56159  0.24881  1.0000
  Fe  Fe75      1.0  0.33734  0.62894  0.27874  1.0000
  S   S148      1.0  0.34425  0.58545  0.30312  1.0000
  H   H630      1.0  0.45257  0.37105  0.21727  1.0000
  S   S149      1.0  0.29461  0.60631  0.24088  1.0000
  H   H631      1.0  0.37996  0.57667  0.41713  1.0000
  C   C554      1.0  0.36839  0.56827  0.32171  1.0000
  C   C555      1.0  0.40216  0.58169  0.31609  1.0000
  C   C556      1.0  0.41949  0.56644  0.33080  1.0000
  C   C557      1.0  0.40333  0.53685  0.35092  1.0000
  C   C558      1.0  0.36961  0.52375  0.35660  1.0000
  C   C559      1.0  0.35252  0.53920  0.34241  1.0000
  H   H632      1.0  0.41516  0.60432  0.30095  1.0000
  H   H633      1.0  0.35635  0.50109  0.37191  1.0000
  H   H634      1.0  0.32667  0.52850  0.34769  1.0000
  Fe  Fe76      1.0  0.25296  0.39335  0.99725  1.0000
  C   C560      1.0  0.36747  0.56287  0.44091  1.0000
  H   H635      1.0  0.32531  0.47569  0.99528  1.0000
  H   H636      1.0  0.44386  0.43085  0.16043  1.0000
  S   S150      1.0  0.30380  0.40275  0.98197  1.0000
  C   C561      1.0  0.44438  0.59299  0.22106  1.0000
  S   S151      1.0  0.45253  0.46756  0.42061  1.0000
  H   H637      1.0  0.27145  0.52942  0.04277  1.0000
  H   H638      1.0  0.38122  0.52765  0.99803  1.0000
  C   C562      1.0  0.34685  0.47300  0.99324  1.0000
  H   H639      1.0  0.43050  0.54980  0.18478  1.0000
  S   S152      1.0  0.30644  0.64275  0.41195  1.0000
  N   N35       1.0  0.30872  0.47224  0.25730  1.0000
  C   C563      1.0  0.33965  0.50080  0.24346  1.0000
  C   C564      1.0  0.28892  0.48718  0.27048  1.0000
  C   C565      1.0  0.31797  0.45775  0.28636  1.0000
  C   C566      1.0  0.28895  0.44445  0.23164  1.0000
  C   C567      1.0  0.29781  0.44604  0.19647  1.0000
  C   C568      1.0  0.25970  0.41448  0.24164  1.0000
  H   H640      1.0  0.25848  0.59902  0.00900  1.0000
  H   H641      1.0  0.28952  0.33902  0.01010  1.0000
  C   C569      1.0  0.44152  0.32391  0.35937  1.0000
  H   H642      1.0  0.35417  0.52084  0.26371  1.0000
  H   H643      1.0  0.35601  0.49141  0.23350  1.0000
  H   H644      1.0  0.33458  0.51431  0.22276  1.0000
  H   H645      1.0  0.46756  0.57817  0.39323  1.0000
  H   H646      1.0  0.28085  0.49757  0.24918  1.0000
  H   H647      1.0  0.30319  0.50878  0.28929  1.0000
  H   H648      1.0  0.33041  0.44375  0.27684  1.0000
  H   H649      1.0  0.33515  0.47797  0.30495  1.0000
  H   H650      1.0  0.29653  0.43944  0.30153  1.0000
  H   H651      1.0  0.31951  0.46770  0.18635  1.0000
  C   C570      1.0  0.32267  0.64898  0.04679  1.0000
  H   H652      1.0  0.48610  0.58110  0.18355  1.0000
  H   H653      1.0  0.41925  0.55958  0.42044  1.0000
  H   H654      1.0  0.42396  0.53881  0.45677  1.0000
  H   H655      1.0  0.38987  0.37064  0.40215  1.0000
  S   S153      1.0  0.44619  0.53785  0.99078  1.0000
  H   H656      1.0  0.24633  0.56979  0.16946  1.0000
  H   H657      1.0  0.34606  0.53786  0.43216  1.0000
  H   H658      1.0  0.29973  0.56802  0.02205  1.0000
  N   N36       1.0  0.47503  0.59473  0.23343  1.0000
  Fe  Fe77      1.0  0.27667  0.63882  0.26680  1.0000
  C   C571      1.0  0.40409  0.61244  0.22223  1.0000
  C   C572      1.0  0.44218  0.40670  0.16942  1.0000
  C   C573      1.0  0.33931  0.33955  0.38600  1.0000
  C   C574      1.0  0.37860  0.50244  0.99472  1.0000
  H   H659      1.0  0.45136  0.55666  0.27181  1.0000
  Fe  Fe78      1.0  0.47017  0.50937  0.38097  1.0000
  S   S154      1.0  0.37623  0.63021  0.38619  1.0000
  H   H660      1.0  0.33148  0.61709  0.08112  1.0000
  S   S155      1.0  0.42302  0.51499  0.37013  1.0000
  Fe  Fe79      1.0  0.45181  0.50197  0.31818  1.0000
  Fe  Fe80      1.0  0.45296  0.43386  0.29936  1.0000
  H   H661      1.0  0.37998  0.54651  0.16410  1.0000
  C   C575      1.0  0.39482  0.56560  0.18379  1.0000
  N   N37       1.0  0.24922  0.54678  0.00513  1.0000
  C   C576      1.0  0.42400  0.56789  0.19568  1.0000
  C   C577      1.0  0.32263  0.65298  0.11005  1.0000
  S   S156      1.0  0.47481  0.48599  0.27610  1.0000
  H   H662      1.0  0.45741  0.35756  0.17515  1.0000
  H   H663      1.0  0.25119  0.41134  0.26783  1.0000
  H   H664      1.0  0.33678  0.36159  0.38003  1.0000
  C   C578      1.0  0.23851  0.35680  0.36102  1.0000
  C   C579      1.0  0.24424  0.37906  0.38925  1.0000
  H   H665      1.0  0.25051  0.62320  0.19635  1.0000
  H   H666      1.0  0.38703  0.32919  0.28777  1.0000
  C   C580      1.0  0.27860  0.41907  0.17310  1.0000
  C   C581      1.0  0.27428  0.55355  0.03219  1.0000
  H   H667      1.0  0.44545  0.57794  0.32667  1.0000
  H   H668      1.0  0.47826  0.61886  0.28318  1.0000
  H   H669      1.0  0.43153  0.38755  0.14769  1.0000
  H   H670      1.0  0.43062  0.60877  0.45480  1.0000
  H   H671      1.0  0.33297  0.62215  0.46528  1.0000
  C   C582      1.0  0.38477  0.58774  0.19723  1.0000
  C   C583      1.0  0.40701  0.49961  0.99169  1.0000
  C   C584      1.0  0.24085  0.38762  0.21814  1.0000
  H   H672      1.0  0.26657  0.46799  0.28388  1.0000
  C   C585      1.0  0.25117  0.52451  0.97763  1.0000
  C   C586      1.0  0.25037  0.38988  0.18395  1.0000
  C   C587      1.0  0.40956  0.64898  0.35676  1.0000
  Fe  Fe81      1.0  0.48099  0.44700  0.39208  1.0000
  H   H673      1.0  0.32593  0.63734  0.02365  1.0000
  H   H674      1.0  0.27266  0.56899  0.05406  1.0000
  H   H675      1.0  0.24826  0.50010  0.98747  1.0000
  C   C588      1.0  0.43377  0.61564  0.23352  1.0000
  C   C589      1.0  0.46918  0.37896  0.19464  1.0000
  H   H676      1.0  0.28297  0.59258  0.97817  1.0000
  H   H677      1.0  0.47100  0.42870  0.23203  1.0000
  C   C590      1.0  0.43974  0.65146  0.36591  1.0000
  H   H678      1.0  0.36898  0.41244  0.98067  1.0000
  H   H679      1.0  0.42421  0.39771  0.19077  1.0000
  H   H680      1.0  0.44171  0.64039  0.38962  1.0000
  Fe  Fe82      1.0  0.32529  0.65129  0.20736  1.0000
  C   C591      1.0  0.40326  0.46686  0.98725  1.0000
  C   C592      1.0  0.37150  0.43749  0.98497  1.0000
  H   H681      1.0  0.24963  0.62805  0.09788  1.0000
  N   N38       1.0  0.47461  0.41194  0.18070  1.0000
  H   H682      1.0  0.44768  0.63571  0.25249  1.0000
  H   H683      1.0  0.42482  0.46428  0.98458  1.0000
  H   H684      1.0  0.39597  0.62912  0.23326  1.0000
  H   H685      1.0  0.28408  0.51604  0.46308  1.0000
  H   H686      1.0  0.24490  0.47432  0.42326  1.0000
  H   H687      1.0  0.24667  0.44294  0.44915  1.0000
  H   H688      1.0  0.35807  0.57856  0.45355  1.0000
  C   C593      1.0  0.24045  0.62636  0.17158  1.0000
  H   H689      1.0  0.26208  0.64215  0.15536  1.0000
  H   H690      1.0  0.48608  0.32402  0.23837  1.0000
  S   S157      1.0  0.23622  0.42720  0.02246  1.0000
  H   H691      1.0  0.35537  0.50891  0.92587  1.0000
  C   C594      1.0  0.24627  0.52781  0.83159  1.0000
  H   H692      1.0  0.35258  0.62356  0.59083  1.0000
  C   C595      1.0  0.26048  0.61131  0.68857  1.0000
  H   H693      1.0  0.37886  0.49223  0.48208  1.0000
  Fe  Fe83      1.0  0.37613  0.64705  0.67889  1.0000
  C   C596      1.0  0.41671  0.59185  0.47643  1.0000
  H   H694      1.0  0.46451  0.63353  0.57880  1.0000
  C   C597      1.0  0.27033  0.50153  0.48583  1.0000
  H   H695      1.0  0.34879  0.45928  0.53127  1.0000
  S   S158      1.0  0.31099  0.65372  0.85015  1.0000
  H   H696      1.0  0.47114  0.33862  0.75189  1.0000
  C   C598      1.0  0.31756  0.46348  0.89930  1.0000
  H   H697      1.0  0.24080  0.50200  0.78242  1.0000
  Fe  Fe84      1.0  0.41508  0.65451  0.61373  1.0000
  H   H698      1.0  0.32796  0.53835  0.56268  1.0000
  H   H699      1.0  0.25435  0.65387  0.81215  1.0000
  H   H700      1.0  0.46651  0.60187  0.62268  1.0000
  N   N39       1.0  0.27216  0.41230  0.86520  1.0000
  H   H701      1.0  0.42180  0.54124  0.54934  1.0000
  C   C599      1.0  0.36832  0.50349  0.49888  1.0000
  S   S159      1.0  0.41474  0.65132  0.55618  1.0000
  H   H702      1.0  0.30669  0.52695  0.84216  1.0000
  H   H703      1.0  0.38954  0.64736  0.48797  1.0000
  C   C600      1.0  0.27716  0.40353  0.82955  1.0000
  S   S160      1.0  0.45123  0.59786  0.69931  1.0000
  H   H704      1.0  0.42787  0.57954  0.59920  1.0000
  S   S161      1.0  0.32781  0.64377  0.69454  1.0000
  S   S162      1.0  0.38685  0.61050  0.64880  1.0000
  S   S163      1.0  0.27045  0.59101  0.49862  1.0000
  H   H705      1.0  0.35684  0.57186  0.51303  1.0000
  H   H706      1.0  0.24532  0.52663  0.72862  1.0000
  H   H707      1.0  0.30243  0.57307  0.71721  1.0000
  H   H708      1.0  0.26155  0.33584  0.95167  1.0000
  Fe  Fe85      1.0  0.28573  0.61773  0.89347  1.0000
  H   H709      1.0  0.27372  0.52118  0.50585  1.0000
  S   S164      1.0  0.26804  0.65192  0.91663  1.0000
  H   H710      1.0  0.45322  0.53055  0.54086  1.0000
  H   H711      1.0  0.27375  0.39495  0.91605  1.0000
  H   H712      1.0  0.24083  0.57679  0.96804  1.0000
  H   H713      1.0  0.26299  0.55307  0.82207  1.0000
  C   C601      1.0  0.28185  0.57632  0.71033  1.0000
  C   C602      1.0  0.35605  0.54774  0.51644  1.0000
  S   S165      1.0  0.33165  0.64033  0.92680  1.0000
  H   H714      1.0  0.30346  0.41174  0.82528  1.0000
  C   C603      1.0  0.31053  0.60919  0.51512  1.0000
  C   C604      1.0  0.31616  0.60964  0.55054  1.0000
  C   C605      1.0  0.34837  0.62349  0.56345  1.0000
  H   H715      1.0  0.29568  0.59928  0.56799  1.0000
  H   H716      1.0  0.23857  0.59006  0.77120  1.0000
  C   C606      1.0  0.37483  0.63684  0.54087  1.0000
  H   H717      1.0  0.27251  0.46516  0.83080  1.0000
  H   H718      1.0  0.26222  0.36271  0.88292  1.0000
  C   C607      1.0  0.28759  0.60740  0.69672  1.0000
  C   C608      1.0  0.29032  0.47372  0.85175  1.0000
  H   H719      1.0  0.28250  0.48738  0.49526  1.0000
  H   H720      1.0  0.44034  0.55681  0.62710  1.0000
  C   C609      1.0  0.27853  0.39068  0.88891  1.0000
  H   H721      1.0  0.26225  0.37530  0.82389  1.0000
  C   C610      1.0  0.37162  0.53621  0.49288  1.0000
  H   H722      1.0  0.24672  0.64448  0.76684  1.0000
  C   C611      1.0  0.44954  0.57779  0.60807  1.0000
  H   H723      1.0  0.32341  0.48175  0.57221  1.0000
  H   H724      1.0  0.26462  0.63528  0.67815  1.0000
  C   C612      1.0  0.29354  0.44973  0.87219  1.0000
  C   C613      1.0  0.33311  0.52181  0.88471  1.0000
  C   C614      1.0  0.33707  0.62280  0.49267  1.0000
  H   H725      1.0  0.40740  0.60612  0.49177  1.0000
  H   H726      1.0  0.34816  0.54932  0.88946  1.0000
  C   C615      1.0  0.44202  0.53881  0.56139  1.0000
  S   S166      1.0  0.24984  0.55957  0.89553  1.0000
  C   C616      1.0  0.30978  0.50917  0.85804  1.0000
  C   C617      1.0  0.33706  0.49902  0.90521  1.0000
  H   H727      1.0  0.46588  0.54424  0.71263  1.0000
  C   C618      1.0  0.36920  0.63698  0.50554  1.0000
  H   H728      1.0  0.43088  0.51731  0.57977  1.0000
  H   H729      1.0  0.30429  0.39604  0.88712  1.0000
  H   H730      1.0  0.43447  0.58913  0.49313  1.0000
  H   H731      1.0  0.26959  0.41593  0.80982  1.0000
  C   C619      1.0  0.35103  0.48417  0.52719  1.0000
  C   C620      1.0  0.33917  0.52849  0.54484  1.0000
  C   C621      1.0  0.23715  0.52394  0.86616  1.0000
  C   C622      1.0  0.33666  0.49672  0.55022  1.0000
  C   C623      1.0  0.23720  0.40274  0.86877  1.0000
  H   H732      1.0  0.48504  0.54893  0.61478  1.0000
  C   C624      1.0  0.47689  0.62948  0.55745  1.0000
  H   H733      1.0  0.31449  0.34333  0.95561  1.0000
  Fe  Fe86      1.0  0.43470  0.63436  0.67925  1.0000
  H   H734      1.0  0.46652  0.34208  0.66854  1.0000
  H   H735      1.0  0.32181  0.44743  0.91646  1.0000
  C   C625      1.0  0.24942  0.55008  0.71700  1.0000
  H   H736      1.0  0.27505  0.53756  0.96401  1.0000
  H   H737      1.0  0.24494  0.59305  0.81673  1.0000
  N   N40       1.0  0.46638  0.57158  0.57886  1.0000
  C   C626      1.0  0.47989  0.59964  0.55374  1.0000
  H   H738      1.0  0.48033  0.60071  0.95218  1.0000
  C   C627      1.0  0.45516  0.62165  0.92419  1.0000
  H   H739      1.0  0.43115  0.59903  0.92725  1.0000
  C   C628      1.0  0.48293  0.62261  0.93822  1.0000
  H   H740      1.0  0.43665  0.64916  0.89573  1.0000
  C   C629      1.0  0.45834  0.64982  0.90651  1.0000
  H   H741      1.0  0.43466  0.78659  0.24293  1.0000
  S   S167      1.0  0.40471  0.91342  0.26892  1.0000
  H   H742      1.0  0.26351  0.96238  0.14585  1.0000
  Fe  Fe87      1.0  0.38510  0.93547  0.30912  1.0000
  S   S168      1.0  0.33012  0.89739  0.32099  1.0000
  H   H743      1.0  0.30692  0.71164  0.07311  1.0000
  C   C630      1.0  0.35170  0.93808  0.98889  1.0000
  S   S169      1.0  0.30565  0.68313  0.23104  1.0000
  S   S170      1.0  0.36952  0.67278  0.24344  1.0000
  Fe  Fe88      1.0  0.34835  0.70311  0.26935  1.0000
  S   S171      1.0  0.37457  0.76217  0.28186  1.0000
  H   H744      1.0  0.32274  0.80140  0.21112  1.0000
  H   H745      1.0  0.38476  0.66182  0.31846  1.0000
  S   S172      1.0  0.43051  0.95387  0.34196  1.0000
  C   C631      1.0  0.39932  0.79764  0.31135  1.0000
  C   C632      1.0  0.40100  0.82944  0.30667  1.0000
  C   C633      1.0  0.41774  0.85724  0.33057  1.0000
  C   C634      1.0  0.43491  0.85475  0.35883  1.0000
  C   C635      1.0  0.41593  0.79469  0.33996  1.0000
  H   H746      1.0  0.38926  0.83281  0.28442  1.0000
  H   H747      1.0  0.41791  0.88102  0.32686  1.0000
  H   H748      1.0  0.27965  0.72497  0.41204  1.0000
  H   H749      1.0  0.30222  0.81440  0.31563  1.0000
  H   H750      1.0  0.32254  0.95358  0.30344  1.0000
  C   C636      1.0  0.43496  0.67859  0.30383  1.0000
  C   C637      1.0  0.33260  0.80898  0.23794  1.0000
  H   H751      1.0  0.33766  0.93332  0.25498  1.0000
  C   C638      1.0  0.24591  0.76589  0.25042  1.0000
  C   C639      1.0  0.48150  0.72446  0.41785  1.0000
  C   C640      1.0  0.29054  0.96730  0.22931  1.0000
  H   H752      1.0  0.42900  0.83531  0.22644  1.0000
  C   C641      1.0  0.29641  0.89150  0.34737  1.0000
  C   C642      1.0  0.29922  0.91594  0.37214  1.0000
  C   C643      1.0  0.27187  0.90967  0.39250  1.0000
  S   S173      1.0  0.41861  0.97158  0.18902  1.0000
  H   H753      1.0  0.39057  0.87733  0.40574  1.0000
  C   C644      1.0  0.26578  0.86095  0.34327  1.0000
  H   H754      1.0  0.32239  0.93965  0.37545  1.0000
  H   H755      1.0  0.27418  0.92878  0.41137  1.0000
  C   C645      1.0  0.48098  0.87074  0.22478  1.0000
  H   H756      1.0  0.26288  0.84166  0.32436  1.0000
  H   H757      1.0  0.28225  0.83639  0.26886  1.0000
  N   N41       1.0  0.46716  0.74710  0.41337  1.0000
  H   H758      1.0  0.28687  0.82611  0.38485  1.0000
  C   C646      1.0  0.36695  0.85370  0.40350  1.0000
  H   H759      1.0  0.47199  0.80870  0.43827  1.0000
  C   C647      1.0  0.43348  0.82293  0.36348  1.0000
  H   H760      1.0  0.41509  0.77060  0.34380  1.0000
  C   C648      1.0  0.36177  0.75785  0.42158  1.0000
  H   H761      1.0  0.26399  0.89804  0.23475  1.0000
  H   H762      1.0  0.32451  0.81053  0.00008  1.0000
  S   S174      1.0  0.45615  0.88938  0.39031  1.0000
  H   H763      1.0  0.33488  0.97368  0.00028  1.0000
  H   H764      1.0  0.35015  0.75946  0.35382  1.0000
  H   H765      1.0  0.27940  0.89986  0.27737  1.0000
  H   H766      1.0  0.43272  0.68859  0.27954  1.0000
  H   H767      1.0  0.24440  0.79119  0.01111  1.0000
  C   C649      1.0  0.41147  0.96450  0.98239  1.0000
  C   C650      1.0  0.31598  0.67991  0.10745  1.0000
  C   C651      1.0  0.46728  0.66743  0.34426  1.0000
  C   C652      1.0  0.46507  0.68101  0.31302  1.0000
  C   C653      1.0  0.28090  0.74370  0.26871  1.0000
  C   C654      1.0  0.30334  0.73219  0.42524  1.0000
  H   H768      1.0  0.34052  0.87986  0.39195  1.0000
  Fe  Fe89      1.0  0.48486  0.94988  0.38871  1.0000
  C   C655      1.0  0.33479  0.79047  0.40337  1.0000
  H   H769      1.0  0.43412  0.70186  0.46519  1.0000
  H   H770      1.0  0.32639  0.93168  0.44567  1.0000
  N   N42       1.0  0.30717  0.80754  0.26147  1.0000
  C   C656      1.0  0.32897  0.74226  0.36973  1.0000
  H   H771      1.0  0.25632  0.68910  0.27653  1.0000
  C   C657      1.0  0.34194  0.93827  0.46940  1.0000
  H   H772      1.0  0.35268  0.92111  0.46898  1.0000
  Fe  Fe90      1.0  0.42542  0.96508  0.24534  1.0000
  C   C658      1.0  0.45990  0.78707  0.45508  1.0000
  C   C659      1.0  0.45639  0.75441  0.44667  1.0000
  H   H773      1.0  0.30672  0.73920  0.35627  1.0000
  N   N43       1.0  0.36785  0.97515  0.47143  1.0000
  H   H774      1.0  0.31363  0.69225  0.13058  1.0000
  C   C660      1.0  0.45335  0.83862  0.22964  1.0000
  H   H775      1.0  0.32705  0.71651  0.36930  1.0000
  H   H776      1.0  0.44628  0.82035  0.38533  1.0000
  C   C661      1.0  0.28087  0.95526  0.19474  1.0000
  C   C662      1.0  0.30018  0.83495  0.25131  1.0000
  H   H777      1.0  0.32279  0.86087  0.25284  1.0000
  H   H778      1.0  0.37366  0.97635  0.41596  1.0000
  H   H779      1.0  0.30231  0.70713  0.42868  1.0000
  C   C663      1.0  0.31564  0.67564  0.04418  1.0000
  N   N44       1.0  0.33245  0.75642  0.40520  1.0000
  S   S175      1.0  0.31856  0.66118  0.30636  1.0000
  Fe  Fe91      1.0  0.45236  0.93550  0.30033  1.0000
  H   H780      1.0  0.32034  0.92917  0.21329  1.0000
  H   H781      1.0  0.28305  0.77032  0.38930  1.0000
  C   C664      1.0  0.27290  0.91412  0.25878  1.0000
  C   C665      1.0  0.45689  0.81098  0.23965  1.0000
  H   H782      1.0  0.30347  0.74320  0.45118  1.0000
  C   C666      1.0  0.27790  0.77253  0.25996  1.0000
  Fe  Fe92      1.0  0.26209  0.89365  0.00053  1.0000
  H   H783      1.0  0.25171  0.91542  0.26974  1.0000
  H   H784      1.0  0.25069  0.97946  0.34445  1.0000
  H   H785      1.0  0.38406  0.77198  0.40573  1.0000
  C   C667      1.0  0.36511  0.82194  0.40764  1.0000
  H   H786      1.0  0.29061  0.83088  0.22434  1.0000
  H   H787      1.0  0.38801  0.82288  0.41340  1.0000
  H   H788      1.0  0.45344  0.74857  0.22354  1.0000
  C   C668      1.0  0.24116  0.87913  0.38830  1.0000
  C   C669      1.0  0.35599  0.97088  0.99517  1.0000
  H   H789      1.0  0.32757  0.97955  0.42299  1.0000
  N   N45       1.0  0.30112  0.94899  0.25277  1.0000
  H   H790      1.0  0.35463  0.83528  0.23747  1.0000
  C   C670      1.0  0.23851  0.85472  0.36361  1.0000
  H   H791      1.0  0.40169  0.96878  0.43899  1.0000
  S   S176      1.0  0.40558  0.98716  0.28397  1.0000
  H   H792      1.0  0.46268  0.69738  0.42292  1.0000
  C   C671      1.0  0.43913  0.72776  0.47041  1.0000
  H   H793      1.0  0.35839  0.73163  0.42443  1.0000
  C   C672      1.0  0.32814  0.94553  0.23713  1.0000
  C   C673      1.0  0.30671  0.79297  0.39450  1.0000
  H   H794      1.0  0.28079  0.93254  0.18485  1.0000
  H   H795      1.0  0.44372  0.75737  0.28277  1.0000
  H   H796      1.0  0.30426  0.74662  0.27669  1.0000
  C   C674      1.0  0.32085  0.81579  0.29715  1.0000
  H   H797      1.0  0.34258  0.84225  0.29962  1.0000
  H   H798      1.0  0.32929  0.79808  0.30597  1.0000
  S   S177      1.0  0.31008  0.69031  0.00366  1.0000
  H   H799      1.0  0.48209  0.73643  0.23822  1.0000
  C   C675      1.0  0.43801  0.72915  0.39025  1.0000
  H   H800      1.0  0.42565  0.74444  0.38714  1.0000
  C   C676      1.0  0.27056  0.97197  0.17220  1.0000
  S   S178      1.0  0.25268  0.93265  0.02720  1.0000
  H   H801      1.0  0.41927  0.70392  0.40059  1.0000
  S   S179      1.0  0.47341  0.98522  0.27254  1.0000
  C   C677      1.0  0.31139  0.82125  0.98547  1.0000
  C   C678      1.0  0.33882  0.85517  0.39553  1.0000
  C   C679      1.0  0.24314  0.76697  0.00510  1.0000
  H   H802      1.0  0.44478  0.72400  0.36431  1.0000
  C   C680      1.0  0.31222  0.69090  0.07474  1.0000
  H   H803      1.0  0.37681  0.91001  0.97778  1.0000
  S   S180      1.0  0.25731  0.67061  0.36026  1.0000
  H   H804      1.0  0.34168  0.79151  0.24567  1.0000
  H   H805      1.0  0.25126  0.72833  0.33967  1.0000
  H   H806      1.0  0.34923  0.97112  0.23050  1.0000
  C   C681      1.0  0.40757  0.66314  0.32570  1.0000
  C   C682      1.0  0.31338  0.96690  0.28679  1.0000
  C   C683      1.0  0.30870  0.82488  0.39130  1.0000
  H   H807      1.0  0.47569  0.79078  0.30903  1.0000
  H   H808      1.0  0.29366  0.96796  0.30158  1.0000
  S   S181      1.0  0.46248  0.97648  0.41812  1.0000
  C   C684      1.0  0.47050  0.77060  0.28902  1.0000
  H   H809      1.0  0.24240  0.92147  0.32990  1.0000
  C   C685      1.0  0.38829  0.98326  0.44027  1.0000
  H   H810      1.0  0.43421  0.98602  0.11706  1.0000
  H   H811      1.0  0.36680  0.77024  0.44770  1.0000
  H   H812      1.0  0.47810  0.89242  0.21819  1.0000
  C   C686      1.0  0.25369  0.71046  0.26807  1.0000
  H   H813      1.0  0.24094  0.78608  0.24387  1.0000
  C   C687      1.0  0.47978  0.75883  0.23052  1.0000
  H   H814      1.0  0.47486  0.75090  0.30092  1.0000
  H   H815      1.0  0.29983  0.83050  0.00459  1.0000
  S   S182      1.0  0.31189  0.90058  0.98450  1.0000
  H   H816      1.0  0.24651  0.96405  0.45796  1.0000
  C   C688      1.0  0.37968  0.93513  0.98277  1.0000
  H   H817      1.0  0.47313  0.90575  0.46122  1.0000
  H   H818      1.0  0.48157  0.79432  0.38649  1.0000
  C   C689      1.0  0.23744  0.70291  0.99215  1.0000
  H   H819      1.0  0.43261  0.96176  0.97699  1.0000
  C   C690      1.0  0.26340  0.76442  0.97957  1.0000
  H   H820      1.0  0.24951  0.79112  0.92561  1.0000
  Fe  Fe93      1.0  0.35649  0.67884  0.88458  1.0000
  Fe  Fe94      1.0  0.31535  0.67638  0.94772  1.0000
  C   C691      1.0  0.46005  0.81311  0.79599  1.0000
  S   S183      1.0  0.46321  0.67574  0.64148  1.0000
  S   S184      1.0  0.40130  0.68927  0.64095  1.0000
  H   H821      1.0  0.42196  0.77044  0.53262  1.0000
  Fe  Fe95      1.0  0.44755  0.70808  0.67230  1.0000
  H   H822      1.0  0.25766  0.82020  0.96166  1.0000
  H   H823      1.0  0.26770  0.75867  0.79197  1.0000
  S   S185      1.0  0.28171  0.72063  0.84094  1.0000
  S   S186      1.0  0.40350  0.68658  0.85765  1.0000
  S   S187      1.0  0.34358  0.71692  0.90799  1.0000
  C   C692      1.0  0.34546  0.96630  0.90399  1.0000
  C   C693      1.0  0.44546  0.71909  0.85108  1.0000
  H   H824      1.0  0.34059  0.94388  0.91965  1.0000
  C   C694      1.0  0.23846  0.98795  0.87383  1.0000
  H   H825      1.0  0.32266  0.81167  0.92002  1.0000
  H   H826      1.0  0.32520  0.93131  0.49175  1.0000
  C   C695      1.0  0.43143  0.76608  0.50881  1.0000
  C   C696      1.0  0.39924  0.76064  0.81799  1.0000
  C   C697      1.0  0.26925  0.81042  0.94319  1.0000
  H   H827      1.0  0.33016  0.84466  0.97227  1.0000
  H   H828      1.0  0.36686  0.67548  0.75577  1.0000
  C   C698      1.0  0.38947  0.98008  0.50162  1.0000
  C   C699      1.0  0.27757  0.93808  0.84562  1.0000
  C   C700      1.0  0.46423  0.71268  0.82695  1.0000
  H   H829      1.0  0.33614  0.70647  0.73977  1.0000
  H   H830      1.0  0.36923  0.69130  0.79863  1.0000
  C   C701      1.0  0.42731  0.73374  0.50120  1.0000
  H   H831      1.0  0.37548  0.97284  0.52600  1.0000
  H   H832      1.0  0.35627  0.96390  0.87938  1.0000
  H   H833      1.0  0.40158  0.75780  0.71248  1.0000
  H   H834      1.0  0.23911  0.98259  0.90071  1.0000
  Fe  Fe96      1.0  0.29680  0.68989  0.87594  1.0000
  S   S188      1.0  0.47689  0.76705  0.67425  1.0000
  C   C702      1.0  0.48520  0.89649  0.47818  1.0000
  C   C703      1.0  0.46086  0.75038  0.86971  1.0000
  H   H835      1.0  0.38053  0.71210  0.70716  1.0000
  H   H836      1.0  0.37643  0.74035  0.82803  1.0000
  C   C704      1.0  0.25493  0.87409  0.87536  1.0000
  H   H837      1.0  0.28617  0.83297  0.92770  1.0000
  H   H838      1.0  0.29648  0.94920  0.94803  1.0000
  H   H839      1.0  0.45280  0.68847  0.81254  1.0000
  C   C705      1.0  0.43939  0.78646  0.77301  1.0000
  H   H840      1.0  0.28461  0.96188  0.83285  1.0000
  H   H841      1.0  0.27481  0.72690  0.95553  1.0000
  H   H842      1.0  0.42176  0.73395  0.72339  1.0000
  H   H843      1.0  0.32081  0.77825  0.94562  1.0000
  H   H844      1.0  0.40129  0.96398  0.49921  1.0000
  H   H845      1.0  0.44866  0.78760  0.74739  1.0000
  H   H846      1.0  0.28717  0.90122  0.91751  1.0000
  C   C706      1.0  0.35301  0.72749  0.75815  1.0000
  C   C707      1.0  0.41994  0.78758  0.84063  1.0000
  C   C708      1.0  0.39808  0.73386  0.72428  1.0000
  N   N46       1.0  0.38585  0.73033  0.76002  1.0000
  H   H847      1.0  0.44708  0.75564  0.88867  1.0000
  C   C709      1.0  0.40816  0.75937  0.78335  1.0000
  H   H848      1.0  0.40614  0.69964  0.77761  1.0000
  C   C710      1.0  0.38187  0.69786  0.77352  1.0000
  C   C711      1.0  0.25257  0.73519  0.84143  1.0000
  H   H849      1.0  0.34038  0.72131  0.78332  1.0000
  S   S189      1.0  0.42191  0.66799  0.71260  1.0000
  H   H850      1.0  0.35506  0.75193  0.74951  1.0000
  H   H851      1.0  0.46559  0.90613  0.52406  1.0000
  C   C712      1.0  0.30548  0.78807  0.93404  1.0000
  C   C713      1.0  0.25129  0.75379  0.81327  1.0000
  C   C714      1.0  0.24268  0.87603  0.84337  1.0000
  C   C715      1.0  0.25395  0.90792  0.82853  1.0000
  H   H852      1.0  0.41456  0.71299  0.51911  1.0000
  C   C716      1.0  0.44747  0.79261  0.48569  1.0000
  C   C717      1.0  0.29065  0.93704  0.87836  1.0000
  C   C718      1.0  0.30163  0.97092  0.93109  1.0000
  H   H853      1.0  0.41270  0.78764  0.86708  1.0000
  C   C719      1.0  0.27861  0.90405  0.89263  1.0000
  H   H854      1.0  0.24568  0.84918  0.88689  1.0000
  H   H855      1.0  0.24397  0.90941  0.80381  1.0000
  C   C720      1.0  0.45032  0.81371  0.82969  1.0000
  H   H856      1.0  0.46657  0.83419  0.84751  1.0000
  N   N47       1.0  0.28701  0.79529  0.96072  1.0000
  H   H857      1.0  0.27807  0.97078  0.92731  1.0000
  H   H858      1.0  0.45031  0.81767  0.49148  1.0000
  H   H859      1.0  0.28861  0.76901  0.91422  1.0000
  C   C721      1.0  0.26007  0.73144  0.97382  1.0000
  C   C722      1.0  0.48085  0.89649  0.51360  1.0000
  N   N48       1.0  0.31537  0.96836  0.89757  1.0000
  H   H860      1.0  0.48389  0.83325  0.78761  1.0000
  Fe  Fe97      1.0  0.54956  0.06236  0.05884  1.0000
  H   H861      1.0  0.53667  0.05385  0.18608  1.0000
  H   H862      1.0  0.55064  0.17803  0.47415  1.0000
  C   C723      1.0  0.63123  0.26757  0.99269  1.0000
  Fe  Fe98      1.0  0.63426  0.23703  0.28964  1.0000
  S   S190      1.0  0.62303  0.26634  0.32975  1.0000
  S   S191      1.0  0.66567  0.21085  0.28924  1.0000
  Fe  Fe99      1.0  0.60600  0.26107  0.23273  1.0000
  S   S192      1.0  0.59197  0.29109  0.26811  1.0000
  S   S193      1.0  0.59972  0.26151  0.17542  1.0000
  Fe  Fe100     1.0  0.57329  0.24545  0.30232  1.0000
  S   S194      1.0  0.52271  0.22940  0.32664  1.0000
  S   S195      1.0  0.65640  0.28265  0.25521  1.0000
  S   S196      1.0  0.58401  0.21363  0.26425  1.0000
  H   H863      1.0  0.64924  0.14566  0.11954  1.0000
  Fe  Fe101     1.0  0.58527  0.26772  0.41668  1.0000
  S   S197      1.0  0.56259  0.29497  0.44552  1.0000
  S   S198      1.0  0.55549  0.20758  0.40965  1.0000
  C   C724      1.0  0.50798  0.17250  0.18019  1.0000
  H   H864      1.0  0.69908  0.28766  0.44641  1.0000
  Fe  Fe102     1.0  0.51068  0.00893  0.44419  1.0000
  S   S199      1.0  0.52923  0.05077  0.40599  1.0000
  C   C725      1.0  0.64140  0.18774  0.13734  1.0000
  H   H865      1.0  0.67182  0.27912  0.39066  1.0000
  Fe  Fe103     1.0  0.55037  0.02101  0.37895  1.0000
  S   S200      1.0  0.60461  0.03838  0.36569  1.0000
  Fe  Fe104     1.0  0.64176  0.31101  0.29303  1.0000
  H   H866      1.0  0.60496  0.14091  0.20177  1.0000
  H   H867      1.0  0.51956  0.18656  0.15718  1.0000
  C   C726      1.0  0.61891  0.17930  0.42568  1.0000
  C   C727      1.0  0.65822  0.09185  0.28200  1.0000
  C   C728      1.0  0.63245  0.07515  0.30579  1.0000
  C   C729      1.0  0.63671  0.06031  0.33510  1.0000
  C   C730      1.0  0.66702  0.06163  0.33979  1.0000
  C   C731      1.0  0.69279  0.07816  0.31596  1.0000
  H   H868      1.0  0.60929  0.07391  0.30196  1.0000
  H   H869      1.0  0.67080  0.05005  0.36215  1.0000
  H   H870      1.0  0.66513  0.01766  0.44314  1.0000
  H   H871      1.0  0.65621  0.07809  0.41879  1.0000
  H   H872      1.0  0.71730  0.23285  0.36678  1.0000
  S   S201      1.0  0.63473  0.30836  0.98801  1.0000
  C   C732      1.0  0.51536  0.04178  0.13533  1.0000
  C   C733      1.0  0.51665  0.18974  0.21203  1.0000
  C   C734      1.0  0.70243  0.15193  0.35595  1.0000
  H   H873      1.0  0.61977  0.28843  0.10738  1.0000
  S   S202      1.0  0.62095  0.16063  0.98424  1.0000
  H   H874      1.0  0.67694  0.23340  0.21275  1.0000
  C   C735      1.0  0.65899  0.26385  0.99318  1.0000
  H   H875      1.0  0.61071  0.04248  0.18736  1.0000
  C   C736      1.0  0.67097  0.21471  0.19181  1.0000
  H   H876      1.0  0.63969  0.16913  0.06874  1.0000
  C   C737      1.0  0.67813  0.18678  0.31510  1.0000
  C   C738      1.0  0.66283  0.17168  0.34591  1.0000
  C   C739      1.0  0.67508  0.15462  0.36623  1.0000
  H   H877      1.0  0.61998  0.02131  0.03579  1.0000
  H   H878      1.0  0.61050  0.13591  0.45553  1.0000
  H   H879      1.0  0.64157  0.17304  0.35404  1.0000
  H   H880      1.0  0.66302  0.14303  0.38991  1.0000
  C   C740      1.0  0.64977  0.21204  0.16501  1.0000
  C   C741      1.0  0.51188  0.10473  0.34348  1.0000
  C   C742      1.0  0.50632  0.10516  0.37888  1.0000
  C   C743      1.0  0.51990  0.13648  0.39842  1.0000
  C   C744      1.0  0.53909  0.16862  0.38309  1.0000
  C   C745      1.0  0.54476  0.16843  0.34771  1.0000
  C   C746      1.0  0.53107  0.13701  0.32819  1.0000
  C   C747      1.0  0.50951  0.29098  0.27466  1.0000
  C   C748      1.0  0.51182  0.27080  0.20490  1.0000
  H   H881      1.0  0.55939  0.19263  0.33529  1.0000
  H   H882      1.0  0.53498  0.13792  0.30089  1.0000
  C   C749      1.0  0.68905  0.27178  0.37887  1.0000
  H   H883      1.0  0.65473  0.10401  0.25998  1.0000
  N   N49       1.0  0.64385  0.04685  0.46413  1.0000
  C   C750      1.0  0.68892  0.09402  0.28708  1.0000
  S   S203      1.0  0.72108  0.11642  0.25647  1.0000
  H   H884      1.0  0.56769  0.17050  0.10321  1.0000
  H   H885      1.0  0.63281  0.22382  0.39702  1.0000
  S   S204      1.0  0.51934  0.01361  0.02741  1.0000
  H   H886      1.0  0.61375  0.12637  0.29429  1.0000
  H   H887      1.0  0.65601  0.02556  0.19812  1.0000
  H   H888      1.0  0.71572  0.07884  0.32013  1.0000
  H   H889      1.0  0.59232  0.14958  0.29290  1.0000
  H   H890      1.0  0.66456  0.00578  0.30872  1.0000
  H   H891      1.0  0.69053  0.08018  0.43984  1.0000
  H   H892      1.0  0.55223  0.13779  0.24429  1.0000
  C   C751      1.0  0.70483  0.18326  0.30436  1.0000
  H   H893      1.0  0.71659  0.19407  0.28027  1.0000
  S   S205      1.0  0.53413  0.09450  0.02998  1.0000
  S   S206      1.0  0.62715  0.28625  0.45553  1.0000
  C   C752      1.0  0.63064  0.21981  0.09440  1.0000
  H   H894      1.0  0.50912  0.18545  0.26661  1.0000
  C   C753      1.0  0.66191  0.17387  0.45360  1.0000
  H   H895      1.0  0.57588  0.14717  0.13498  1.0000
  H   H896      1.0  0.70886  0.29577  0.36752  1.0000
  H   H897      1.0  0.57183  0.18219  0.99082  1.0000
  H   H898      1.0  0.53092  0.09340  0.25519  1.0000
  H   H899      1.0  0.54507  0.10555  0.21209  1.0000
  H   H900      1.0  0.61661  0.09823  0.19918  1.0000
  C   C754      1.0  0.51437  0.03951  0.17104  1.0000
  H   H901      1.0  0.65839  0.00540  0.06262  1.0000
  N   N50       1.0  0.61879  0.18541  0.10930  1.0000
  C   C755      1.0  0.61548  0.16152  0.08050  1.0000
  C   C756      1.0  0.58560  0.17301  0.12354  1.0000
  H   H902      1.0  0.53488  0.21693  0.21368  1.0000
  H   H903      1.0  0.57321  0.99202  0.22139  1.0000
  H   H904      1.0  0.62429  0.99219  0.45927  1.0000
  S   S207      1.0  0.72916  0.05300  0.40031  1.0000
  C   C757      1.0  0.64873  0.99587  0.03691  1.0000
  H   H905      1.0  0.60405  0.13443  0.08896  1.0000
  H   H906      1.0  0.63399  0.14724  0.23622  1.0000
  C   C758      1.0  0.68416  0.19307  0.19215  1.0000
  C   C759      1.0  0.67591  0.16839  0.16588  1.0000
  S   S208      1.0  0.49588  0.06523  0.31723  1.0000
  H   H907      1.0  0.70033  0.19501  0.21322  1.0000
  H   H908      1.0  0.54026  0.99795  0.26745  1.0000
  C   C760      1.0  0.68556  0.20526  0.44024  1.0000
  N   N51       1.0  0.70218  0.25748  0.40456  1.0000
  H   H909      1.0  0.59925  0.16119  0.05934  1.0000
  C   C761      1.0  0.48633  0.02277  0.11578  1.0000
  C   C762      1.0  0.62920  0.30258  0.16132  1.0000
  H   H910      1.0  0.51524  0.13569  0.42567  1.0000
  H   H911      1.0  0.65647  0.23112  0.08563  1.0000
  Fe  Fe105     1.0  0.57792  0.10808  0.99735  1.0000
  C   C763      1.0  0.71758  0.28300  0.43329  1.0000
  H   H912      1.0  0.62967  0.23839  0.11298  1.0000
  H   H913      1.0  0.61540  0.21851  0.07172  1.0000
  H   H914      1.0  0.54309  0.05291  0.27898  1.0000
  C   C764      1.0  0.63448  0.30865  0.12609  1.0000
  C   C765      1.0  0.71683  0.16600  0.32453  1.0000
  C   C766      1.0  0.62394  0.20116  0.99090  1.0000
  S   S209      1.0  0.61396  0.31393  0.38248  1.0000
  H   H915      1.0  0.60238  0.04421  0.43692  1.0000
  C   C767      1.0  0.50205  0.17201  0.24178  1.0000
  Fe  Fe106     1.0  0.50605  0.04668  0.99609  1.0000
  S   S210      1.0  0.59562  0.07928  0.02915  1.0000
  H   H916      1.0  0.59302  0.16912  0.41981  1.0000
  S   S211      1.0  0.55316  0.06911  0.11621  1.0000
  C   C768      1.0  0.66635  0.07805  0.44482  1.0000
  H   H917      1.0  0.57049  0.10520  0.30305  1.0000
  H   H918      1.0  0.68330  0.28642  0.99299  1.0000
  S   S212      1.0  0.71968  0.13431  0.38490  1.0000
  C   C769      1.0  0.67658  0.22441  0.41856  1.0000
  H   H919      1.0  0.67635  0.25314  0.35703  1.0000
  C   C770      1.0  0.64232  0.21089  0.41245  1.0000
  Fe  Fe107     1.0  0.56474  0.03361  0.99462  1.0000
  H   H920      1.0  0.72898  0.27457  0.45307  1.0000
  C   C771      1.0  0.65532  0.23078  0.99198  1.0000
  H   H921      1.0  0.61143  0.16928  0.23748  1.0000
  C   C772      1.0  0.57535  0.01681  0.22679  1.0000
  C   C773      1.0  0.65477  0.16553  0.13886  1.0000
  H   H922      1.0  0.63083  0.01358  0.41898  1.0000
  N   N52       1.0  0.58312  0.11527  0.24905  1.0000
  C   C774      1.0  0.55144  0.11289  0.23974  1.0000
  C   C775      1.0  0.59003  0.12424  0.28634  1.0000
  C   C776      1.0  0.60949  0.14427  0.23008  1.0000
  C   C777      1.0  0.58092  0.08178  0.24116  1.0000
  C   C778      1.0  0.59959  0.07737  0.21485  1.0000
  C   C779      1.0  0.55867  0.05189  0.25914  1.0000
  C   C780      1.0  0.59657  0.04527  0.20781  1.0000
  C   C781      1.0  0.55661  0.02015  0.25254  1.0000
  H   H923      1.0  0.63982  0.22911  0.16632  1.0000
  H   H924      1.0  0.71097  0.21431  0.44691  1.0000
  H   H925      1.0  0.68599  0.15133  0.16658  1.0000
  C   C782      1.0  0.62692  0.00496  0.02174  1.0000
  C   C783      1.0  0.59979  0.23793  0.99259  1.0000
  H   H926      1.0  0.53494  0.28595  0.21863  1.0000
  H   H927      1.0  0.67699  0.22819  0.99097  1.0000
  H   H928      1.0  0.72214  0.04832  0.01256  1.0000
  H   H929      1.0  0.60828  0.99837  0.30141  1.0000
  H   H930      1.0  0.51914  0.27299  0.27703  1.0000
  H   H931      1.0  0.58571  0.19085  0.14392  1.0000
  C   C784      1.0  0.62869  0.16068  0.44592  1.0000
  C   C785      1.0  0.61392  0.99263  0.98867  1.0000
  C   C786      1.0  0.61090  0.04387  0.46358  1.0000
  C   C787      1.0  0.59613  0.20481  0.99202  1.0000
  H   H932      1.0  0.50599  0.29763  0.30147  1.0000
  H   H933      1.0  0.67106  0.10191  0.45885  1.0000
  C   C788      1.0  0.64093  0.01626  0.44562  1.0000
  C   C789      1.0  0.51343  0.25879  0.17185  1.0000
  H   H934      1.0  0.52875  0.31534  0.26340  1.0000
  C   C790      1.0  0.64342  0.99973  0.20809  1.0000
  C   C791      1.0  0.63895  0.99513  0.24352  1.0000
  H   H935      1.0  0.64803  0.01806  0.25980  1.0000
  H   H936      1.0  0.53713  0.26490  0.16144  1.0000
  C   C792      1.0  0.72813  0.25334  0.38723  1.0000
  H   H937      1.0  0.66947  0.15944  0.46950  1.0000
  H   H938      1.0  0.48674  0.02473  0.08808  1.0000
  H   H939      1.0  0.55632  0.12747  0.47150  1.0000
  H   H940      1.0  0.49095  0.24603  0.38088  1.0000
  H   H941      1.0  0.49188  0.08118  0.39148  1.0000
  S   S213      1.0  0.50436  0.99012  0.34723  1.0000
  H   H942      1.0  0.73402  0.03448  0.05008  1.0000
  H   H943      1.0  0.57816  0.24059  0.99200  1.0000
  H   H944      1.0  0.59182  0.01914  0.47431  1.0000
  H   H945      1.0  0.61323  0.14574  0.86382  1.0000
  N   N53       1.0  0.56830  0.20479  0.70025  1.0000
  H   H946      1.0  0.50915  0.27119  0.76845  1.0000
  H   H947      1.0  0.68335  0.15582  0.90963  1.0000
  C   C793      1.0  0.54780  0.22489  0.56246  1.0000
  H   H948      1.0  0.65354  0.31584  0.55828  1.0000
  S   S214      1.0  0.55284  0.04837  0.73048  1.0000
  H   H949      1.0  0.59809  0.05710  0.79373  1.0000
  C   C794      1.0  0.55251  0.00478  0.58140  1.0000
  C   C795      1.0  0.61088  0.31462  0.57972  1.0000
  H   H950      1.0  0.59713  0.23953  0.88378  1.0000
  S   S215      1.0  0.71040  0.29822  0.84477  1.0000
  H   H951      1.0  0.61536  0.23625  0.92374  1.0000
  C   C796      1.0  0.67172  0.07732  0.92921  1.0000
  H   H952      1.0  0.69315  0.05409  0.59218  1.0000
  S   S216      1.0  0.55229  0.24374  0.82488  1.0000
  S   S217      1.0  0.63301  0.27036  0.77701  1.0000
  H   H953      1.0  0.68972  0.07669  0.91116  1.0000
  Fe  Fe108     1.0  0.57859  0.02128  0.70703  1.0000
  C   C797      1.0  0.55981  0.23187  0.70821  1.0000
  H   H954      1.0  0.56566  0.08891  0.87350  1.0000
  Fe  Fe109     1.0  0.64788  0.03257  0.69377  1.0000
  H   H955      1.0  0.57472  0.23437  0.56265  1.0000
  S   S218      1.0  0.70093  0.07587  0.68810  1.0000
  C   C798      1.0  0.65699  0.04894  0.49941  1.0000
  H   H956      1.0  0.58733  0.12465  0.75519  1.0000
  S   S219      1.0  0.61277  0.04186  0.66241  1.0000
  H   H957      1.0  0.65086  0.05049  0.93146  1.0000
  C   C799      1.0  0.54642  0.16400  0.49755  1.0000
  C   C800      1.0  0.49832  0.09147  0.70090  1.0000
  C   C801      1.0  0.48740  0.20764  0.84487  1.0000
  H   H958      1.0  0.64927  0.11311  0.96787  1.0000
  H   H959      1.0  0.62079  0.23795  0.70532  1.0000
  H   H960      1.0  0.73301  0.01916  0.97218  1.0000
  H   H961      1.0  0.72324  0.04178  0.73637  1.0000
  N   N54       1.0  0.66076  0.10117  0.91734  1.0000
  C   C802      1.0  0.65087  0.04524  0.56231  1.0000
  H   H962      1.0  0.69635  0.05179  0.85324  1.0000
  H   H963      1.0  0.57536  0.24938  0.72960  1.0000
  C   C803      1.0  0.70250  0.05760  0.53769  1.0000
  H   H964      1.0  0.72762  0.06301  0.54089  1.0000
  H   H965      1.0  0.64059  0.26350  0.89061  1.0000
  C   C804      1.0  0.56692  0.18473  0.73064  1.0000
  H   H966      1.0  0.53098  0.10821  0.57764  1.0000
  H   H967      1.0  0.55854  0.01329  0.60802  1.0000
  C   C805      1.0  0.51463  0.24047  0.83897  1.0000
  H   H968      1.0  0.57761  0.31300  0.89170  1.0000
  H   H969      1.0  0.54164  0.24962  0.50492  1.0000
  H   H970      1.0  0.53157  0.29474  0.84012  1.0000
  H   H971      1.0  0.62573  0.11609  0.93297  1.0000
  H   H972      1.0  0.70159  0.14463  0.94375  1.0000
  C   C806      1.0  0.61481  0.05717  0.87916  1.0000
  H   H973      1.0  0.56086  0.19202  0.91226  1.0000
  C   C807      1.0  0.56508  0.11180  0.88169  1.0000
  C   C808      1.0  0.52879  0.00648  0.52637  1.0000
  S   S220      1.0  0.59277  0.31611  0.53967  1.0000
  S   S221      1.0  0.51056  0.02349  0.49989  1.0000
  C   C809      1.0  0.72156  0.26556  0.84368  1.0000
  C   C810      1.0  0.54827  0.16435  0.78903  1.0000
  H   H974      1.0  0.61251  0.03739  0.52822  1.0000
  C   C811      1.0  0.54542  0.11552  0.52475  1.0000
  Fe  Fe110     1.0  0.67441  0.30715  0.81221  1.0000
  H   H975      1.0  0.70546  0.05894  0.48312  1.0000
  C   C812      1.0  0.61819  0.23821  0.89537  1.0000
  H   H976      1.0  0.53870  0.19991  0.76434  1.0000
  C   C813      1.0  0.57802  0.14236  0.75733  1.0000
  C   C814      1.0  0.53083  0.06267  0.70474  1.0000
  C   C815      1.0  0.53705  0.17381  0.52860  1.0000
  C   C816      1.0  0.65839  0.00830  0.82476  1.0000
  C   C817      1.0  0.65128  0.21143  0.89515  1.0000
  C   C818      1.0  0.53568  0.12407  0.55538  1.0000
  H   H977      1.0  0.54204  0.04744  0.65617  1.0000
  H   H978      1.0  0.57729  0.30774  0.93801  1.0000
  H   H979      1.0  0.54411  0.19482  0.65060  1.0000
  C   C819      1.0  0.54457  0.18099  0.67383  1.0000
  H   H980      1.0  0.51914  0.16727  0.68408  1.0000
  C   C820      1.0  0.63813  0.31294  0.64491  1.0000
  H   H981      1.0  0.60408  0.23981  0.66447  1.0000
  H   H982      1.0  0.70948  0.13795  0.90035  1.0000
  C   C821      1.0  0.51111  0.26930  0.84469  1.0000
  Fe  Fe111     1.0  0.60592  0.31527  0.48254  1.0000
  C   C822      1.0  0.61097  0.06597  0.81841  1.0000
  H   H983      1.0  0.49010  0.21143  0.53634  1.0000
  C   C823      1.0  0.63781  0.04344  0.52939  1.0000
  H   H984      1.0  0.48970  0.18509  0.84067  1.0000
  C   C824      1.0  0.63722  0.10133  0.94255  1.0000
  H   H985      1.0  0.60411  0.04048  0.90081  1.0000
  S   S222      1.0  0.50986  0.26296  0.68205  1.0000
  C   C825      1.0  0.67837  0.02455  0.85357  1.0000
  N   N55       1.0  0.53151  0.20343  0.53102  1.0000
  H   H986      1.0  0.60837  0.20386  0.67346  1.0000
  H   H987      1.0  0.61710  0.07499  0.94823  1.0000
  C   C826      1.0  0.54433  0.22653  0.50124  1.0000
  C   C827      1.0  0.64025  0.09739  0.82116  1.0000
  H   H988      1.0  0.53179  0.30970  0.91488  1.0000
  H   H989      1.0  0.53538  0.16474  0.81201  1.0000
  S   S223      1.0  0.58647  0.00354  0.96834  1.0000
  C   C828      1.0  0.67582  0.00555  0.88246  1.0000
  H   H990      1.0  0.53348  0.22078  0.71505  1.0000
  Fe  Fe112     1.0  0.60132  0.28745  0.80514  1.0000
  H   H991      1.0  0.54477  0.24792  0.56412  1.0000
  H   H992      1.0  0.62856  0.19405  0.82954  1.0000
  H   H993      1.0  0.57577  0.02118  0.84500  1.0000
  C   C829      1.0  0.49355  0.30805  0.76108  1.0000
  C   C830      1.0  0.64438  0.08938  0.88308  1.0000
  C   C831      1.0  0.49776  0.08875  0.66493  1.0000
  C   C832      1.0  0.52994  0.05964  0.66881  1.0000
  C   C833      1.0  0.51263  0.30375  0.67964  1.0000
  C   C834      1.0  0.65685  0.10909  0.85291  1.0000
  H   H994      1.0  0.67950  0.13357  0.85301  1.0000
  H   H995      1.0  0.64620  0.23922  0.83680  1.0000
  H   H996      1.0  0.51459  0.13494  0.92107  1.0000
  H   H997      1.0  0.65031  0.11266  0.79840  1.0000
  C   C835      1.0  0.65417  0.31398  0.61402  1.0000
  H   H998      1.0  0.51228  0.06912  0.62144  1.0000
  C   C836      1.0  0.68962  0.05555  0.50461  1.0000
  S   S224      1.0  0.61505  0.01514  0.74001  1.0000
  C   C837      1.0  0.58007  0.16236  0.72931  1.0000
  H   H999      1.0  0.57095  0.23596  0.49755  1.0000
  C   C838      1.0  0.53713  0.10849  0.89753  1.0000
  C   C839      1.0  0.71722  0.21255  0.82045  1.0000
  C   C840      1.0  0.55018  0.13507  0.49573  1.0000
  C   C841      1.0  0.55050  0.18473  0.76129  1.0000
  H   H1000     1.0  0.65898  0.19512  0.88076  1.0000
  H   H1001     1.0  0.57142  0.31269  0.60971  1.0000
  H   H1002     1.0  0.56333  0.24825  0.68566  1.0000
  C   C842      1.0  0.68998  0.13641  0.91761  1.0000
  C   C843      1.0  0.56200  0.14323  0.78707  1.0000
  S   S225      1.0  0.54921  0.06323  0.96043  1.0000
  H   H1003     1.0  0.52166  0.15658  0.58113  1.0000
  C   C844      1.0  0.49571  0.19027  0.53260  1.0000
  C   C845      1.0  0.59223  0.14444  0.87647  1.0000
  C   C846      1.0  0.60175  0.22215  0.68538  1.0000
  H   H1004     1.0  0.55036  0.16086  0.66531  1.0000
  C   C847      1.0  0.68319  0.05255  0.56651  1.0000
  H   H1005     1.0  0.67267  0.23812  0.89463  1.0000
  C   C848      1.0  0.56327  0.17053  0.90323  1.0000
  H   H1006     1.0  0.51612  0.08317  0.90180  1.0000
  H   H1007     1.0  0.64776  0.20355  0.92247  1.0000
  H   H1008     1.0  0.66063  0.02314  0.80221  1.0000
  N   N56       1.0  0.62096  0.20908  0.88045  1.0000
  C   C849      1.0  0.53630  0.13774  0.90839  1.0000
  C   C850      1.0  0.59218  0.17485  0.88709  1.0000
  C   C851      1.0  0.62468  0.21382  0.84280  1.0000
  H   H1009     1.0  0.63564  0.04058  0.58475  1.0000
  H   H1010     1.0  0.60250  0.21267  0.83097  1.0000
  H   H1011     1.0  0.51431  0.07988  0.74843  1.0000
  C   C852      1.0  0.53688  0.01779  0.56074  1.0000
  C   C853      1.0  0.59839  0.04581  0.84731  1.0000
  H   H1012     1.0  0.54852  0.09322  0.52332  1.0000
  C   C854      1.0  0.53091  0.15232  0.55723  1.0000
  H   H1013     1.0  0.59088  0.15900  0.70615  1.0000
  C   C855      1.0  0.70809  0.23809  0.81964  1.0000
  H   H1014     1.0  0.55928  0.12663  0.80813  1.0000
  H   H1015     1.0  0.69195  0.01811  0.90458  1.0000
  C   C856      1.0  0.59469  0.31326  0.61062  1.0000
  S   S226      1.0  0.65679  0.31254  0.68498  1.0000
  H   H1016     1.0  0.53112  0.03653  0.57139  1.0000
  H   H1017     1.0  0.53743  0.21112  0.58659  1.0000
  C   C857      1.0  0.72423  0.00657  0.61926  1.0000
  H   H1018     1.0  0.69088  0.23665  0.80018  1.0000
  Fe  Fe113     1.0  0.64705  0.31549  0.74262  1.0000
  C   C858      1.0  0.51440  0.07807  0.72065  1.0000
  H   H1019     1.0  0.70677  0.19161  0.80154  1.0000
  C   C859      1.0  0.51324  0.07230  0.64912  1.0000
  H   H1020     1.0  0.67737  0.31440  0.61510  1.0000
  H   H1021     1.0  0.59527  0.31114  0.66629  1.0000
  H   H1022     1.0  0.68374  0.08515  0.95518  1.0000
  H   H1023     1.0  0.61107  0.06553  0.47809  1.0000
  C   C860      1.0  0.60816  0.31238  0.64294  1.0000
  C   C861      1.0  0.64069  0.31481  0.58167  1.0000
  C   C862      1.0  0.48828  0.27519  0.76664  1.0000
  H   H1024     1.0  0.48628  0.10373  0.71355  1.0000
  H   H1025     1.0  0.53081  0.21376  0.47682  1.0000
  H   H1026     1.0  0.61431  0.32262  0.91471  1.0000
  S   S227      1.0  0.64213  0.32188  0.84213  1.0000
  C   C863      1.0  0.63446  0.62426  0.45217  1.0000
  H   H1027     1.0  0.66907  0.43482  0.18127  1.0000
  C   C864      1.0  0.69333  0.43258  0.37575  1.0000
  S   S228      1.0  0.67575  0.37000  0.29032  1.0000
  C   C865      1.0  0.54032  0.44968  0.09444  1.0000
  S   S229      1.0  0.63604  0.36306  0.45230  1.0000
  Fe  Fe114     1.0  0.59361  0.34172  0.41374  1.0000
  S   S230      1.0  0.57983  0.38276  0.39839  1.0000
  S   S231      1.0  0.69453  0.47629  0.97781  1.0000
  H   H1028     1.0  0.66315  0.44275  0.45177  1.0000
  C   C866      1.0  0.67812  0.36739  0.13886  1.0000
  H   H1029     1.0  0.62299  0.48657  0.40284  1.0000
  H   H1030     1.0  0.63401  0.60600  0.43198  1.0000
  C   C867      1.0  0.49186  0.52197  0.18947  1.0000
  C   C868      1.0  0.68207  0.40307  0.35417  1.0000
  C   C869      1.0  0.68999  0.40626  0.31931  1.0000
  C   C870      1.0  0.70978  0.43954  0.30657  1.0000
  C   C871      1.0  0.72119  0.46915  0.32816  1.0000
  C   C872      1.0  0.68446  0.59395  0.30135  1.0000
  Fe  Fe115     1.0  0.57023  0.60340  0.99187  1.0000
  H   H1031     1.0  0.64615  0.46504  0.40775  1.0000
  C   C873      1.0  0.51254  0.40202  0.32424  1.0000
  C   C874      1.0  0.52937  0.42423  0.35226  1.0000
  C   C875      1.0  0.54903  0.41747  0.37489  1.0000
  C   C876      1.0  0.55273  0.38849  0.36993  1.0000
  C   C877      1.0  0.53719  0.36700  0.34113  1.0000
  C   C878      1.0  0.51780  0.37409  0.31829  1.0000
  H   H1032     1.0  0.52697  0.44648  0.35685  1.0000
  H   H1033     1.0  0.56123  0.43486  0.39654  1.0000
  H   H1034     1.0  0.71564  0.44229  0.27963  1.0000
  S   S232      1.0  0.71125  0.35392  0.41850  1.0000
  S   S233      1.0  0.56336  0.48357  0.99793  1.0000
  H   H1035     1.0  0.54431  0.55608  0.18730  1.0000
  Fe  Fe116     1.0  0.67990  0.35882  0.00512  1.0000
  H   H1036     1.0  0.66449  0.65438  0.20512  1.0000
  S   S234      1.0  0.50072  0.48899  0.35247  1.0000
  H   H1037     1.0  0.61149  0.43294  0.45460  1.0000
  S   S235      1.0  0.51561  0.54518  0.41314  1.0000
  C   C879      1.0  0.48982  0.60066  0.38616  1.0000
  C   C880      1.0  0.65365  0.57943  0.08828  1.0000
  Fe  Fe117     1.0  0.54360  0.52178  0.38743  1.0000
  S   S236      1.0  0.60034  0.54639  0.38164  1.0000
  N   N57       1.0  0.64102  0.48869  0.45449  1.0000
  S   S237      1.0  0.52647  0.47900  0.42519  1.0000
  C   C881      1.0  0.71179  0.51215  0.07009  1.0000
  C   C882      1.0  0.65190  0.58458  0.29184  1.0000
  C   C883      1.0  0.62579  0.56967  0.31560  1.0000
  C   C884      1.0  0.63168  0.56357  0.34942  1.0000
  C   C885      1.0  0.66395  0.57180  0.35853  1.0000
  C   C886      1.0  0.69006  0.58687  0.33485  1.0000
  H   H1038     1.0  0.60122  0.56345  0.30791  1.0000
  H   H1039     1.0  0.66907  0.56729  0.38445  1.0000
  Fe  Fe118     1.0  0.49872  0.50207  0.44948  1.0000
  H   H1040     1.0  0.64691  0.58935  0.26596  1.0000
  H   H1041     1.0  0.55622  0.45918  0.07233  1.0000
  C   C887      1.0  0.50742  0.59876  0.35785  1.0000
  H   H1042     1.0  0.66750  0.37786  0.36465  1.0000
  C   C888      1.0  0.53721  0.62890  0.35051  1.0000
  C   C889      1.0  0.71273  0.46582  0.36291  1.0000
  H   H1043     1.0  0.55193  0.62831  0.32949  1.0000
  H   H1044     1.0  0.71471  0.59358  0.34267  1.0000
  C   C890      1.0  0.52116  0.54455  0.17317  1.0000
  H   H1045     1.0  0.68210  0.49822  0.31918  1.0000
  C   C891      1.0  0.58788  0.62136  0.42322  1.0000
  H   H1046     1.0  0.73036  0.50400  0.06618  1.0000
  H   H1047     1.0  0.69178  0.49638  0.05114  1.0000
  H   H1048     1.0  0.48977  0.54352  0.09389  1.0000
  S   S238      1.0  0.72095  0.36746  0.04105  1.0000
  C   C892      1.0  0.60349  0.45642  0.00761  1.0000
  H   H1049     1.0  0.57680  0.56426  0.45169  1.0000
  H   H1050     1.0  0.48958  0.46239  0.20258  1.0000
  H   H1051     1.0  0.54207  0.40299  0.09667  1.0000
  H   H1052     1.0  0.61204  0.51368  0.45053  1.0000
  C   C893      1.0  0.50094  0.63169  0.40564  1.0000
  H   H1053     1.0  0.70168  0.50458  0.09636  1.0000
  H   H1054     1.0  0.49651  0.47228  0.14621  1.0000
  H   H1055     1.0  0.64410  0.43692  0.33517  1.0000
  C   C894      1.0  0.64804  0.32923  0.18522  1.0000
  N   N58       1.0  0.63186  0.46671  0.30159  1.0000
  C   C895      1.0  0.65804  0.47825  0.98381  1.0000
  H   H1056     1.0  0.66272  0.52130  0.04059  1.0000
  H   H1057     1.0  0.64395  0.64151  0.38310  1.0000
  C   C896      1.0  0.63204  0.45406  0.00330  1.0000
  Fe  Fe119     1.0  0.65497  0.33299  0.42249  1.0000
  N   N59       1.0  0.60122  0.61959  0.45742  1.0000
  C   C897      1.0  0.53196  0.36016  0.47414  1.0000
  C   C898      1.0  0.66825  0.64011  0.98901  1.0000
  H   H1058     1.0  0.68736  0.38168  0.19271  1.0000
  H   H1059     1.0  0.60188  0.41523  0.32000  1.0000
  H   H1060     1.0  0.60807  0.61992  0.22691  1.0000
  C   C899      1.0  0.64161  0.45735  0.26870  1.0000
  C   C900      1.0  0.64131  0.42578  0.26330  1.0000
  C   C901      1.0  0.65197  0.48023  0.24078  1.0000
  C   C902      1.0  0.65114  0.41800  0.23212  1.0000
  C   C903      1.0  0.66176  0.47217  0.20965  1.0000
  C   C904      1.0  0.66140  0.44111  0.20534  1.0000
  H   H1061     1.0  0.68685  0.42944  0.40262  1.0000
  Fe  Fe120     1.0  0.54811  0.57059  0.06094  1.0000
  C   C905      1.0  0.50635  0.45662  0.13669  1.0000
  S   S239      1.0  0.49395  0.56002  0.33114  1.0000
  S   S240      1.0  0.70913  0.40779  0.12510  1.0000
  H   H1062     1.0  0.50242  0.64807  0.24985  1.0000
  Fe  Fe121     1.0  0.71122  0.40598  0.06756  1.0000
  C   C906      1.0  0.60289  0.47097  0.29578  1.0000
  H   H1063     1.0  0.62179  0.53763  0.05375  1.0000
  H   H1064     1.0  0.63412  0.40669  0.28292  1.0000
  H   H1065     1.0  0.65278  0.50469  0.24298  1.0000
  H   H1066     1.0  0.65102  0.39388  0.22901  1.0000
  C   C907      1.0  0.49055  0.53710  0.12041  1.0000
  C   C908      1.0  0.63507  0.51746  0.46308  1.0000
  Fe  Fe122     1.0  0.70420  0.43600  0.00131  1.0000
  H   H1067     1.0  0.58317  0.43698  0.02192  1.0000
  Fe  Fe123     1.0  0.55371  0.52864  0.00215  1.0000
  H   H1068     1.0  0.50650  0.35770  0.29602  1.0000
  N   N60       1.0  0.72611  0.54973  0.06550  1.0000
  C   C909      1.0  0.64438  0.48773  0.41664  1.0000
  H   H1069     1.0  0.66711  0.51106  0.40813  1.0000
  H   H1070     1.0  0.70985  0.35963  0.34337  1.0000
  H   H1071     1.0  0.66546  0.52167  0.29879  1.0000
  C   C910      1.0  0.67854  0.46544  0.46751  1.0000
  S   S241      1.0  0.71646  0.61279  0.26988  1.0000
  H   H1072     1.0  0.59461  0.47751  0.32022  1.0000
  H   H1073     1.0  0.65337  0.50662  0.34113  1.0000
  H   H1074     1.0  0.58713  0.60192  0.40437  1.0000
  S   S242      1.0  0.58997  0.57894  0.02758  1.0000
  C   C911      1.0  0.70097  0.61312  0.98505  1.0000
  C   C912      1.0  0.62306  0.44054  0.32838  1.0000
  H   H1075     1.0  0.65528  0.54241  0.45381  1.0000
  C   C913      1.0  0.66972  0.54257  0.05845  1.0000
  H   H1076     1.0  0.61546  0.44790  0.35259  1.0000
  C   C914      1.0  0.64613  0.55192  0.06569  1.0000
  C   C915      1.0  0.65936  0.49965  0.31565  1.0000
  H   H1077     1.0  0.60818  0.49212  0.27796  1.0000
  S   S243      1.0  0.53114  0.59891  0.02759  1.0000
  H   H1078     1.0  0.71454  0.54432  0.01102  1.0000
  C   C916      1.0  0.70160  0.56020  0.07392  1.0000
  H   H1079     1.0  0.69073  0.61924  0.12104  1.0000
  C   C917      1.0  0.52055  0.55188  0.13852  1.0000
  S   S244      1.0  0.66768  0.39449  0.03449  1.0000
  H   H1080     1.0  0.51541  0.62133  0.27007  1.0000
  C   C918      1.0  0.73497  0.36878  0.35123  1.0000
  S   S245      1.0  0.55740  0.57881  0.11791  1.0000
  H   H1081     1.0  0.58158  0.44685  0.28499  1.0000
  S   S246      1.0  0.51256  0.51857  0.03830  1.0000
  H   H1082     1.0  0.69302  0.63503  0.38830  1.0000
  C   C919      1.0  0.67258  0.36145  0.17403  1.0000
  H   H1083     1.0  0.60622  0.36107  0.97706  1.0000
  H   H1084     1.0  0.58557  0.64038  0.23990  1.0000
  H   H1085     1.0  0.71046  0.62198  0.01186  1.0000
  C   C920      1.0  0.65894  0.34096  0.11489  1.0000
  H   H1086     1.0  0.49277  0.51681  0.21610  1.0000
  H   H1087     1.0  0.59557  0.63899  0.19507  1.0000
  H   H1088     1.0  0.56227  0.61646  0.42484  1.0000
  H   H1089     1.0  0.52059  0.60257  0.21227  1.0000
  C   C921      1.0  0.49349  0.62204  0.26015  1.0000
  C   C922      1.0  0.52760  0.46905  0.10887  1.0000
  H   H1090     1.0  0.63365  0.43326  0.01478  1.0000
  C   C923      1.0  0.69372  0.65498  0.37270  1.0000
  C   C924      1.0  0.70866  0.58847  0.09652  1.0000
  C   C925      1.0  0.68490  0.59776  0.10352  1.0000
  C   C926      1.0  0.61154  0.45624  0.46480  1.0000
  H   H1091     1.0  0.73230  0.60381  0.10923  1.0000
  Fe  Fe124     1.0  0.49803  0.54699  0.00185  1.0000
  C   C927      1.0  0.60487  0.64244  0.22215  1.0000
  H   H1092     1.0  0.63518  0.58648  0.09404  1.0000
  H   H1093     1.0  0.67882  0.58703  0.98663  1.0000
  C   C928      1.0  0.49759  0.42455  0.15149  1.0000
  H   H1094     1.0  0.54071  0.34534  0.33625  1.0000
  H   H1095     1.0  0.66285  0.34526  0.08765  1.0000
  H   H1096     1.0  0.58831  0.45410  0.45481  1.0000
  H   H1097     1.0  0.53857  0.34712  0.45476  1.0000
  S   S247      1.0  0.72440  0.50193  0.39118  1.0000
  C   C929      1.0  0.49734  0.60142  0.20407  1.0000
  H   H1098     1.0  0.53393  0.49374  0.09824  1.0000
  C   C930      1.0  0.53220  0.41801  0.10817  1.0000
  C   C931      1.0  0.73587  0.55777  0.02912  1.0000
  H   H1099     1.0  0.49268  0.38143  0.20409  1.0000
  H   H1100     1.0  0.51220  0.44303  0.21855  1.0000
  H   H1101     1.0  0.66971  0.49017  0.18881  1.0000
  C   C932      1.0  0.51121  0.40549  0.13635  1.0000
  H   H1102     1.0  0.60307  0.64689  0.41149  1.0000
  H   H1103     1.0  0.64375  0.32525  0.21243  1.0000
  H   H1104     1.0  0.50583  0.38074  0.14557  1.0000
  C   C933      1.0  0.51258  0.37411  0.46471  1.0000
  C   C934      1.0  0.60090  0.48352  0.99345  1.0000
  H   H1105     1.0  0.73117  0.35627  0.19629  1.0000
  H   H1106     1.0  0.64343  0.61721  0.98461  1.0000
  H   H1107     1.0  0.48943  0.56128  0.25741  1.0000
  H   H1108     1.0  0.50378  0.62620  0.19190  1.0000
  H   H1109     1.0  0.65204  0.65078  0.44389  1.0000
  C   C935      1.0  0.67079  0.49202  0.47154  1.0000
  H   H1110     1.0  0.67413  0.64256  0.01708  1.0000
  C   C936      1.0  0.57970  0.58462  0.47064  1.0000
  H   H1111     1.0  0.50454  0.37229  0.43807  1.0000
  H   H1112     1.0  0.65031  0.65171  0.26698  1.0000
  S   S248      1.0  0.48654  0.40890  0.29476  1.0000
  H   H1113     1.0  0.48630  0.63225  0.42669  1.0000
  C   C937      1.0  0.48753  0.43768  0.20951  1.0000
  H   H1114     1.0  0.73566  0.49454  0.31777  1.0000
  H   H1115     1.0  0.56925  0.38910  0.69385  1.0000
  H   H1116     1.0  0.65869  0.39337  0.58312  1.0000
  C   C938      1.0  0.67679  0.43645  0.66158  1.0000
  C   C939      1.0  0.62715  0.50816  0.97446  1.0000
  H   H1117     1.0  0.50000  0.57579  0.51982  1.0000
  H   H1118     1.0  0.64056  0.37872  0.88835  1.0000
  H   H1119     1.0  0.72358  0.61362  0.72829  1.0000
  H   H1120     1.0  0.56357  0.63758  0.65694  1.0000
  Fe  Fe125     1.0  0.65567  0.36359  0.80359  1.0000
  S   S249      1.0  0.66251  0.41564  0.82180  1.0000
  N   N61       1.0  0.54768  0.38382  0.56982  1.0000
  H   H1121     1.0  0.55094  0.40888  0.61902  1.0000
  Fe  Fe126     1.0  0.56617  0.46271  0.67889  1.0000
  H   H1122     1.0  0.68762  0.58191  0.92673  1.0000
  H   H1123     1.0  0.65204  0.43125  0.74481  1.0000
  S   S250      1.0  0.57944  0.58584  0.67305  1.0000
  C   C940      1.0  0.72109  0.52369  0.50717  1.0000
  H   H1124     1.0  0.67014  0.45032  0.56296  1.0000
  H   H1125     1.0  0.55475  0.58029  0.47637  1.0000
  H   H1126     1.0  0.72078  0.61115  0.97150  1.0000
  C   C941      1.0  0.48807  0.33987  0.67323  1.0000
  H   H1127     1.0  0.55006  0.43201  0.58264  1.0000
  H   H1128     1.0  0.69359  0.39377  0.69534  1.0000
  H   H1129     1.0  0.67527  0.52395  0.95400  1.0000
  H   H1130     1.0  0.54179  0.35078  0.61201  1.0000
  H   H1131     1.0  0.65367  0.45973  0.71275  1.0000
  C   C942      1.0  0.68089  0.47347  0.61380  1.0000
  H   H1132     1.0  0.50579  0.33636  0.58525  1.0000
  C   C943      1.0  0.65524  0.60683  0.86362  1.0000
  H   H1133     1.0  0.56420  0.33140  0.69356  1.0000
  C   C944      1.0  0.51837  0.36966  0.68111  1.0000
  H   H1134     1.0  0.64480  0.61945  0.47574  1.0000
  H   H1135     1.0  0.62518  0.52872  0.96280  1.0000
  C   C945      1.0  0.60308  0.64562  0.48271  1.0000
  C   C946      1.0  0.72801  0.46862  0.81736  1.0000
  H   H1136     1.0  0.51386  0.59234  0.60361  1.0000
  S   S251      1.0  0.71394  0.39975  0.96914  1.0000
  H   H1137     1.0  0.61013  0.45458  0.49333  1.0000
  C   C947      1.0  0.61813  0.38066  0.89248  1.0000
  Fe  Fe127     1.0  0.58820  0.54000  0.67249  1.0000
  S   S252      1.0  0.56032  0.49364  0.63761  1.0000
  H   H1138     1.0  0.66553  0.56564  0.86866  1.0000
  Fe  Fe128     1.0  0.63882  0.51820  0.69180  1.0000
  S   S253      1.0  0.61361  0.46964  0.65883  1.0000
  S   S254      1.0  0.68426  0.53018  0.72415  1.0000
  Fe  Fe129     1.0  0.60970  0.50377  0.62057  1.0000
  S   S255      1.0  0.61591  0.49710  0.56462  1.0000
  S   S256      1.0  0.63780  0.55263  0.65160  1.0000
  S   S257      1.0  0.59114  0.50876  0.71586  1.0000
  C   C948      1.0  0.53297  0.51072  0.52322  1.0000
  C   C949      1.0  0.53692  0.48363  0.51105  1.0000
  C   C950      1.0  0.56352  0.48054  0.52238  1.0000
  C   C951      1.0  0.58568  0.50398  0.54676  1.0000
  C   C952      1.0  0.58143  0.53076  0.55966  1.0000
  C   C953      1.0  0.55508  0.53423  0.54779  1.0000
  H   H1139     1.0  0.63105  0.40218  0.95749  1.0000
  H   H1140     1.0  0.56596  0.45911  0.51343  1.0000
  H   H1141     1.0  0.59825  0.54858  0.57911  1.0000
  H   H1142     1.0  0.55219  0.55527  0.55737  1.0000
  H   H1143     1.0  0.59670  0.41910  0.93744  1.0000
  C   C954      1.0  0.70666  0.46799  0.48287  1.0000
  H   H1144     1.0  0.70459  0.57853  0.78103  1.0000
  H   H1145     1.0  0.59580  0.42457  0.55651  1.0000
  H   H1146     1.0  0.51306  0.39405  0.59666  1.0000
  H   H1147     1.0  0.62703  0.41442  0.70621  1.0000
  H   H1148     1.0  0.60309  0.37172  0.86824  1.0000
  C   C955      1.0  0.68330  0.46867  0.64895  1.0000
  C   C956      1.0  0.50881  0.62320  0.49971  1.0000
  H   H1149     1.0  0.51882  0.46442  0.49362  1.0000
  H   H1150     1.0  0.51837  0.32948  0.75863  1.0000
  C   C957      1.0  0.69617  0.45846  0.82837  1.0000
  C   C958      1.0  0.51413  0.62036  0.67420  1.0000
  H   H1151     1.0  0.64717  0.64987  0.86623  1.0000
  C   C959      1.0  0.66561  0.41447  0.60156  1.0000
  C   C960      1.0  0.51479  0.56098  0.69410  1.0000
  C   C961      1.0  0.54273  0.58750  0.67892  1.0000
  H   H1152     1.0  0.68945  0.54306  0.49632  1.0000
  C   C962      1.0  0.53999  0.40563  0.59277  1.0000
  C   C963      1.0  0.58405  0.39960  0.56990  1.0000
  C   C964      1.0  0.54298  0.36308  0.50821  1.0000
  H   H1153     1.0  0.63238  0.51965  0.49132  1.0000
  H   H1154     1.0  0.68538  0.49820  0.60495  1.0000
  H   H1155     1.0  0.51389  0.64304  0.66603  1.0000
  C   C965      1.0  0.65160  0.43433  0.71640  1.0000
  C   C966      1.0  0.69067  0.48288  0.84579  1.0000
  C   C967      1.0  0.51414  0.39323  0.52386  1.0000
  H   H1156     1.0  0.72014  0.40355  0.88041  1.0000
  C   C968      1.0  0.53313  0.34928  0.58495  1.0000
  C   C969      1.0  0.66970  0.60895  0.75919  1.0000
  C   C970      1.0  0.59152  0.32432  0.91632  1.0000
  H   H1157     1.0  0.51485  0.53808  0.70205  1.0000
  H   H1158     1.0  0.72728  0.57352  0.66774  1.0000
  H   H1159     1.0  0.64156  0.36967  0.95243  1.0000
  S   S258      1.0  0.52022  0.41000  0.68501  1.0000
  N   N62       1.0  0.67831  0.43169  0.69909  1.0000
  C   C971      1.0  0.54217  0.61714  0.66898  1.0000
  C   C972      1.0  0.56948  0.36369  0.92618  1.0000
  C   C973      1.0  0.62026  0.37397  0.95364  1.0000
  S   S259      1.0  0.69099  0.35164  0.77639  1.0000
  C   C974      1.0  0.51401  0.65166  0.93456  1.0000
  H   H1160     1.0  0.66619  0.47539  0.85448  1.0000
  C   C975      1.0  0.67441  0.39782  0.70767  1.0000
  H   H1161     1.0  0.59455  0.40479  0.59658  1.0000
  H   H1162     1.0  0.62681  0.40859  0.89589  1.0000
  H   H1163     1.0  0.73131  0.45920  0.70023  1.0000
  H   H1164     1.0  0.55780  0.35161  0.51412  1.0000
  C   C976      1.0  0.53691  0.33537  0.92161  1.0000
  C   C977      1.0  0.69301  0.52138  0.49190  1.0000
  C   C978      1.0  0.64073  0.61019  0.75521  1.0000
  C   C979      1.0  0.61584  0.64778  0.51647  1.0000
  H   H1165     1.0  0.64974  0.37614  0.69968  1.0000
  C   C980      1.0  0.68037  0.62649  0.93205  1.0000
  H   H1166     1.0  0.50390  0.55734  0.57377  1.0000
  C   C981      1.0  0.50537  0.65203  0.50413  1.0000
  H   H1167     1.0  0.71195  0.53514  0.86617  1.0000
  C   C982      1.0  0.54598  0.36644  0.68736  1.0000
  C   C983      1.0  0.57276  0.39623  0.93432  1.0000
  H   H1168     1.0  0.71349  0.48482  0.71299  1.0000
  H   H1169     1.0  0.67049  0.58750  0.74702  1.0000
  C   C984      1.0  0.66668  0.58804  0.88112  1.0000
  H   H1170     1.0  0.48802  0.40076  0.48200  1.0000
  H   H1171     1.0  0.58960  0.57991  0.49460  1.0000
  N   N63       1.0  0.59911  0.36039  0.92220  1.0000
  C   C985      1.0  0.65540  0.50526  0.96934  1.0000
  H   H1172     1.0  0.71189  0.59960  0.82248  1.0000
  C   C986      1.0  0.51368  0.37175  0.93415  1.0000
  H   H1173     1.0  0.49242  0.37488  0.93730  1.0000
  H   H1174     1.0  0.62403  0.63032  0.52434  1.0000
  H   H1175     1.0  0.68952  0.49027  0.66629  1.0000
  S   S260      1.0  0.60404  0.65061  0.96091  1.0000
  H   H1176     1.0  0.64522  0.59910  0.83767  1.0000
  H   H1177     1.0  0.67642  0.39561  0.73592  1.0000
  C   C987      1.0  0.72789  0.49708  0.50269  1.0000
  H   H1178     1.0  0.61590  0.63834  0.76622  1.0000
  H   H1179     1.0  0.66254  0.38403  0.64364  1.0000
  H   H1180     1.0  0.52083  0.62061  0.47700  1.0000
  H   H1181     1.0  0.71282  0.45471  0.74183  1.0000
  H   H1182     1.0  0.62019  0.59024  0.74019  1.0000
  C   C988      1.0  0.67922  0.59766  0.91479  1.0000
  S   S261      1.0  0.50179  0.51633  0.50567  1.0000
  S   S262      1.0  0.53639  0.55323  0.96320  1.0000
  H   H1183     1.0  0.59212  0.38273  0.55727  1.0000
  C   C989      1.0  0.67209  0.44645  0.59015  1.0000
  C   C990      1.0  0.69736  0.63523  0.77773  1.0000
  C   C991      1.0  0.72208  0.60184  0.79630  1.0000
  C   C992      1.0  0.63830  0.63736  0.76979  1.0000
  C   C993      1.0  0.72764  0.55462  0.71823  1.0000
  C   C994      1.0  0.54302  0.33365  0.68703  1.0000
  C   C995      1.0  0.66787  0.40939  0.63668  1.0000
  C   C996      1.0  0.53499  0.38035  0.53406  1.0000
  C   C997      1.0  0.71038  0.45869  0.71400  1.0000
  C   C998      1.0  0.49655  0.59751  0.52424  1.0000
  S   S263      1.0  0.61239  0.32982  0.76799  1.0000
  C   C999      1.0  0.71662  0.51686  0.85253  1.0000
  N   N64       1.0  0.72828  0.63414  0.78009  1.0000
  C   C1000     1.0  0.50341  0.39027  0.48958  1.0000
  H   H1184     1.0  0.71251  0.45182  0.89650  1.0000
  C   C1001     1.0  0.65633  0.63537  0.87969  1.0000
  C   C1002     1.0  0.54523  0.40004  0.93848  1.0000
  H   H1185     1.0  0.54839  0.42515  0.94509  1.0000
  C   C1003     1.0  0.66866  0.64507  0.91336  1.0000
  H   H1186     1.0  0.71216  0.44747  0.47889  1.0000
  H   H1187     1.0  0.72665  0.36056  0.90388  1.0000
  C   C1004     1.0  0.49342  0.56741  0.59330  1.0000
  C   C1005     1.0  0.48705  0.56459  0.70010  1.0000
  N   N65       1.0  0.69306  0.63737  0.96782  1.0000
  C   C1006     1.0  0.50953  0.33954  0.92559  1.0000
  H   H1188     1.0  0.50629  0.40634  0.54167  1.0000
  H   H1189     1.0  0.73204  0.64799  0.49379  1.0000
  H   H1190     1.0  0.73281  0.45025  0.80416  1.0000
  H   H1191     1.0  0.53972  0.33208  0.57038  1.0000
  C   C1007     1.0  0.48955  0.65520  0.53295  1.0000
  C   C1008     1.0  0.48658  0.59433  0.69037  1.0000
  H   H1192     1.0  0.53475  0.65116  0.94619  1.0000
  H   H1193     1.0  0.71348  0.88506  0.36724  1.0000
  H   H1194     1.0  0.71761  0.78121  0.40679  1.0000
  Fe  Fe130     1.0  0.61598  0.72260  0.32277  1.0000
  S   S264      1.0  0.58350  0.74435  0.33791  1.0000
  S   S265      1.0  0.63423  0.69481  0.35752  1.0000
  Fe  Fe131     1.0  0.61949  0.74011  0.24448  1.0000
  S   S266      1.0  0.58593  0.76368  0.25751  1.0000
  S   S267      1.0  0.65161  0.73736  0.16441  1.0000
  Fe  Fe132     1.0  0.61636  0.78924  0.30487  1.0000
  S   S268      1.0  0.62388  0.84306  0.31703  1.0000
  Fe  Fe133     1.0  0.55389  0.71898  0.29049  1.0000
  H   H1195     1.0  0.65054  0.67459  0.17517  1.0000
  S   S269      1.0  0.65081  0.76933  0.29429  1.0000
  S   S270      1.0  0.58324  0.69346  0.27744  1.0000
  H   H1196     1.0  0.66127  0.71046  0.42710  1.0000
  Fe  Fe134     1.0  0.64991  0.82400  0.43011  1.0000
  S   S271      1.0  0.63443  0.85808  0.45810  1.0000
  Fe  Fe135     1.0  0.57935  0.76032  0.43009  1.0000
  S   S272      1.0  0.56014  0.79111  0.45845  1.0000
  S   S273      1.0  0.54227  0.70118  0.42263  1.0000
  Fe  Fe136     1.0  0.58935  0.83473  0.42267  1.0000
  S   S274      1.0  0.56904  0.86992  0.40404  1.0000
  Fe  Fe137     1.0  0.69627  0.86032  0.99434  1.0000
  S   S275      1.0  0.60689  0.80351  0.39281  1.0000
  H   H1197     1.0  0.49430  0.72283  0.39440  1.0000
  H   H1198     1.0  0.57960  0.90541  0.29698  1.0000
  H   H1199     1.0  0.49107  0.84983  0.30640  1.0000
  H   H1200     1.0  0.71348  0.84609  0.29726  1.0000
  N   N66       1.0  0.62010  0.95783  0.29549  1.0000
  H   H1201     1.0  0.53362  0.90059  0.22650  1.0000
  C   C1009     1.0  0.68284  0.77576  0.14685  1.0000
  C   C1010     1.0  0.71322  0.79583  0.16397  1.0000
  C   C1011     1.0  0.71495  0.71966  0.46058  1.0000
  C   C1012     1.0  0.72988  0.83913  0.12034  1.0000
  C   C1013     1.0  0.70057  0.81800  0.10205  1.0000
  C   C1014     1.0  0.67705  0.78640  0.11532  1.0000
  C   C1015     1.0  0.61224  0.93335  0.23416  1.0000
  N   N67       1.0  0.49129  0.78560  0.25833  1.0000
  H   H1202     1.0  0.69574  0.82601  0.07782  1.0000
  H   H1203     1.0  0.65403  0.77055  0.10151  1.0000
  H   H1204     1.0  0.67470  0.69703  0.26660  1.0000
  C   C1016     1.0  0.52552  0.79516  0.26820  1.0000
  C   C1017     1.0  0.49210  0.77872  0.39613  1.0000
  C   C1018     1.0  0.66077  0.88331  0.32375  1.0000
  C   C1019     1.0  0.66331  0.90513  0.35162  1.0000
  C   C1020     1.0  0.68990  0.93937  0.35451  1.0000
  H   H1205     1.0  0.60864  0.69680  0.02019  1.0000
  H   H1206     1.0  0.64430  0.89563  0.37082  1.0000
  H   H1207     1.0  0.66705  0.75255  0.43456  1.0000
  C   C1021     1.0  0.66727  0.68662  0.35260  1.0000
  H   H1208     1.0  0.59704  0.97037  0.33676  1.0000
  H   H1209     1.0  0.50258  0.77269  0.37314  1.0000
  S   S276      1.0  0.68520  0.96367  0.04025  1.0000
  C   C1022     1.0  0.69573  0.70837  0.33457  1.0000
  Fe  Fe138     1.0  0.70468  0.92786  0.02455  1.0000
  H   H1210     1.0  0.69719  0.72989  0.32113  1.0000
  S   S277      1.0  0.70268  0.83443  0.42054  1.0000
  H   H1211     1.0  0.51315  0.79536  0.41374  1.0000
  C   C1023     1.0  0.62213  0.71221  0.99862  1.0000
  H   H1212     1.0  0.65983  0.72526  0.47009  1.0000
  S   S278      1.0  0.49871  0.70063  0.28414  1.0000
  C   C1024     1.0  0.50894  0.89976  0.32964  1.0000
  C   C1025     1.0  0.53035  0.92261  0.35516  1.0000
  C   C1026     1.0  0.54813  0.91301  0.37757  1.0000
  C   C1027     1.0  0.54580  0.88056  0.37449  1.0000
  C   C1028     1.0  0.52555  0.85813  0.34796  1.0000
  C   C1029     1.0  0.50730  0.86765  0.32598  1.0000
  H   H1213     1.0  0.53367  0.94805  0.35714  1.0000
  H   H1214     1.0  0.56409  0.93116  0.39729  1.0000
  H   H1215     1.0  0.52391  0.83345  0.34449  1.0000
  C   C1030     1.0  0.63574  0.74853  0.00014  1.0000
  C   C1031     1.0  0.67266  0.73313  0.44520  1.0000
  C   C1032     1.0  0.72357  0.76143  0.41533  1.0000
  C   C1033     1.0  0.51231  0.87530  0.22971  1.0000
  C   C1034     1.0  0.65300  0.97773  0.31238  1.0000
  C   C1035     1.0  0.65987  0.67618  0.20198  1.0000
  H   H1216     1.0  0.57114  0.68237  0.36387  1.0000
  C   C1036     1.0  0.72292  0.70307  0.33550  1.0000
  H   H1217     1.0  0.63208  0.76067  0.02269  1.0000
  C   C1037     1.0  0.62353  0.96180  0.25774  1.0000
  H   H1218     1.0  0.68244  0.88044  0.27629  1.0000
  H   H1219     1.0  0.71860  0.78705  0.18748  1.0000
  C   C1038     1.0  0.61649  0.93825  0.19866  1.0000
  H   H1220     1.0  0.72873  0.94070  0.28067  1.0000
  H   H1221     1.0  0.54107  0.85331  0.24387  1.0000
  C   C1039     1.0  0.68493  0.89637  0.29859  1.0000
  H   H1222     1.0  0.52678  0.77305  0.27890  1.0000
  N   N68       1.0  0.70861  0.74704  0.44895  1.0000
  C   C1040     1.0  0.73497  0.88224  0.36876  1.0000
  H   H1223     1.0  0.58182  0.66951  0.45021  1.0000
  H   H1224     1.0  0.62024  0.90992  0.29806  1.0000
  C   C1041     1.0  0.50578  0.88544  0.46460  1.0000
  H   H1225     1.0  0.66629  0.66306  0.98288  1.0000
  H   H1226     1.0  0.63573  0.97499  0.15817  1.0000
  S   S279      1.0  0.53262  0.98005  0.41913  1.0000
  C   C1042     1.0  0.71373  0.95255  0.32890  1.0000
  C   C1043     1.0  0.72214  0.67649  0.35477  1.0000
  C   C1044     1.0  0.60539  0.92165  0.30658  1.0000
  H   H1227     1.0  0.60799  0.91626  0.18107  1.0000
  S   S280      1.0  0.68498  0.87498  0.04594  1.0000
  H   H1228     1.0  0.67020  0.96983  0.30174  1.0000
  H   H1229     1.0  0.49006  0.66868  0.35139  1.0000
  H   H1230     1.0  0.57342  0.95600  0.29720  1.0000
  C   C1045     1.0  0.64919  0.67552  0.26243  1.0000
  C   C1046     1.0  0.53018  0.66199  0.39760  1.0000
  H   H1231     1.0  0.54211  0.80352  0.24573  1.0000
  H   H1232     1.0  0.63365  0.67721  0.28294  1.0000
  C   C1047     1.0  0.71103  0.93071  0.30105  1.0000
  C   C1048     1.0  0.59885  0.97119  0.30818  1.0000
  H   H1233     1.0  0.53596  0.81593  0.28849  1.0000
  H   H1234     1.0  0.69139  0.95578  0.37601  1.0000
  N   N69       1.0  0.63622  0.67550  0.22753  1.0000
  H   H1235     1.0  0.71913  0.79762  0.46597  1.0000
  H   H1236     1.0  0.60044  0.90713  0.24257  1.0000
  C   C1049     1.0  0.66625  0.65945  0.37071  1.0000
  C   C1050     1.0  0.63267  0.70620  0.22332  1.0000
  C   C1051     1.0  0.60218  0.70383  0.20561  1.0000
  C   C1052     1.0  0.66211  0.74220  0.23092  1.0000
  C   C1053     1.0  0.60162  0.73592  0.19569  1.0000
  C   C1054     1.0  0.66127  0.77440  0.22097  1.0000
  C   C1055     1.0  0.63126  0.77120  0.20313  1.0000
  H   H1237     1.0  0.68403  0.70042  0.20406  1.0000
  S   S281      1.0  0.62299  0.77979  0.46653  1.0000
  C   C1056     1.0  0.65769  0.97418  0.01939  1.0000
  H   H1238     1.0  0.50920  0.88578  0.43694  1.0000
  H   H1239     1.0  0.49965  0.73367  0.43945  1.0000
  H   H1240     1.0  0.60436  0.91989  0.33519  1.0000
  C   C1057     1.0  0.73319  0.70809  0.44098  1.0000
  H   H1241     1.0  0.65187  0.97415  0.34073  1.0000
  H   H1242     1.0  0.53829  0.86658  0.47462  1.0000
  H   H1243     1.0  0.58120  0.67948  0.19779  1.0000
  H   H1244     1.0  0.68480  0.74552  0.24152  1.0000
  H   H1245     1.0  0.58070  0.73370  0.18158  1.0000
  H   H1246     1.0  0.68261  0.79965  0.22546  1.0000
  H   H1247     1.0  0.63139  0.79403  0.19454  1.0000
  C   C1058     1.0  0.73587  0.85958  0.39231  1.0000
  C   C1059     1.0  0.51617  0.84786  0.24001  1.0000
  H   H1248     1.0  0.72891  0.88430  0.24738  1.0000
  C   C1060     1.0  0.64503  0.96214  0.98611  1.0000
  H   H1249     1.0  0.71375  0.74122  0.39473  1.0000
  C   C1061     1.0  0.73303  0.84881  0.28047  1.0000
  C   C1062     1.0  0.54836  0.65996  0.37010  1.0000
  H   H1250     1.0  0.73396  0.68059  0.99403  1.0000
  C   C1063     1.0  0.48837  0.81494  0.24607  1.0000
  S   S282      1.0  0.48699  0.91156  0.29937  1.0000
  H   H1251     1.0  0.49432  0.76921  0.20676  1.0000
  C   C1064     1.0  0.63214  0.97134  0.18567  1.0000
  C   C1065     1.0  0.72221  0.77593  0.47468  1.0000
  C   C1066     1.0  0.59210  0.66909  0.47506  1.0000
  H   H1252     1.0  0.70975  0.76836  0.49983  1.0000
  H   H1253     1.0  0.65150  0.93321  0.62682  1.0000
  H   H1254     1.0  0.55390  0.75893  0.75197  1.0000
  C   C1067     1.0  0.51550  0.83726  0.67726  1.0000
  C   C1068     1.0  0.60733  0.69506  0.53232  1.0000
  H   H1255     1.0  0.53901  0.89240  0.59113  1.0000
  H   H1256     1.0  0.60926  0.71422  0.55104  1.0000
  H   H1257     1.0  0.58495  0.71032  0.49327  1.0000
  H   H1258     1.0  0.68119  0.97894  0.58682  1.0000
  H   H1259     1.0  0.50972  0.78597  0.74314  1.0000
  H   H1260     1.0  0.49744  0.67692  0.70545  1.0000
  C   C1069     1.0  0.63602  0.97291  0.82458  1.0000
  H   H1261     1.0  0.53701  0.74932  0.90485  1.0000
  Fe  Fe139     1.0  0.66211  0.79445  0.81801  1.0000
  S   S283      1.0  0.64876  0.83173  0.84287  1.0000
  S   S284      1.0  0.67649  0.76128  0.84939  1.0000
  Fe  Fe140     1.0  0.64087  0.80378  0.74632  1.0000
  S   S285      1.0  0.62569  0.84113  0.76562  1.0000
  S   S286      1.0  0.64298  0.78653  0.69104  1.0000
  Fe  Fe141     1.0  0.67264  0.86504  0.79741  1.0000
  S   S287      1.0  0.70622  0.92321  0.79323  1.0000
  Fe  Fe142     1.0  0.60229  0.80542  0.81002  1.0000
  S   S288      1.0  0.55572  0.79993  0.83567  1.0000
  S   S289      1.0  0.68937  0.82982  0.77506  1.0000
  S   S290      1.0  0.61416  0.76607  0.78848  1.0000
  S   S291      1.0  0.59783  0.82080  0.54895  1.0000
  Fe  Fe143     1.0  0.59182  0.96146  0.71605  1.0000
  H   H1262     1.0  0.71885  0.69169  0.95687  1.0000
  C   C1070     1.0  0.63155  0.79782  0.65183  1.0000
  C   C1071     1.0  0.64052  0.78897  0.62037  1.0000
  C   C1072     1.0  0.63099  0.79631  0.58859  1.0000
  C   C1073     1.0  0.61209  0.81237  0.58798  1.0000
  C   C1074     1.0  0.60324  0.82135  0.61945  1.0000
  C   C1075     1.0  0.61295  0.81420  0.65119  1.0000
  H   H1263     1.0  0.65481  0.77619  0.62061  1.0000
  H   H1264     1.0  0.63797  0.78927  0.56464  1.0000
  H   H1265     1.0  0.58832  0.83343  0.61930  1.0000
  H   H1266     1.0  0.60539  0.82065  0.67508  1.0000
  C   C1076     1.0  0.49429  0.77484  0.86414  1.0000
  C   C1077     1.0  0.62435  0.69597  0.96826  1.0000
  H   H1267     1.0  0.67884  0.88774  0.71786  1.0000
  H   H1268     1.0  0.73023  0.83190  0.84240  1.0000
  S   S292      1.0  0.71282  0.91268  0.97162  1.0000
  C   C1078     1.0  0.70283  0.70376  0.49263  1.0000
  H   H1269     1.0  0.73309  0.97741  0.90990  1.0000
  C   C1079     1.0  0.51309  0.76839  0.84017  1.0000
  Fe  Fe144     1.0  0.60557  0.81282  0.49209  1.0000
  H   H1270     1.0  0.69446  0.89731  0.67494  1.0000
  H   H1271     1.0  0.49916  0.81017  0.53820  1.0000
  H   H1272     1.0  0.69506  0.96030  0.73814  1.0000
  C   C1080     1.0  0.67056  0.94276  0.72618  1.0000
  H   H1273     1.0  0.64287  0.70427  0.91681  1.0000
  S   S293      1.0  0.55291  0.96619  0.68723  1.0000
  H   H1274     1.0  0.54591  0.89270  0.67762  1.0000
  C   C1081     1.0  0.55846  0.75839  0.72392  1.0000
  C   C1082     1.0  0.69143  0.90886  0.69930  1.0000
  C   C1083     1.0  0.72230  0.98159  0.67445  1.0000
  H   H1275     1.0  0.53731  0.81641  0.55493  1.0000
  H   H1276     1.0  0.66588  0.76673  0.91943  1.0000
  H   H1277     1.0  0.50357  0.70168  0.74425  1.0000
  H   H1278     1.0  0.49362  0.88754  0.56295  1.0000
  H   H1279     1.0  0.58485  0.69565  0.61057  1.0000
  C   C1084     1.0  0.59400  0.69313  0.49971  1.0000
  H   H1280     1.0  0.58105  0.91268  0.54412  1.0000
  H   H1281     1.0  0.65645  0.92302  0.74563  1.0000
  C   C1085     1.0  0.53101  0.86548  0.58265  1.0000
  H   H1282     1.0  0.58721  0.87838  0.55776  1.0000
  H   H1283     1.0  0.72132  0.81119  0.94174  1.0000
  H   H1284     1.0  0.71770  0.85753  0.93128  1.0000
  C   C1086     1.0  0.63871  0.90042  0.68248  1.0000
  H   H1285     1.0  0.58529  0.77374  0.71993  1.0000
  C   C1087     1.0  0.50905  0.70369  0.71625  1.0000
  C   C1088     1.0  0.57269  0.88488  0.53984  1.0000
  H   H1286     1.0  0.57735  0.76160  0.89077  1.0000
  H   H1287     1.0  0.56162  0.72211  0.57236  1.0000
  H   H1288     1.0  0.58699  0.71965  0.72694  1.0000
  H   H1289     1.0  0.53310  0.75062  0.59754  1.0000
  H   H1290     1.0  0.71360  0.68376  0.80681  1.0000
  H   H1291     1.0  0.66852  0.66704  0.92495  1.0000
  H   H1292     1.0  0.50556  0.83586  0.65177  1.0000
  C   C1089     1.0  0.62332  0.97142  0.97085  1.0000
  C   C1090     1.0  0.52233  0.87458  0.48645  1.0000
  H   H1293     1.0  0.54824  0.73270  0.96218  1.0000
  C   C1091     1.0  0.55127  0.87193  0.72503  1.0000
  C   C1092     1.0  0.55977  0.70604  0.72991  1.0000
  C   C1093     1.0  0.50525  0.80680  0.69522  1.0000
  H   H1294     1.0  0.70949  0.87137  0.89200  1.0000
  C   C1094     1.0  0.51822  0.68077  0.91654  1.0000
  H   H1295     1.0  0.70008  0.66691  0.52931  1.0000
  C   C1095     1.0  0.65491  0.75207  0.94212  1.0000
  H   H1296     1.0  0.55063  0.84291  0.76896  1.0000
  H   H1297     1.0  0.54283  0.73007  0.86607  1.0000
  N   N70       1.0  0.60999  0.91497  0.85208  1.0000
  C   C1096     1.0  0.60876  0.89764  0.88471  1.0000
  C   C1097     1.0  0.57608  0.90754  0.84413  1.0000
  C   C1098     1.0  0.62019  0.89913  0.82462  1.0000
  C   C1099     1.0  0.63301  0.95264  0.85345  1.0000
  C   C1100     1.0  0.69002  0.95378  0.66737  1.0000
  H   H1298     1.0  0.55829  0.95133  0.52225  1.0000
  S   S294      1.0  0.62777  0.97885  0.67292  1.0000
  C   C1101     1.0  0.55197  0.73913  0.89285  1.0000
  H   H1299     1.0  0.65171  0.94545  0.97234  1.0000
  H   H1300     1.0  0.60086  0.90803  0.90659  1.0000
  H   H1301     1.0  0.59091  0.86940  0.88276  1.0000
  H   H1302     1.0  0.63302  0.90027  0.89128  1.0000
  H   H1303     1.0  0.56798  0.92030  0.86341  1.0000
  H   H1304     1.0  0.55807  0.87935  0.84391  1.0000
  H   H1305     1.0  0.57387  0.91634  0.81824  1.0000
  H   H1306     1.0  0.64568  0.90442  0.82944  1.0000
  H   H1307     1.0  0.60357  0.87076  0.82283  1.0000
  H   H1308     1.0  0.61965  0.90896  0.79878  1.0000
  H   H1309     1.0  0.70819  0.92717  0.86900  1.0000
  C   C1102     1.0  0.52630  0.82683  0.53677  1.0000
  H   H1310     1.0  0.49650  0.71663  0.70489  1.0000
  H   H1311     1.0  0.61330  0.96173  0.94533  1.0000
  H   H1312     1.0  0.69068  0.71733  0.88921  1.0000
  C   C1103     1.0  0.69397  0.66252  0.79245  1.0000
  C   C1104     1.0  0.72162  0.95803  0.82381  1.0000
  C   C1105     1.0  0.54096  0.84147  0.74326  1.0000
  H   H1313     1.0  0.51173  0.73144  0.80320  1.0000
  C   C1106     1.0  0.71712  0.85370  0.90291  1.0000
  C   C1107     1.0  0.51875  0.87459  0.52277  1.0000
  H   H1314     1.0  0.62787  0.67338  0.56641  1.0000
  N   N71       1.0  0.53677  0.86324  0.54534  1.0000
  H   H1315     1.0  0.62146  0.96139  0.80136  1.0000
  H   H1316     1.0  0.54529  0.85719  0.59885  1.0000
  C   C1108     1.0  0.70900  0.67827  0.50447  1.0000
  H   H1317     1.0  0.53394  0.82358  0.51058  1.0000
  S   S295      1.0  0.58038  0.91250  0.74392  1.0000
  C   C1109     1.0  0.65370  0.97010  0.88250  1.0000
  S   S296      1.0  0.58034  0.96469  0.59198  1.0000
  H   H1318     1.0  0.66299  0.68474  0.79963  1.0000
  C   C1110     1.0  0.70988  0.75309  0.84801  1.0000
  C   C1111     1.0  0.71037  0.72969  0.87121  1.0000
  C   C1112     1.0  0.64171  0.71639  0.94066  1.0000
  H   H1319     1.0  0.62628  0.88087  0.70258  1.0000
  C   C1113     1.0  0.51783  0.80906  0.72856  1.0000
  H   H1320     1.0  0.54936  0.67857  0.72174  1.0000
  H   H1321     1.0  0.63855  0.88624  0.65864  1.0000
  C   C1114     1.0  0.55092  0.72343  0.67244  1.0000
  C   C1115     1.0  0.56830  0.70835  0.65717  1.0000
  C   C1116     1.0  0.53877  0.73900  0.64979  1.0000
  C   C1117     1.0  0.57161  0.70744  0.62145  1.0000
  C   C1118     1.0  0.54246  0.73826  0.61416  1.0000
  C   C1119     1.0  0.55857  0.72223  0.59997  1.0000
  H   H1322     1.0  0.50576  0.79881  0.87892  1.0000
  H   H1323     1.0  0.69734  0.82687  0.89625  1.0000
  H   H1324     1.0  0.57975  0.69721  0.67225  1.0000
  C   C1120     1.0  0.49776  0.73705  0.82155  1.0000
  N   N72       1.0  0.54489  0.72280  0.70995  1.0000
  H   H1325     1.0  0.52595  0.75161  0.65939  1.0000
  H   H1326     1.0  0.68870  0.71117  0.50886  1.0000
  H   H1327     1.0  0.62293  0.91198  0.67826  1.0000
  C   C1121     1.0  0.49729  0.88573  0.53574  1.0000
  H   H1328     1.0  0.50467  0.84864  0.58906  1.0000
  H   H1329     1.0  0.54754  0.77227  0.71124  1.0000
  C   C1122     1.0  0.67586  0.95323  0.63469  1.0000
  H   H1330     1.0  0.55491  0.70598  0.75793  1.0000
  H   H1331     1.0  0.71633  0.92636  0.71057  1.0000
  C   C1123     1.0  0.71997  0.95300  0.85934  1.0000
  C   C1124     1.0  0.56487  0.72596  0.94807  1.0000
  C   C1125     1.0  0.53834  0.86957  0.69195  1.0000
  N   N73       1.0  0.67275  0.92685  0.69317  1.0000
  H   H1332     1.0  0.65802  0.95785  0.72261  1.0000
  H   H1333     1.0  0.65379  0.95694  0.90538  1.0000
  C   C1126     1.0  0.56028  0.98085  0.56742  1.0000
  C   C1127     1.0  0.61805  0.67228  0.54078  1.0000
  C   C1128     1.0  0.66480  0.66341  0.78848  1.0000
  C   C1129     1.0  0.69274  0.97948  0.61126  1.0000
  H   H1334     1.0  0.58937  0.74980  0.94679  1.0000
  H   H1335     1.0  0.51478  0.67187  0.48510  1.0000
  C   C1130     1.0  0.72698  0.66756  0.48457  1.0000
  C   C1131     1.0  0.55220  0.96971  0.53317  1.0000
  H   H1336     1.0  0.57994  0.88157  0.51346  1.0000
  C   C1132     1.0  0.65176  0.76857  0.97144  1.0000
  S   S297      1.0  0.65855  0.81092  0.96639  1.0000
  H   H1337     1.0  0.59859  0.72372  0.89241  1.0000
  C   C1133     1.0  0.72336  0.67165  0.96760  1.0000
  C   C1134     1.0  0.48934  0.67906  0.90273  1.0000
  H   H1338     1.0  0.73572  0.78691  0.80663  1.0000
  H   H1339     1.0  0.52860  0.97217  0.48712  1.0000
  C   C1135     1.0  0.53592  0.98202  0.51296  1.0000
  Fe  Fe145     1.0  0.59037  0.98659  0.64560  1.0000
  N   N74       1.0  0.55143  0.71131  0.91330  1.0000
  C   C1136     1.0  0.57356  0.70115  0.89622  1.0000
  H   H1340     1.0  0.73481  0.98369  0.69857  1.0000
  H   H1341     1.0  0.48991  0.70000  0.88906  1.0000
  H   H1342     1.0  0.57716  0.68262  0.91148  1.0000
  H   H1343     1.0  0.56352  0.68877  0.87054  1.0000
  H   H1344     1.0  0.56822  0.70775  0.96412  1.0000
  C   C1137     1.0  0.73421  0.98159  0.88248  1.0000
  C   C1138     1.0  0.73577  0.76915  0.82496  1.0000
  H   H1345     1.0  0.48648  0.67747  0.53616  1.0000
  H   H1346     1.0  0.94251  0.07882  0.43315  1.0000
  Fe  Fe146     1.0  0.77456  0.07649  0.43394  1.0000
  S   S298      1.0  0.79287  0.12956  0.41534  1.0000
  Fe  Fe147     1.0  0.76085  0.04491  0.36241  1.0000
  S   S299      1.0  0.77943  0.09687  0.33856  1.0000
  H   H1347     1.0  0.96213  0.31695  0.23456  1.0000
  Fe  Fe148     1.0  0.82220  0.11814  0.37707  1.0000
  S   S300      1.0  0.87738  0.15971  0.38455  1.0000
  Fe  Fe149     1.0  0.74972  0.10637  0.37870  1.0000
  C   C1139     1.0  0.81562  0.28730  0.36402  1.0000
  S   S301      1.0  0.80515  0.06546  0.39795  1.0000
  H   H1348     1.0  0.83520  0.19931  0.37668  1.0000
  Fe  Fe150     1.0  0.77820  0.14237  0.25740  1.0000
  S   S302      1.0  0.80703  0.18874  0.22396  1.0000
  C   C1140     1.0  0.83620  0.03587  0.04728  1.0000
  Fe  Fe151     1.0  0.84170  0.14158  0.27792  1.0000
  S   S303      1.0  0.87434  0.18811  0.24647  1.0000
  S   S304      1.0  0.85507  0.10482  0.30552  1.0000
  Fe  Fe152     1.0  0.84485  0.21158  0.26756  1.0000
  S   S305      1.0  0.86065  0.26760  0.28493  1.0000
  Fe  Fe153     1.0  0.83471  0.16292  0.20504  1.0000
  S   S306      1.0  0.85134  0.15654  0.15111  1.0000
  S   S307      1.0  0.81477  0.16710  0.30157  1.0000
  S   S308      1.0  0.80379  0.11540  0.23538  1.0000
  S   S309      1.0  0.81308  0.18298  0.00064  1.0000
  C   C1141     1.0  0.87787  0.08670  0.32407  1.0000
  C   C1142     1.0  0.91206  0.10227  0.32163  1.0000
  C   C1143     1.0  0.92925  0.08655  0.33509  1.0000
  C   C1144     1.0  0.91253  0.05476  0.35165  1.0000
  C   C1145     1.0  0.87817  0.03932  0.35382  1.0000
  C   C1146     1.0  0.86112  0.05502  0.34046  1.0000
  H   H1349     1.0  0.92530  0.12693  0.31000  1.0000
  H   H1350     1.0  0.86443  0.01489  0.36596  1.0000
  H   H1351     1.0  0.83469  0.04232  0.34286  1.0000
  C   C1147     1.0  0.88672  0.30347  0.31326  1.0000
  H   H1352     1.0  0.78285  0.18730  0.35534  1.0000
  H   H1353     1.0  0.94646  0.23312  0.29163  1.0000
  H   H1354     1.0  0.89583  0.01814  0.43494  1.0000
  C   C1148     1.0  0.84003  0.16370  0.10951  1.0000
  C   C1149     1.0  0.85512  0.15900  0.08027  1.0000
  C   C1150     1.0  0.84690  0.16420  0.04676  1.0000
  C   C1151     1.0  0.82382  0.17479  0.04208  1.0000
  C   C1152     1.0  0.80895  0.17976  0.07134  1.0000
  C   C1153     1.0  0.81680  0.17405  0.10480  1.0000
  H   H1355     1.0  0.87337  0.15132  0.08353  1.0000
  H   H1356     1.0  0.85884  0.16058  0.02465  1.0000
  H   H1357     1.0  0.79117  0.18809  0.06811  1.0000
  H   H1358     1.0  0.80497  0.17785  0.12692  1.0000
  C   C1154     1.0  0.91212  0.17642  0.35675  1.0000
  C   C1155     1.0  0.94034  0.17493  0.36636  1.0000
  H   H1359     1.0  0.78078  0.22439  0.42356  1.0000
  C   C1156     1.0  0.74353  0.05383  0.02943  1.0000
  C   C1157     1.0  0.91477  0.19746  0.32942  1.0000
  H   H1360     1.0  0.93947  0.16024  0.38825  1.0000
  H   H1361     1.0  0.89399  0.20039  0.32269  1.0000
  C   C1158     1.0  0.94476  0.21622  0.31195  1.0000
  H   H1362     1.0  0.84969  0.08381  0.46301  1.0000
  C   C1159     1.0  0.81239  0.03515  0.02502  1.0000
  H   H1363     1.0  0.88701  0.06440  0.41989  1.0000
  C   C1160     1.0  0.96020  0.11911  0.17587  1.0000
  C   C1161     1.0  0.94452  0.99033  0.16939  1.0000
  H   H1364     1.0  0.84881  0.02212  0.04001  1.0000
  S   S310      1.0  0.96653  0.99379  0.26879  1.0000
  C   C1162     1.0  0.88019  0.25027  0.16045  1.0000
  C   C1163     1.0  0.80267  0.99158  0.21198  1.0000
  N   N75       1.0  0.77010  0.05240  0.01008  1.0000
  Fe  Fe154     1.0  0.95098  0.01512  0.31354  1.0000
  C   C1164     1.0  0.97432  0.25422  0.44961  1.0000
  H   H1365     1.0  0.80925  0.03463  0.28865  1.0000
  C   C1165     1.0  0.88918  0.99746  0.45378  1.0000
  H   H1366     1.0  0.75860  0.99198  0.43372  1.0000
  C   C1166     1.0  0.90820  0.99232  0.97762  1.0000
  H   H1367     1.0  0.83490  0.08805  0.11095  1.0000
  C   C1167     1.0  0.78652  0.08296  0.98829  1.0000
  H   H1368     1.0  0.79819  0.10731  0.00401  1.0000
  C   C1168     1.0  0.79505  0.05256  0.03366  1.0000
  C   C1169     1.0  0.85185  0.29246  0.41121  1.0000
  C   C1170     1.0  0.89179  0.27482  0.18736  1.0000
  H   H1369     1.0  0.86256  0.05519  0.09553  1.0000
  Fe  Fe155     1.0  0.97866  0.02565  0.37461  1.0000
  H   H1370     1.0  0.88214  0.31605  0.23229  1.0000
  N   N76       1.0  0.81634  0.00696  0.24643  1.0000
  H   H1371     1.0  0.79841  0.27365  0.34311  1.0000
  H   H1372     1.0  0.96785  0.16334  0.28051  1.0000
  C   C1171     1.0  0.97008  0.19270  0.34809  1.0000
  C   C1172     1.0  0.93480  0.25999  0.41487  1.0000
  H   H1373     1.0  0.82877  0.12892  0.46816  1.0000
  C   C1173     1.0  0.80086  0.02588  0.26165  1.0000
  C   C1174     1.0  0.89519  0.25835  0.12852  1.0000
  C   C1175     1.0  0.82620  0.32238  0.36789  1.0000
  H   H1374     1.0  0.97718  0.13285  0.26136  1.0000
  C   C1176     1.0  0.93370  0.31597  0.15008  1.0000
  C   C1177     1.0  0.91897  0.30847  0.18308  1.0000
  H   H1375     1.0  0.91282  0.13516  0.25209  1.0000
  H   H1376     1.0  0.77365  0.00930  0.26264  1.0000
  H   H1377     1.0  0.96418  0.09069  0.13250  1.0000
  H   H1378     1.0  0.85948  0.22472  0.16440  1.0000
  H   H1379     1.0  0.81935  0.99033  0.29763  1.0000
  H   H1380     1.0  0.95539  0.09973  0.33287  1.0000
  S   S311      1.0  0.90270  0.00029  0.28620  1.0000
  C   C1178     1.0  0.97508  0.15052  0.19551  1.0000
  C   C1179     1.0  0.95970  0.01465  0.14397  1.0000
  C   C1180     1.0  0.85207  0.03142  0.24358  1.0000
  C   C1181     1.0  0.78088  0.99896  0.19332  1.0000
  H   H1381     1.0  0.86276  0.23858  0.39873  1.0000
  C   C1182     1.0  0.92440  0.12900  0.23011  1.0000
  H   H1382     1.0  0.80176  0.22514  0.33021  1.0000
  H   H1383     1.0  0.91265  0.28088  0.33672  1.0000
  H   H1384     1.0  0.91994  0.10642  0.40875  1.0000
  C   C1183     1.0  0.89687  0.09246  0.42352  1.0000
  H   H1385     1.0  0.77316  0.01638  0.20322  1.0000
  C   C1184     1.0  0.82826  0.07276  0.08714  1.0000
  H   H1386     1.0  0.86345  0.04287  0.26914  1.0000
  H   H1387     1.0  0.88611  0.23909  0.10779  1.0000
  H   H1388     1.0  0.81819  0.22691  0.43882  1.0000
  H   H1389     1.0  0.93058  0.27353  0.39358  1.0000
  H   H1390     1.0  0.85573  0.23821  0.35324  1.0000
  H   H1391     1.0  0.92311  0.23230  0.40684  1.0000
  C   C1185     1.0  0.97270  0.21406  0.32108  1.0000
  H   H1392     1.0  0.89381  0.14501  0.45060  1.0000
  H   H1393     1.0  0.76903  0.21746  0.35963  1.0000
  H   H1394     1.0  0.74643  0.27746  0.37466  1.0000
  H   H1395     1.0  0.80708  0.04960  0.24752  1.0000
  H   H1396     1.0  0.78796  0.18960  0.41557  1.0000
  S   S312      1.0  0.93203  0.03327  0.37161  1.0000
  H   H1397     1.0  0.87926  0.26714  0.21165  1.0000
  C   C1186     1.0  0.94114  0.32061  0.24145  1.0000
  H   H1398     1.0  0.87901  0.09829  0.41072  1.0000
  N   N77       1.0  0.81599  0.23374  0.38404  1.0000
  C   C1187     1.0  0.79138  0.21535  0.35603  1.0000
  C   C1188     1.0  0.84367  0.22737  0.37808  1.0000
  C   C1189     1.0  0.80021  0.21816  0.41699  1.0000
  C   C1190     1.0  0.82799  0.27117  0.38589  1.0000
  C   C1191     1.0  0.90954  0.30311  0.33635  1.0000
  H   H1399     1.0  0.95056  0.03166  0.13766  1.0000
  H   H1400     1.0  0.86259  0.28213  0.42847  1.0000
  H   H1401     1.0  0.79413  0.08806  0.07256  1.0000
  N   N78       1.0  0.90194  0.10286  0.46060  1.0000
  C   C1192     1.0  0.84395  0.05444  0.07841  1.0000
  H   H1402     1.0  0.92135  0.26165  0.43757  1.0000
  H   H1403     1.0  0.90925  0.12615  0.20680  1.0000
  H   H1404     1.0  0.85675  0.05291  0.22647  1.0000
  H   H1405     1.0  0.93636  0.09768  0.18189  1.0000
  H   H1406     1.0  0.80801  0.02085  0.00105  1.0000
  H   H1407     1.0  0.73734  0.16363  0.31559  1.0000
  C   C1193     1.0  0.80450  0.07229  0.06498  1.0000
  H   H1408     1.0  0.92211  0.10380  0.23613  1.0000
  N   N79       1.0  0.95929  0.15629  0.22581  1.0000
  H   H1409     1.0  0.97195  0.31446  0.45629  1.0000
  H   H1410     1.0  0.94880  0.19086  0.19811  1.0000
  C   C1194     1.0  0.97788  0.15763  0.25724  1.0000
  H   H1411     1.0  0.92105  0.29555  0.25034  1.0000
  C   C1195     1.0  0.91226  0.13985  0.46302  1.0000
  S   S313      1.0  0.74589  0.99648  0.32858  1.0000
  H   H1412     1.0  0.91058  0.99332  0.45565  1.0000
  H   H1413     1.0  0.74234  0.24676  0.40524  1.0000
  H   H1414     1.0  0.75177  0.07965  0.04133  1.0000
  C   C1196     1.0  0.92184  0.29112  0.12332  1.0000
  C   C1197     1.0  0.75418  0.02113  0.98714  1.0000
  N   N80       1.0  0.97036  0.27459  0.42242  1.0000
  H   H1415     1.0  0.98343  0.29039  0.36978  1.0000
  H   H1416     1.0  0.74475  0.99734  0.00223  1.0000
  H   H1417     1.0  0.86548  0.01876  0.23319  1.0000
  C   C1198     1.0  0.97602  0.11458  0.14747  1.0000
  C   C1199     1.0  0.95981  0.18949  0.22305  1.0000
  H   H1418     1.0  0.93146  0.01599  0.98118  1.0000
  H   H1419     1.0  0.93595  0.15561  0.44981  1.0000
  H   H1420     1.0  0.93339  0.29723  0.09836  1.0000
  C   C1200     1.0  0.94513  0.08440  0.46053  1.0000
  H   H1421     1.0  0.94574  0.19316  0.24404  1.0000
  H   H1422     1.0  0.98556  0.08905  0.39523  1.0000
  C   C1201     1.0  0.79517  0.99110  0.46657  1.0000
  H   H1423     1.0  0.98503  0.21220  0.22564  1.0000
  H   H1424     1.0  0.97538  0.24844  0.37824  1.0000
  C   C1202     1.0  0.98486  0.31107  0.43406  1.0000
  H   H1425     1.0  0.98108  0.06811  0.46419  1.0000
  H   H1426     1.0  0.87932  0.01751  0.97796  1.0000
  H   H1427     1.0  0.73727  0.30824  0.42401  1.0000
  C   C1203     1.0  0.87858  0.99310  0.97583  1.0000
  C   C1204     1.0  0.73905  0.00748  0.65067  1.0000
  Fe  Fe156     1.0  0.88630  0.13295  0.68704  1.0000
  S   S314      1.0  0.89558  0.18467  0.67011  1.0000
  S   S315      1.0  0.84266  0.09580  0.71896  1.0000
  Fe  Fe157     1.0  0.94937  0.14110  0.65404  1.0000
  S   S316      1.0  0.96266  0.19300  0.63389  1.0000
  C   C1205     1.0  0.74987  0.01549  0.87048  1.0000
  Fe  Fe158     1.0  0.94844  0.20443  0.68524  1.0000
  H   H1428     1.0  0.98326  0.20071  0.52321  1.0000
  Fe  Fe159     1.0  0.90940  0.16961  0.62019  1.0000
  S   S317      1.0  0.89890  0.18317  0.56840  1.0000
  S   S318      1.0  0.93824  0.15360  0.70704  1.0000
  S   S319      1.0  0.89663  0.11668  0.63570  1.0000
  H   H1429     1.0  0.76267  0.11493  0.65560  1.0000
  Fe  Fe160     1.0  0.81972  0.17082  0.94458  1.0000
  S   S320      1.0  0.84327  0.14190  0.92178  1.0000
  Fe  Fe161     1.0  0.78748  0.17193  0.87548  1.0000
  S   S321      1.0  0.80819  0.14218  0.84840  1.0000
  S   S322      1.0  0.75075  0.18110  0.84445  1.0000
  Fe  Fe162     1.0  0.79431  0.10875  0.89454  1.0000
  S   S323      1.0  0.76713  0.05039  0.90101  1.0000
  Fe  Fe163     1.0  0.85628  0.17768  0.87679  1.0000
  S   S324      1.0  0.90112  0.19888  0.84049  1.0000
  S   S325      1.0  0.77034  0.13576  0.91959  1.0000
  S   S326      1.0  0.83586  0.20917  0.90136  1.0000
  C   C1206     1.0  0.80267  0.08788  0.70848  1.0000
  H   H1430     1.0  0.77924  0.05092  0.74837  1.0000
  H   H1431     1.0  0.76298  0.04634  0.82532  1.0000
  C   C1207     1.0  0.94540  0.21977  0.84099  1.0000
  C   C1208     1.0  0.96755  0.07813  0.47811  1.0000
  C   C1209     1.0  0.73720  0.99192  0.81183  1.0000
  H   H1432     1.0  0.81552  0.22626  0.78033  1.0000
  H   H1433     1.0  0.95168  0.21716  0.89552  1.0000
  H   H1434     1.0  0.95675  0.23522  0.53497  1.0000
  H   H1435     1.0  0.89052  0.08696  0.88840  1.0000
  H   H1436     1.0  0.84657  0.16058  0.73423  1.0000
  C   C1210     1.0  0.92677  0.09711  0.47810  1.0000
  H   H1437     1.0  0.86972  0.09249  0.50402  1.0000
  C   C1211     1.0  0.86338  0.15041  0.54793  1.0000
  C   C1212     1.0  0.85837  0.15343  0.51305  1.0000
  C   C1213     1.0  0.83116  0.12702  0.49537  1.0000
  C   C1214     1.0  0.80817  0.09784  0.51257  1.0000
  C   C1215     1.0  0.81290  0.09495  0.54772  1.0000
  C   C1216     1.0  0.84066  0.12117  0.56540  1.0000
  H   H1438     1.0  0.87599  0.17590  0.49943  1.0000
  H   H1439     1.0  0.77841  0.15646  0.73849  1.0000
  H   H1440     1.0  0.79530  0.07238  0.56121  1.0000
  H   H1441     1.0  0.84430  0.11887  0.59250  1.0000
  C   C1217     1.0  0.76610  0.10056  0.67561  1.0000
  C   C1218     1.0  0.96261  0.25403  0.48330  1.0000
  H   H1442     1.0  0.73717  0.02697  0.60114  1.0000
  C   C1219     1.0  0.88693  0.26628  0.69179  1.0000
  C   C1220     1.0  0.96236  0.23055  0.80969  1.0000
  H   H1443     1.0  0.89085  0.23107  0.78071  1.0000
  H   H1444     1.0  0.76355  0.02867  0.65685  1.0000
  C   C1221     1.0  0.96403  0.22523  0.87118  1.0000
  C   C1222     1.0  0.91619  0.28110  0.71093  1.0000
  N   N81       1.0  0.82912  0.19428  0.75102  1.0000
  H   H1445     1.0  0.79156  0.19840  0.72287  1.0000
  H   H1446     1.0  0.85628  0.03644  0.92186  1.0000
  H   H1447     1.0  0.83672  0.22792  0.68811  1.0000
  C   C1223     1.0  0.95547  0.09761  0.53142  1.0000
  S   S327      1.0  0.77428  0.06454  0.48998  1.0000
  H   H1448     1.0  0.92923  0.11485  0.84407  1.0000
  C   C1224     1.0  0.74014  0.21414  0.84503  1.0000
  C   C1225     1.0  0.79986  0.17959  0.72757  1.0000
  H   H1449     1.0  0.85396  0.11996  0.83130  1.0000
  C   C1226     1.0  0.93297  0.10396  0.51407  1.0000
  C   C1227     1.0  0.83497  0.03642  0.82536  1.0000
  C   C1228     1.0  0.85066  0.03656  0.89475  1.0000
  H   H1450     1.0  0.81453  0.14233  0.76545  1.0000
  H   H1451     1.0  0.87545  0.13393  0.79144  1.0000
  C   C1229     1.0  0.86294  0.06615  0.83957  1.0000
  C   C1230     1.0  0.86182  0.11129  0.80812  1.0000
  H   H1452     1.0  0.90922  0.10866  0.77043  1.0000
  C   C1231     1.0  0.87017  0.06545  0.87508  1.0000
  H   H1453     1.0  0.88683  0.00729  0.47942  1.0000
  C   C1232     1.0  0.91711  0.26809  0.74287  1.0000
  H   H1454     1.0  0.92030  0.11414  0.52913  1.0000
  C   C1233     1.0  0.75109  0.02049  0.83497  1.0000
  C   C1234     1.0  0.85840  0.23833  0.70447  1.0000
  H   H1455     1.0  0.91529  0.14959  0.49009  1.0000
  C   C1235     1.0  0.83670  0.16660  0.75769  1.0000
  C   C1236     1.0  0.82001  0.20444  0.78388  1.0000
  H   H1456     1.0  0.83923  0.09253  0.79351  1.0000
  C   C1237     1.0  0.96597  0.23502  0.50944  1.0000
  H   H1457     1.0  0.95954  0.10269  0.55901  1.0000
  H   H1458     1.0  0.80495  0.17097  0.70247  1.0000
  H   H1459     1.0  0.90638  0.13540  0.85835  1.0000
  H   H1460     1.0  0.92686  0.14636  0.81850  1.0000
  C   C1238     1.0  0.89305  0.08607  0.78625  1.0000
  H   H1461     1.0  0.81824  0.12336  0.66690  1.0000
  H   H1462     1.0  0.75467  0.28780  0.88745  1.0000
  C   C1239     1.0  0.74416  0.26690  0.86852  1.0000
  C   C1240     1.0  0.88875  0.24030  0.75588  1.0000
  H   H1463     1.0  0.93834  0.30246  0.70083  1.0000
  H   H1464     1.0  0.82724  0.03543  0.79889  1.0000
  C   C1241     1.0  0.97258  0.08452  0.51349  1.0000
  H   H1465     1.0  0.85530  0.17376  0.77867  1.0000
  S   S328      1.0  0.98124  0.25542  0.71414  1.0000
  N   N82       1.0  0.88246  0.09646  0.81803  1.0000
  H   H1466     1.0  0.87202  0.06886  0.76887  1.0000
  H   H1467     1.0  0.79710  0.18282  0.79441  1.0000
  H   H1468     1.0  0.94856  0.22650  0.78598  1.0000
  C   C1242     1.0  0.75345  0.24148  0.86918  1.0000
  C   C1243     1.0  0.91254  0.12424  0.83567  1.0000
  C   C1244     1.0  0.85853  0.22435  0.73699  1.0000
  H   H1469     1.0  0.94018  0.27905  0.75725  1.0000
  C   C1245     1.0  0.79767  0.10547  0.68205  1.0000
  H   H1470     1.0  0.83942  0.21244  0.80421  1.0000
  C   C1246     1.0  0.77558  0.06458  0.72779  1.0000
  S   S329      1.0  0.97942  0.11711  0.63421  1.0000
  H   H1471     1.0  0.90671  0.07254  0.79249  1.0000
  H   H1472     1.0  0.77097  0.24311  0.88837  1.0000
  H   H1473     1.0  0.76878  0.08405  0.97004  1.0000
  H   H1474     1.0  0.88654  0.27623  0.66671  1.0000
  C   C1247     1.0  0.74379  0.05922  0.72095  1.0000
  H   H1475     1.0  0.97492  0.27747  0.64561  1.0000
  H   H1476     1.0  0.78780  0.00005  0.48914  1.0000
  C   C1248     1.0  0.81588  0.00762  0.84520  1.0000
  H   H1477     1.0  0.77112  0.02110  0.96724  1.0000
  H   H1478     1.0  0.73878  0.99618  0.78443  1.0000
  H   H1479     1.0  0.80617  0.08262  0.97269  1.0000
  C   C1249     1.0  0.98087  0.21551  0.50286  1.0000
  C   C1250     1.0  0.82358  0.00779  0.87986  1.0000
  H   H1480     1.0  0.86250  0.05528  0.47898  1.0000
  C   C1251     1.0  0.73901  0.07755  0.69500  1.0000
  H   H1481     1.0  0.95044  0.26833  0.48966  1.0000
  C   C1252     1.0  0.86969  0.08278  0.47747  1.0000
  C   C1253     1.0  0.77873  0.45688  0.40204  1.0000
  S   S330      1.0  0.90098  0.41373  0.26247  1.0000
  S   S331      1.0  0.92025  0.46422  0.17680  1.0000
  Fe  Fe164     1.0  0.88118  0.43992  0.29695  1.0000
  S   S332      1.0  0.82466  0.41354  0.30450  1.0000
  N   N83       1.0  0.81112  0.48805  0.39630  1.0000
  H   H1482     1.0  0.89578  0.35042  0.20258  1.0000
  H   H1483     1.0  0.85822  0.43850  0.08543  1.0000
  C   C1254     1.0  0.90355  0.36212  0.33462  1.0000
  C   C1255     1.0  0.92588  0.36160  0.35827  1.0000
  H   H1484     1.0  0.90141  0.56481  0.15198  1.0000
  H   H1485     1.0  0.90057  0.38439  0.33403  1.0000
  S   S333      1.0  0.92457  0.45973  0.33323  1.0000
  H   H1486     1.0  0.80155  0.53722  0.26237  1.0000
  C   C1256     1.0  0.79331  0.39391  0.33628  1.0000
  C   C1257     1.0  0.80019  0.39064  0.37070  1.0000
  C   C1258     1.0  0.77480  0.37773  0.39529  1.0000
  C   C1259     1.0  0.92844  0.33167  0.35899  1.0000
  H   H1487     1.0  0.78222  0.49907  0.28661  1.0000
  C   C1260     1.0  0.76034  0.38229  0.32675  1.0000
  H   H1488     1.0  0.82524  0.39900  0.37859  1.0000
  H   H1489     1.0  0.78079  0.37650  0.42196  1.0000
  H   H1490     1.0  0.79411  0.44239  0.22825  1.0000
  H   H1491     1.0  0.75419  0.38402  0.30028  1.0000
  C   C1261     1.0  0.95764  0.48348  0.15485  1.0000
  H   H1492     1.0  0.86653  0.33415  0.29511  1.0000
  H   H1493     1.0  0.93047  0.63768  0.19213  1.0000
  C   C1262     1.0  0.95849  0.49376  0.12089  1.0000
  H   H1494     1.0  0.83958  0.65037  0.02472  1.0000
  H   H1495     1.0  0.93604  0.48881  0.10797  1.0000
  S   S334      1.0  0.90502  0.48894  0.26660  1.0000
  Fe  Fe165     1.0  0.78323  0.61313  0.45162  1.0000
  Fe  Fe166     1.0  0.75898  0.56076  0.39236  1.0000
  S   S335      1.0  0.78721  0.60185  0.35381  1.0000
  H   H1496     1.0  0.96362  0.61065  0.26487  1.0000
  Fe  Fe167     1.0  0.83043  0.62717  0.39199  1.0000
  H   H1497     1.0  0.76851  0.50669  0.21098  1.0000
  Fe  Fe168     1.0  0.76760  0.63261  0.38196  1.0000
  C   C1263     1.0  0.82742  0.50363  0.42990  1.0000
  S   S336      1.0  0.80351  0.58241  0.42749  1.0000
  C   C1264     1.0  0.87103  0.43986  0.99711  1.0000
  H   H1498     1.0  0.85111  0.41624  0.17542  1.0000
  H   H1499     1.0  0.82901  0.53721  0.37340  1.0000
  H   H1500     1.0  0.74741  0.58588  0.02472  1.0000
  S   S337      1.0  0.86222  0.60279  0.28058  1.0000
  H   H1501     1.0  0.92010  0.60635  0.22489  1.0000
  S   S338      1.0  0.79626  0.61327  0.23827  1.0000
  H   H1502     1.0  0.82010  0.46559  0.26516  1.0000
  C   C1265     1.0  0.88117  0.58582  0.30849  1.0000
  C   C1266     1.0  0.89618  0.56847  0.29357  1.0000
  C   C1267     1.0  0.91244  0.55568  0.31399  1.0000
  C   C1268     1.0  0.91296  0.55823  0.34993  1.0000
  C   C1269     1.0  0.89656  0.57417  0.36504  1.0000
  C   C1270     1.0  0.88132  0.58831  0.34453  1.0000
  H   H1503     1.0  0.89606  0.56559  0.26593  1.0000
  H   H1504     1.0  0.89616  0.57633  0.39277  1.0000
  H   H1505     1.0  0.86932  0.60079  0.35666  1.0000
  H   H1506     1.0  0.77037  0.59554  0.08267  1.0000
  S   S339      1.0  0.93535  0.54401  0.37655  1.0000
  C   C1271     1.0  0.90402  0.33987  0.22357  1.0000
  H   H1507     1.0  0.95166  0.62342  0.40347  1.0000
  H   H1508     1.0  0.79394  0.50233  0.35145  1.0000
  H   H1509     1.0  0.78130  0.43874  0.41904  1.0000
  H   H1510     1.0  0.76803  0.46893  0.19392  1.0000
  H   H1511     1.0  0.83545  0.45898  0.38658  1.0000
  C   C1272     1.0  0.85053  0.50059  0.20474  1.0000
  Fe  Fe169     1.0  0.75481  0.41172  0.00769  1.0000
  S   S340      1.0  0.94857  0.39587  0.38961  1.0000
  N   N84       1.0  0.93083  0.33390  0.21213  1.0000
  N   N85       1.0  0.80051  0.49284  0.23774  1.0000
  C   C1273     1.0  0.80096  0.38003  0.09166  1.0000
  Fe  Fe170     1.0  0.94714  0.43697  0.29636  1.0000
  C   C1274     1.0  0.75649  0.56750  0.08726  1.0000
  C   C1275     1.0  0.80561  0.51289  0.37712  1.0000
  C   C1276     1.0  0.84969  0.34247  0.39299  1.0000
  H   H1512     1.0  0.88201  0.34381  0.43284  1.0000
  H   H1513     1.0  0.75045  0.37654  0.13858  1.0000
  S   S341      1.0  0.80402  0.41377  0.99887  1.0000
  H   H1514     1.0  0.94149  0.57908  0.44312  1.0000
  C   C1277     1.0  0.85883  0.50863  0.43948  1.0000
  H   H1515     1.0  0.86221  0.45319  0.12931  1.0000
  H   H1516     1.0  0.84797  0.47670  0.21347  1.0000
  C   C1278     1.0  0.96436  0.59083  0.19698  1.0000
  H   H1517     1.0  0.77644  0.44628  0.26727  1.0000
  C   C1279     1.0  0.79781  0.46044  0.25002  1.0000
  N   N86       1.0  0.97283  0.63332  0.45469  1.0000
  H   H1518     1.0  0.75386  0.54976  0.02132  1.0000
  C   C1280     1.0  0.97257  0.57294  0.17291  1.0000
  Fe  Fe171     1.0  0.77389  0.64059  0.26692  1.0000
  C   C1281     1.0  0.80269  0.51382  0.26868  1.0000
  H   H1519     1.0  0.85903  0.36997  0.39482  1.0000
  C   C1282     1.0  0.83848  0.65329  0.08041  1.0000
  H   H1520     1.0  0.95439  0.34078  0.14423  1.0000
  C   C1283     1.0  0.76989  0.48361  0.21812  1.0000
  H   H1521     1.0  0.95295  0.38025  0.18262  1.0000
  H   H1522     1.0  0.98101  0.36582  0.19609  1.0000
  H   H1523     1.0  0.74755  0.46724  0.23319  1.0000
  H   H1524     1.0  0.76087  0.46300  0.41427  1.0000
  H   H1525     1.0  0.77463  0.41997  0.10190  1.0000
  C   C1284     1.0  0.82917  0.51276  0.21546  1.0000
  C   C1285     1.0  0.98185  0.62736  0.19916  1.0000
  C   C1286     1.0  0.93612  0.63381  0.21896  1.0000
  C   C1287     1.0  0.88411  0.33333  0.31254  1.0000
  Fe  Fe172     1.0  0.83943  0.63848  0.27547  1.0000
  C   C1288     1.0  0.87632  0.51937  0.18223  1.0000
  C   C1289     1.0  0.83052  0.47790  0.37392  1.0000
  H   H1526     1.0  0.92719  0.54655  0.30206  1.0000
  S   S342      1.0  0.95201  0.48288  0.41502  1.0000
  H   H1527     1.0  0.82620  0.52261  0.28311  1.0000
  C   C1290     1.0  0.83562  0.54488  0.20257  1.0000
  H   H1528     1.0  0.81080  0.44317  0.07748  1.0000
  C   C1291     1.0  0.86129  0.56329  0.17990  1.0000
  C   C1292     1.0  0.76874  0.38147  0.15828  1.0000
  C   C1293     1.0  0.86265  0.32761  0.41443  1.0000
  C   C1294     1.0  0.95851  0.64228  0.42537  1.0000
  C   C1295     1.0  0.87294  0.52250  0.47188  1.0000
  C   C1296     1.0  0.85057  0.42975  0.11223  1.0000
  Fe  Fe173     1.0  0.97522  0.45589  0.38824  1.0000
  C   C1297     1.0  0.75738  0.36954  0.19125  1.0000
  H   H1529     1.0  0.85454  0.50043  0.36711  1.0000
  H   H1530     1.0  0.78915  0.51981  0.39086  1.0000
  H   H1531     1.0  0.87313  0.50208  0.42246  1.0000
  S   S343      1.0  0.97619  0.40701  0.29715  1.0000
  H   H1532     1.0  0.89242  0.50968  0.17461  1.0000
  Fe  Fe174     1.0  0.97391  0.52463  0.37578  1.0000
  Fe  Fe175     1.0  0.92570  0.46306  0.23439  1.0000
  C   C1298     1.0  0.95929  0.36795  0.20360  1.0000
  S   S344      1.0  0.97217  0.48499  0.26536  1.0000
  Fe  Fe176     1.0  0.95072  0.50873  0.30111  1.0000
  H   H1533     1.0  0.95866  0.54506  0.17155  1.0000
  C   C1299     1.0  0.80192  0.43336  0.10373  1.0000
  C   C1300     1.0  0.77954  0.37434  0.21765  1.0000
  H   H1534     1.0  0.96507  0.60927  0.32847  1.0000
  H   H1535     1.0  0.83029  0.39507  0.23198  1.0000
  C   C1301     1.0  0.81163  0.51406  0.45443  1.0000
  H   H1536     1.0  0.81723  0.33447  0.35035  1.0000
  C   C1302     1.0  0.90413  0.46491  0.99109  1.0000
  C   C1303     1.0  0.84553  0.44746  0.99357  1.0000
  C   C1304     1.0  0.81315  0.39138  0.21126  1.0000
  H   H1537     1.0  0.96732  0.38627  0.22614  1.0000
  H   H1538     1.0  0.85859  0.64840  0.08400  1.0000
  H   H1539     1.0  0.82079  0.55610  0.20993  1.0000
  C   C1305     1.0  0.80285  0.39894  0.15081  1.0000
  H   H1540     1.0  0.86543  0.58770  0.17039  1.0000
  C   C1306     1.0  0.88153  0.55049  0.16961  1.0000
  C   C1307     1.0  0.82480  0.40358  0.17844  1.0000
  H   H1541     1.0  0.77075  0.36500  0.24322  1.0000
  H   H1542     1.0  0.76673  0.44280  0.37746  1.0000
  H   H1543     1.0  0.93595  0.64284  0.43278  1.0000
  H   H1544     1.0  0.86155  0.41357  0.11863  1.0000
  N   N87       1.0  0.81415  0.41047  0.11541  1.0000
  H   H1545     1.0  0.81015  0.45590  0.12169  1.0000
  C   C1308     1.0  0.91217  0.49779  0.98057  1.0000
  H   H1546     1.0  0.80968  0.38745  0.06486  1.0000
  C   C1309     1.0  0.88667  0.50546  0.97722  1.0000
  H   H1547     1.0  0.81748  0.46577  0.34912  1.0000
  H   H1548     1.0  0.83446  0.48706  0.98147  1.0000
  H   H1549     1.0  0.77362  0.36586  0.09009  1.0000
  C   C1310     1.0  0.94804  0.59804  0.46497  1.0000
  H   H1550     1.0  0.94437  0.57580  0.21415  1.0000
  H   H1551     1.0  0.80872  0.36161  0.10008  1.0000
  H   H1552     1.0  0.91214  0.35828  0.24599  1.0000
  H   H1553     1.0  0.78778  0.51117  0.44886  1.0000
  H   H1554     1.0  0.77395  0.55827  0.08126  1.0000
  H   H1555     1.0  0.94581  0.33107  0.37674  1.0000
  C   C1311     1.0  0.97748  0.63856  0.25934  1.0000
  S   S345      1.0  0.74755  0.45087  0.03721  1.0000
  H   H1556     1.0  0.92331  0.45845  0.99362  1.0000
  H   H1557     1.0  0.86516  0.41426  0.00421  1.0000
  H   H1558     1.0  0.94854  0.33844  0.26431  1.0000
  C   C1312     1.0  0.85366  0.48068  0.98419  1.0000
  C   C1313     1.0  0.74203  0.36748  0.38591  1.0000
  H   H1559     1.0  0.92473  0.59667  0.47300  1.0000
  N   N88       1.0  0.97168  0.64574  0.22373  1.0000
  H   H1560     1.0  0.92786  0.64769  0.23667  1.0000
  H   H1561     1.0  0.96984  0.65154  0.27886  1.0000
  H   H1562     1.0  0.75091  0.56356  0.11517  1.0000
  S   S346      1.0  0.73750  0.59028  0.41864  1.0000
  C   C1314     1.0  0.82776  0.65441  0.04671  1.0000
  S   S347      1.0  0.83631  0.65348  0.15112  1.0000
  H   H1563     1.0  0.98617  0.48087  0.19689  1.0000
  H   H1564     1.0  0.98415  0.32748  0.41333  1.0000
  C   C1315     1.0  0.92199  0.56277  0.88411  1.0000
  C   C1316     1.0  0.96897  0.65196  0.51617  1.0000
  H   H1565     1.0  0.74163  0.37934  0.84479  1.0000
  C   C1317     1.0  0.90541  0.59850  0.83567  1.0000
  C   C1318     1.0  0.75383  0.50276  0.82358  1.0000
  Fe  Fe177     1.0  0.94675  0.64103  0.69852  1.0000
  C   C1319     1.0  0.76243  0.48475  0.91334  1.0000
  H   H1566     1.0  0.88455  0.61223  0.50683  1.0000
  H   H1567     1.0  0.90776  0.60022  0.76345  1.0000
  H   H1568     1.0  0.81426  0.53738  0.50435  1.0000
  C   C1320     1.0  0.75287  0.36880  0.90917  1.0000
  C   C1321     1.0  0.91995  0.59142  0.89469  1.0000
  H   H1569     1.0  0.86542  0.57466  0.77711  1.0000
  H   H1570     1.0  0.79998  0.61529  0.58025  1.0000
  C   C1322     1.0  0.77712  0.59681  0.68866  1.0000
  H   H1571     1.0  0.73684  0.54111  0.76827  1.0000
  H   H1572     1.0  0.98189  0.40041  0.87778  1.0000
  C   C1323     1.0  0.79700  0.59959  0.71723  1.0000
  S   S348      1.0  0.95306  0.52923  0.96905  1.0000
  H   H1573     1.0  0.97403  0.42245  0.58973  1.0000
  C   C1324     1.0  0.78197  0.57867  0.74538  1.0000
  H   H1574     1.0  0.77828  0.51037  0.81476  1.0000
  C   C1325     1.0  0.76790  0.38870  0.85124  1.0000
  H   H1575     1.0  0.82216  0.46415  0.91578  1.0000
  S   S349      1.0  0.97287  0.62479  0.73731  1.0000
  C   C1326     1.0  0.85691  0.53282  0.49517  1.0000
  H   H1576     1.0  0.82806  0.42618  0.87956  1.0000
  C   C1327     1.0  0.77185  0.42849  0.89664  1.0000
  S   S350      1.0  0.89537  0.60493  0.67849  1.0000
  S   S351      1.0  0.78425  0.61991  0.50922  1.0000
  H   H1577     1.0  0.84572  0.61080  0.60700  1.0000
  H   H1578     1.0  0.88004  0.61583  0.75882  1.0000
  N   N89       1.0  0.77574  0.39843  0.88826  1.0000
  H   H1579     1.0  0.92464  0.59999  0.92149  1.0000
  Fe  Fe178     1.0  0.79735  0.62053  0.87785  1.0000
  S   S352      1.0  0.78226  0.56971  0.84836  1.0000
  H   H1580     1.0  0.74979  0.49917  0.51442  1.0000
  C   C1328     1.0  0.82641  0.52881  0.48635  1.0000
  H   H1581     1.0  0.84747  0.59425  0.83045  1.0000
  H   H1582     1.0  0.81647  0.41088  0.92294  1.0000
  H   H1583     1.0  0.78819  0.61350  0.66712  1.0000
  H   H1584     1.0  0.94614  0.65214  0.79548  1.0000
  N   N90       1.0  0.89660  0.61755  0.81117  1.0000
  C   C1329     1.0  0.79312  0.48780  0.91848  1.0000
  C   C1330     1.0  0.84064  0.61590  0.50797  1.0000
  C   C1331     1.0  0.81646  0.61643  0.52836  1.0000
  C   C1332     1.0  0.81844  0.61469  0.56418  1.0000
  S   S353      1.0  0.83162  0.63423  0.92373  1.0000
  H   H1585     1.0  0.78315  0.41093  0.83463  1.0000
  C   C1333     1.0  0.91633  0.55197  0.84961  1.0000
  H   H1586     1.0  0.96294  0.38701  0.55974  1.0000
  Fe  Fe179     1.0  0.88402  0.64632  0.69335  1.0000
  C   C1334     1.0  0.79789  0.46011  0.91056  1.0000
  C   C1335     1.0  0.86824  0.61127  0.55864  1.0000
  H   H1587     1.0  0.89656  0.52531  0.47885  1.0000
  C   C1336     1.0  0.84441  0.61229  0.57933  1.0000
  H   H1588     1.0  0.95107  0.62615  0.52340  1.0000
  H   H1589     1.0  0.91833  0.52991  0.84138  1.0000
  C   C1337     1.0  0.98385  0.40864  0.57414  1.0000
  C   C1338     1.0  0.91199  0.60918  0.87092  1.0000
  H   H1590     1.0  0.74509  0.60056  0.79897  1.0000
  C   C1339     1.0  0.86604  0.61266  0.52293  1.0000
  H   H1591     1.0  0.91107  0.63150  0.88039  1.0000
  C   C1340     1.0  0.90825  0.56950  0.82558  1.0000
  C   C1341     1.0  0.92499  0.65275  0.80752  1.0000
  H   H1592     1.0  0.90447  0.55994  0.79925  1.0000
  S   S354      1.0  0.83792  0.63469  0.72322  1.0000
  C   C1342     1.0  0.86831  0.62010  0.82434  1.0000
  H   H1593     1.0  0.75869  0.50615  0.91963  1.0000
  C   C1343     1.0  0.80950  0.40476  0.89512  1.0000
  H   H1594     1.0  0.97710  0.61977  0.84347  1.0000
  H   H1595     1.0  0.77214  0.36723  0.84355  1.0000
  H   H1596     1.0  0.81331  0.51177  0.92886  1.0000
  S   S355      1.0  0.90165  0.60967  0.57678  1.0000
  H   H1597     1.0  0.73789  0.54651  0.52230  1.0000
  H   H1598     1.0  0.79658  0.58106  0.76801  1.0000
  Fe  Fe180     1.0  0.91329  0.63428  0.62971  1.0000
  C   C1344     1.0  0.74115  0.63559  0.74503  1.0000
  S   S356      1.0  0.76891  0.64363  0.90171  1.0000
  H   H1599     1.0  0.92821  0.54910  0.90271  1.0000
  C   C1345     1.0  0.74842  0.52708  0.84137  1.0000
  H   H1600     1.0  0.81155  0.38167  0.88863  1.0000
  C   C1346     1.0  0.88709  0.60113  0.77624  1.0000
  H   H1601     1.0  0.86817  0.54408  0.52009  1.0000
  C   C1347     1.0  0.74109  0.42659  0.89106  1.0000
  H   H1602     1.0  0.95752  0.58891  0.48618  1.0000
  H   H1603     1.0  0.75528  0.34575  0.90368  1.0000
  H   H1604     1.0  0.85892  0.63141  0.80515  1.0000
  H   H1605     1.0  0.97353  0.42930  0.51372  1.0000
  H   H1606     1.0  0.75784  0.37520  0.93722  1.0000
  H   H1607     1.0  0.76455  0.63495  0.74561  1.0000
  H   H1608     1.0  0.84064  0.61939  0.48073  1.0000
  C   C1348     1.0  0.74249  0.57430  0.68911  1.0000
  C   C1349     1.0  0.74783  0.55612  0.74564  1.0000
  H   H1609     1.0  0.87466  0.63672  0.84795  1.0000
  H   H1610     1.0  0.89250  0.53077  0.96912  1.0000
  C   C1350     1.0  0.73643  0.45412  0.89997  1.0000
  H   H1611     1.0  0.94226  0.68633  0.28444  1.0000
  S   S357      1.0  0.89498  0.92343  0.26708  1.0000
  H   H1612     1.0  0.75973  0.84335  0.16431  1.0000
  Fe  Fe181     1.0  0.87960  0.94743  0.30941  1.0000
  S   S358      1.0  0.82479  0.92557  0.32257  1.0000
  C   C1351     1.0  0.98102  0.85053  0.46428  1.0000
  H   H1613     1.0  0.92392  0.82353  0.39305  1.0000
  S   S359      1.0  0.79847  0.68657  0.23213  1.0000
  S   S360      1.0  0.86709  0.68549  0.24283  1.0000
  Fe  Fe182     1.0  0.84101  0.70950  0.27075  1.0000
  S   S361      1.0  0.86336  0.76829  0.28283  1.0000
  N   N91       1.0  0.96456  0.79005  0.26732  1.0000
  H   H1614     1.0  0.89332  0.66169  0.32163  1.0000
  C   C1352     1.0  0.98416  0.97150  0.16120  1.0000
  C   C1353     1.0  0.88511  0.80281  0.31417  1.0000
  C   C1354     1.0  0.89188  0.83613  0.30605  1.0000
  C   C1355     1.0  0.90925  0.86444  0.32922  1.0000
  C   C1356     1.0  0.92218  0.86078  0.36030  1.0000
  C   C1357     1.0  0.89617  0.79849  0.34628  1.0000
  H   H1615     1.0  0.88411  0.84044  0.28139  1.0000
  H   H1616     1.0  0.91359  0.88950  0.32252  1.0000
  H   H1617     1.0  0.91917  0.95711  0.09067  1.0000
  C   C1358     1.0  0.92093  0.68312  0.36844  1.0000
  C   C1359     1.0  0.94684  0.77506  0.29971  1.0000
  C   C1360     1.0  0.94553  0.69205  0.31172  1.0000
  C   C1361     1.0  0.91752  0.67777  0.33278  1.0000
  H   H1618     1.0  0.82694  0.91494  0.46066  1.0000
  H   H1619     1.0  0.75208  0.77232  0.29670  1.0000
  H   H1620     1.0  0.85028  0.97204  0.08300  1.0000
  C   C1362     1.0  0.83131  0.97287  0.43935  1.0000
  H   H1621     1.0  0.97373  0.75756  0.46571  1.0000
  C   C1363     1.0  0.79061  0.89886  0.34909  1.0000
  C   C1364     1.0  0.79136  0.87588  0.37237  1.0000
  C   C1365     1.0  0.76438  0.85672  0.39398  1.0000
  H   H1622     1.0  0.95611  0.76011  0.31331  1.0000
  H   H1623     1.0  0.95573  0.71148  0.40956  1.0000
  C   C1366     1.0  0.76218  0.90179  0.34746  1.0000
  H   H1624     1.0  0.81292  0.87319  0.37408  1.0000
  H   H1625     1.0  0.76578  0.83978  0.41237  1.0000
  C   C1367     1.0  0.74999  0.83141  0.28752  1.0000
  H   H1626     1.0  0.76128  0.91964  0.32986  1.0000
  H   H1627     1.0  0.78278  0.76391  0.28056  1.0000
  H   H1628     1.0  0.87002  0.93138  0.46942  1.0000
  H   H1629     1.0  0.97726  0.77222  0.22135  1.0000
  H   H1630     1.0  0.76575  0.66928  0.06705  1.0000
  S   S362      1.0  0.96228  0.98605  0.41606  1.0000
  C   C1368     1.0  0.91473  0.82724  0.36896  1.0000
  H   H1631     1.0  0.89102  0.77313  0.35339  1.0000
  H   H1632     1.0  0.80545  0.93626  0.15161  1.0000
  S   S363      1.0  0.75807  0.67307  0.35779  1.0000
  C   C1369     1.0  0.95250  0.70606  0.38222  1.0000
  C   C1370     1.0  0.77620  0.83507  0.26655  1.0000
  H   H1633     1.0  0.96993  0.85374  0.31859  1.0000
  C   C1371     1.0  0.78465  0.85768  0.23844  1.0000
  S   S364      1.0  0.75649  0.94503  0.04235  1.0000
  Fe  Fe183     1.0  0.76358  0.92660  0.99096  1.0000
  S   S365      1.0  0.75778  0.88032  0.10584  1.0000
  C   C1372     1.0  0.81145  0.97981  0.27085  1.0000
  H   H1634     1.0  0.88720  0.94894  0.41231  1.0000
  H   H1635     1.0  0.91966  0.78264  0.24374  1.0000
  C   C1373     1.0  0.81408  0.96896  0.40791  1.0000
  C   C1374     1.0  0.90547  0.72970  0.45757  1.0000
  N   N92       1.0  0.86699  0.93517  0.08092  1.0000
  C   C1375     1.0  0.84536  0.94818  0.06871  1.0000
  H   H1636     1.0  0.77417  0.89193  0.21003  1.0000
  C   C1376     1.0  0.90150  0.96411  0.07950  1.0000
  C   C1377     1.0  0.86089  0.90452  0.06002  1.0000
  C   C1378     1.0  0.82862  0.87560  0.05671  1.0000
  C   C1379     1.0  0.88640  0.90194  0.04315  1.0000
  C   C1380     1.0  0.82215  0.84637  0.03715  1.0000
  C   C1381     1.0  0.87969  0.87245  0.02384  1.0000
  C   C1382     1.0  0.84764  0.84481  0.02068  1.0000
  H   H1637     1.0  0.82020  0.96089  0.38415  1.0000
  H   H1638     1.0  0.98481  0.66459  0.35665  1.0000
  H   H1639     1.0  0.79719  0.82481  0.03487  1.0000
  Fe  Fe184     1.0  0.82329  0.66042  0.20653  1.0000
  Fe  Fe185     1.0  0.98017  0.95689  0.38384  1.0000
  S   S366      1.0  0.94789  0.89697  0.38876  1.0000
  H   H1640     1.0  0.89631  0.66722  0.47034  1.0000
  C   C1383     1.0  0.74182  0.87055  0.25261  1.0000
  C   C1384     1.0  0.94571  0.80319  0.24846  1.0000
  H   H1641     1.0  0.78515  0.95942  0.27195  1.0000
  H   H1642     1.0  0.91173  0.92256  0.04381  1.0000
  H   H1643     1.0  0.74342  0.71836  0.41623  1.0000
  H   H1644     1.0  0.75603  0.76902  0.25100  1.0000
  H   H1645     1.0  0.82936  0.96353  0.20754  1.0000
  S   S367      1.0  0.81611  0.66470  0.30613  1.0000
  H   H1646     1.0  0.87347  0.97301  0.38898  1.0000
  H   H1647     1.0  0.79283  0.82293  0.32978  1.0000
  S   S368      1.0  0.92531  0.96244  0.34053  1.0000
  C   C1385     1.0  0.86628  0.95374  0.40946  1.0000
  N   N93       1.0  0.79378  0.81634  0.27459  1.0000
  C   C1386     1.0  0.77006  0.77883  0.27575  1.0000
  H   H1648     1.0  0.82795  0.85670  0.30919  1.0000
  S   S369      1.0  0.97691  0.91755  0.29390  1.0000
  C   C1387     1.0  0.96411  0.76218  0.24590  1.0000
  H   H1649     1.0  0.94900  0.79543  0.31795  1.0000
  C   C1388     1.0  0.81051  0.82836  0.30868  1.0000
  H   H1650     1.0  0.82473  0.81547  0.31536  1.0000
  H   H1651     1.0  0.94533  0.95030  0.19827  1.0000
  H   H1652     1.0  0.84255  0.82216  0.00544  1.0000
  H   H1653     1.0  0.75084  0.77378  0.41641  1.0000
  C   C1389     1.0  0.79727  0.66437  0.10438  1.0000
  H   H1654     1.0  0.82600  0.96729  0.26431  1.0000
  H   H1655     1.0  0.97630  0.74987  0.25935  1.0000
  C   C1390     1.0  0.76753  0.87498  0.23169  1.0000
  N   N94       1.0  0.85879  0.96574  0.44228  1.0000
  C   C1391     1.0  0.98042  0.72126  0.36102  1.0000
  H   H1656     1.0  0.81882  0.92945  0.07215  1.0000
  H   H1657     1.0  0.80816  0.81276  0.22267  1.0000
  H   H1658     1.0  0.83086  0.80568  0.25517  1.0000
  C   C1392     1.0  0.78811  0.97564  0.40611  1.0000
  H   H1659     1.0  0.89950  0.87143  0.01068  1.0000
  Fe  Fe186     1.0  0.94390  0.94335  0.29610  1.0000
  C   C1393     1.0  0.80138  0.66000  0.04162  1.0000
  S   S370      1.0  0.74789  0.87314  0.00785  1.0000
  C   C1394     1.0  0.85959  0.92553  0.11743  1.0000
  H   H1660     1.0  0.92010  0.75683  0.29495  1.0000
  H   H1661     1.0  0.90874  0.97249  0.05256  1.0000
  C   C1395     1.0  0.79885  0.95398  0.16328  1.0000
  H   H1662     1.0  0.76643  0.94870  0.12136  1.0000
  H   H1663     1.0  0.94486  0.82414  0.26348  1.0000
  H   H1664     1.0  0.74506  0.71993  0.32191  1.0000
  C   C1396     1.0  0.81190  0.96927  0.19554  1.0000
  H   H1665     1.0  0.83338  0.90550  0.12093  1.0000
  H   H1666     1.0  0.84899  0.95402  0.04088  1.0000
  C   C1397     1.0  0.81909  0.82121  0.24901  1.0000
  H   H1667     1.0  0.93851  0.74143  0.23956  1.0000
  H   H1668     1.0  0.80453  0.86265  0.22138  1.0000
  H   H1669     1.0  0.87512  0.91528  0.12754  1.0000
  H   H1670     1.0  0.96257  0.84623  0.44374  1.0000
  H   H1671     1.0  0.93932  0.69669  0.46793  1.0000
  H   H1672     1.0  0.74283  0.81570  0.31008  1.0000
  H   H1673     1.0  0.80804  0.87527  0.06933  1.0000
  H   H1674     1.0  0.95596  0.81262  0.22264  1.0000
  H   H1675     1.0  0.86449  0.94804  0.13423  1.0000
  H   H1676     1.0  0.83934  0.84850  0.24861  1.0000
  C   C1398     1.0  0.85060  0.93861  0.46782  1.0000
  Fe  Fe187     1.0  0.91736  0.97592  0.24513  1.0000
  H   H1677     1.0  0.90317  0.75299  0.46125  1.0000
  H   H1678     1.0  0.75260  0.67376  0.43714  1.0000
  H   H1679     1.0  0.92511  0.73548  0.43867  1.0000
  C   C1399     1.0  0.95700  0.96908  0.17843  1.0000
  H   H1680     1.0  0.88245  0.70948  0.44449  1.0000
  H   H1681     1.0  0.84499  0.92941  0.39974  1.0000
  C   C1400     1.0  0.97748  0.71253  0.32586  1.0000
  S   S371      1.0  0.88730  0.66069  0.39703  1.0000
  H   H1682     1.0  0.97611  0.66773  0.41490  1.0000
  C   C1401     1.0  0.77687  0.96099  0.14614  1.0000
  H   H1683     1.0  0.77525  0.97232  0.38177  1.0000
  C   C1402     1.0  0.78624  0.66501  0.07064  1.0000
  H   H1684     1.0  0.96045  0.89569  0.46154  1.0000
  H   H1685     1.0  0.90509  0.98703  0.09469  1.0000
  S   S372      1.0  0.81103  0.65805  0.41822  1.0000
  C   C1403     1.0  0.73881  0.68228  0.45282  1.0000
  C   C1404     1.0  0.82097  0.98410  0.46871  1.0000
  C   C1405     1.0  0.76816  0.98367  0.16096  1.0000
  S   S373      1.0  0.91092  0.98756  0.19096  1.0000
  H   H1686     1.0  0.78531  0.66809  0.12642  1.0000
  H   H1687     1.0  0.97999  0.69643  0.23658  1.0000
  C   C1406     1.0  0.77865  0.98664  0.43536  1.0000
  Fe  Fe188     1.0  0.73757  0.89086  0.05810  1.0000
  C   C1407     1.0  0.82325  0.65807  0.10946  1.0000
  S   S374      1.0  0.78466  0.65821  0.99991  1.0000
  H   H1688     1.0  0.75121  0.98921  0.14734  1.0000
  C   C1408     1.0  0.73661  0.82760  0.15080  1.0000
  N   N95       1.0  0.91138  0.71792  0.49093  1.0000
  Fe  Fe189     1.0  0.86464  0.68415  0.89710  1.0000
  C   C1409     1.0  0.75938  0.83618  0.90267  1.0000
  H   H1689     1.0  0.79928  0.90373  0.89113  1.0000
  H   H1690     1.0  0.77675  0.89828  0.92973  1.0000
  H   H1691     1.0  0.96701  0.67131  0.56687  1.0000
  C   C1410     1.0  0.97021  0.86770  0.91148  1.0000
  Fe  Fe190     1.0  0.94992  0.70490  0.66530  1.0000
  H   H1692     1.0  0.76191  0.68843  0.78924  1.0000
  H   H1693     1.0  0.82450  0.90749  0.96431  1.0000
  S   S375      1.0  0.79690  0.73260  0.84992  1.0000
  S   S376      1.0  0.91984  0.70165  0.89762  1.0000
  S   S377      1.0  0.84131  0.71175  0.92333  1.0000
  H   H1694     1.0  0.93364  0.66671  0.83270  1.0000
  C   C1411     1.0  0.95397  0.72666  0.87065  1.0000
  S   S378      1.0  0.83167  0.66935  0.85038  1.0000
  C   C1412     1.0  0.95111  0.74070  0.83986  1.0000
  H   H1695     1.0  0.97732  0.78373  0.71558  1.0000
  H   H1696     1.0  0.88153  0.69139  0.53466  1.0000
  H   H1697     1.0  0.94240  0.78302  0.89277  1.0000
  C   C1413     1.0  0.94840  0.83321  0.90227  1.0000
  H   H1698     1.0  0.92174  0.67933  0.50869  1.0000
  C   C1414     1.0  0.77924  0.78973  0.92590  1.0000
  C   C1415     1.0  0.91750  0.68909  0.48419  1.0000
  H   H1699     1.0  0.92734  0.73656  0.83161  1.0000
  C   C1416     1.0  0.76261  0.73922  0.84930  1.0000
  C   C1417     1.0  0.84761  0.93124  0.96803  1.0000
  H   H1700     1.0  0.77114  0.86800  0.83930  1.0000
  H   H1701     1.0  0.91842  0.74266  0.55971  1.0000
  H   H1702     1.0  0.74897  0.78619  0.47925  1.0000
  Fe  Fe191     1.0  0.80585  0.69358  0.87813  1.0000
  S   S379      1.0  0.93447  0.68117  0.71737  1.0000
  H   H1703     1.0  0.78217  0.77533  0.80816  1.0000
  C   C1418     1.0  0.95949  0.80978  0.89969  1.0000
  H   H1704     1.0  0.91852  0.66867  0.79120  1.0000
  C   C1419     1.0  0.73634  0.72251  0.87173  1.0000
  H   H1705     1.0  0.96762  0.78804  0.58765  1.0000
  C   C1420     1.0  0.74704  0.85882  0.85172  1.0000
  C   C1421     1.0  0.96841  0.78166  0.56070  1.0000
  C   C1422     1.0  0.98251  0.65973  0.48266  1.0000
  H   H1706     1.0  0.73732  0.87507  0.84159  1.0000
  H   H1707     1.0  0.92263  0.82446  0.89714  1.0000
  C   C1423     1.0  0.94053  0.74622  0.50900  1.0000
  H   H1708     1.0  0.85877  0.68462  0.49579  1.0000
  C   C1424     1.0  0.78743  0.83619  0.88921  1.0000
  H   H1709     1.0  0.78623  0.77127  0.93384  1.0000
  H   H1710     1.0  0.84812  0.94690  0.49421  1.0000
  C   C1425     1.0  0.88057  0.70441  0.51089  1.0000
  C   C1426     1.0  0.94010  0.75556  0.54412  1.0000
  H   H1711     1.0  0.73828  0.77145  0.96010  1.0000
  C   C1427     1.0  0.76205  0.76240  0.82580  1.0000
  H   H1712     1.0  0.80213  0.85387  0.86964  1.0000
  H   H1713     1.0  0.87523  0.72514  0.51811  1.0000
  C   C1428     1.0  0.97111  0.76417  0.49196  1.0000
  S   S380      1.0  0.96565  0.66708  0.64822  1.0000
  C   C1429     1.0  0.77446  0.89602  0.90115  1.0000
  H   H1714     1.0  0.76794  0.91535  0.89246  1.0000
  S   S381      1.0  0.81171  0.96474  0.96617  1.0000
  C   C1430     1.0  0.79690  0.81303  0.90047  1.0000
  H   H1715     1.0  0.97661  0.77111  0.79593  1.0000
  N   N96       1.0  0.74948  0.86060  0.88993  1.0000
  H   H1716     1.0  0.81758  0.81249  0.88879  1.0000
  H   H1717     1.0  0.87664  0.90647  0.96430  1.0000
  H   H1718     1.0  0.74268  0.67100  0.95181  1.0000
  C   C1431     1.0  0.87729  0.93068  0.96824  1.0000
  S   S382      1.0  0.98221  0.75962  0.64586  1.0000
  H   H1719     1.0  0.96139  0.88500  0.50547  1.0000
  C   C1432     1.0  0.90773  0.96110  0.97323  1.0000
  C   C1433     1.0  0.75221  0.78972  0.94045  1.0000
  S   S383      1.0  0.89865  0.67338  0.64296  1.0000
  C   C1434     1.0  0.97917  0.76031  0.81963  1.0000
  C   C1435     1.0  0.97803  0.67780  0.54162  1.0000
  H   H1720     1.0  0.96768  0.83445  0.48656  1.0000
  H   H1721     1.0  0.95983  0.88433  0.91320  1.0000
  H   H1722     1.0  0.73633  0.70459  0.88987  1.0000
  C   C1436     1.0  0.98514  0.73226  0.88061  1.0000
  C   C1437     1.0  0.75464  0.66310  0.80068  1.0000
  H   H1723     1.0  0.74701  0.66331  0.82772  1.0000
  C   C1438     1.0  0.84816  0.96257  0.97103  1.0000
  C   C1439     1.0  0.74246  0.81268  0.92930  1.0000
  Fe  Fe192     1.0  0.80584  0.66075  0.94615  1.0000
  H   H1724     1.0  0.77753  0.66153  0.80189  1.0000
  S   S384      1.0  0.94436  0.95879  0.97247  1.0000
  H   H1725     1.0  0.83282  0.98766  0.49355  1.0000
  H   H1726     1.0  0.74616  0.65956  0.73205  1.0000
  C   C1440     1.0  0.97726  0.89942  0.48365  1.0000
  H   H1727     1.0  0.79446  0.98538  0.83383  1.0000
  H   H1728     1.0  0.80826  0.98579  0.89541  1.0000
