data_image0
_chemical_formula_structural       FeS2FeSCFeSFeCS2FeSFeS3H4SHS3FeHFeSC2H2CH3C3H2C6H4C2HC2H2C2HCH4C8H5SH3C6H3CHC3FeH2CS2H2CHSH2CH5C4H3C4HCH3CH3C2H3CHCNHC3H2NH2CH3CSHC2HC2HC2HC2NH2FeCSC2H2SHSC2H2S2FeSFeCHSHFe2HC2HNC4H5SCHCH2SC2HFeHCHCHFeSH3NHNHC2HCHCHSFeHCHC2HSC2NH4SCH2C2NHC2HC2H2CHCH2CHC2NSH2C2HC2H2C4HC7H3SCHCH4CHCHCH2CHCH3CHC2HCH3CHSHFeSH2SHFeHSH2NSHFeS2FeS2FeHFeS3H2S2FeSCFeS2FeSFeS4FeSHCHFeSCHC6H4C6H4C2H3C6H3FeCH3C2HC6H5CHC2H2C2HC6H3NC2SCH2CH3C3FeHNH2SH3C5H6CNH3NC8H15C2HC3HCH7CHSC2H2CNCHC4HCH5SH6CHNHNH2C4H3C3H2CH6C3HC2SCH2CH5C2FeH2SFeH3CH4CH2CH2C2HCHC2H4CHCHCH2C2HNC2HC2HNCH3CSCSH2FeCSH4SHSH2C5H3CHCNC6H5CHC2HSCHCH2C3H4SHCHCNC2H2CH3C3HCHC2HS2C2SFeHS3CSH3CHCH2FeCHSCH3Fe2H2CHCHCH2C2H3C2HC3HSHCH2NH2CH4SFeCFeH4CSHC2H2C2H2C2HCNHC3H3CHFeSHFeSHFeS2HFeS2FeS2FeSFeS3HSHSFeSFeS3FeSHFeSCFeSFeS3FeS2FeSFeSFeS3HFeS2FeHFeC2SCHSH2C4H2C6H7C6H4FeCH3CHCH3CHC8H4C6H4CH2C3H2C6H4CHC2H2C2HCNC9H15NC7H14NC9H9C3HCHS2NCH3C2H2C3HCSCHC2H2CH2C2HNH3C2HC2HSC2FeH3CH2C2H3CSH3CH2C2NC2SCH5FeHC3HCH3CHC3H3CHCHCHC2HC2HNH2C2H2CH2NHSH3SC2HCHC2HCH4C2H2NHC3H4CH2CH4C2H4CHCHCSCHNHCHCH8CHCHC4H4CH2C3SFeHC2H2CHFeS2FeS2FeSFeS3FeSCH2FeS2FeS2FeSHFeHFeS3FeHFeS3FeSH2CFeSCSFeS2FeS2FeSFeS3C2HC7H4C3H2C6H8CHFeH3C2H4C3HCFeC2HCHC6H4C6H4C6H4SH2SHC4HNC9H14C2HCHC2HC4HC3H2SH2C2SCHSH3C3FeCH2CH4SH2NH4CH3NC3HCH6C2H5C6H3CH2CHCH5NH4CH3NH3C3H2C2H4SHCHC5HCH4C2H4C3H4CHC3H3C2H2C3H3C3NH2NHC2HC3H4SNC5HCHC4HCH3CHCFeC2H2C2HC2H2C3SH6SNHSHC4H2S2FeSFeSHSH2FeC3H2C3H2CFeHC2H2FeHC4FeH2S2H2SCH2CSCHC2HCSCH2CHCH4NHCHCHSH5C2HC2H3CHNCHC2H3C3H3CS2CSHCFeSHCHSHFeCHSC2HCHSC7H2CH2Fe2HC2HCHC4H2CH2NH2SH2C6H4C2H2C2HCH4CHCHSNHCH7CHCHCH2C2H2CSCHCNHCSH4CH6CHC3HC2SHNCHCH2CH2CHCH3FeCFeSHFeS2FeSFeS3CSHSCSHFeSCH2CSHFeSC3FeHSH3SHFeS2FeS2FeSFeS3HCHCHC3H4C6H4C6H5C3H3CHC7H4C6H4C6H5CHNCHC2HCNC9H16CH2C2HCH2CH3NC2H5NCH2CHCHCH2SHCH3CHNH2CHCH2C2HSHC2H2CFeH2C3FeH8CHC2HCFeSHC2H2C3HCHNCSCH4C2HC2H2NHNCSNH2CHCH2CHFeS2C4HCH2CSFeSFeSCFeSFeS6HFeS2FeS2Fe3S3H2SFeSH3CFeC3SHC4H2C3H2C6H4FeC6H4C3H2NCHCHNH2C2HFeC3SCH2CHCS2H2CNHCH4SC2HC2HSC2HCHNC6HCH13CHC2H2C2H4CSH3C2HC5HNC9H3CH10CFeH6CH3C2HC2H2CHSCHCHSC2H2SH2C4NH3SCNH2C2H2CSHCH2CFeH2CH3C4HCH2CSH2CH4SCHC3H2CHCHFeHCH2C2
_chemical_formula_sum              "Fe128 S256 C960 H1152 N64"
_cell_length_a       38.6684
_cell_length_b       59.3975
_cell_length_c       73.4275
_cell_angle_alpha    89.3456
_cell_angle_beta     90.1298
_cell_angle_gamma    86.1923

_space_group_name_H-M_alt    "P 1"
_space_group_IT_number       1

loop_
  _space_group_symop_operation_xyz
  'x, y, z'

loop_
  _atom_site_type_symbol
  _atom_site_label
  _atom_site_symmetry_multiplicity
  _atom_site_fract_x
  _atom_site_fract_y
  _atom_site_fract_z
  _atom_site_occupancy
  Fe  Fe1       1.0  0.10934  0.37874  0.23239  1.0000
  S   S1        1.0  0.12808  0.41029  0.24406  1.0000
  S   S2        1.0  0.14296  0.34704  0.23820  1.0000
  Fe  Fe2       1.0  0.05121  0.40421  0.21135  1.0000
  S   S3        1.0  0.06727  0.43777  0.22167  1.0000
  C   C1        1.0  0.03767  0.37306  0.29996  1.0000
  Fe  Fe3       1.0  0.12224  0.42446  0.21560  1.0000
  S   S4        1.0  0.16560  0.44540  0.20397  1.0000
  Fe  Fe4       1.0  0.07171  0.42019  0.24906  1.0000
  C   C2        1.0  0.16274  0.45357  0.12911  1.0000
  S   S5        1.0  0.10586  0.39223  0.20368  1.0000
  S   S6        1.0  0.05322  0.38735  0.23909  1.0000
  Fe  Fe5       1.0  0.33073  0.44608  0.12871  1.0000
  S   S7        1.0  0.27710  0.43593  0.13896  1.0000
  Fe  Fe6       1.0  0.38389  0.42404  0.10169  1.0000
  S   S8        1.0  0.39558  0.39248  0.08496  1.0000
  S   S9        1.0  0.37415  0.41903  0.13148  1.0000
  S   S10       1.0  0.33789  0.44895  0.09806  1.0000
  H   H1        1.0  0.11882  0.07995  0.14998  1.0000
  H   H2        1.0  0.18173  0.38174  0.22499  1.0000
  H   H3        1.0  0.42496  0.05599  0.13671  1.0000
  H   H4        1.0  0.05612  0.47656  0.14473  1.0000
  S   S11       1.0  0.30341  0.10313  0.31255  1.0000
  H   H5        1.0  0.42099  0.42180  0.30105  1.0000
  S   S12       1.0  0.39958  0.03561  0.07125  1.0000
  S   S13       1.0  0.11201  0.05350  0.20584  1.0000
  S   S14       1.0  0.04904  0.05059  0.23575  1.0000
  Fe  Fe7       1.0  0.05471  0.04880  0.20531  1.0000
  H   H6        1.0  0.49484  0.02975  0.01087  1.0000
  Fe  Fe8       1.0  0.10694  0.05201  0.23626  1.0000
  S   S15       1.0  0.12958  0.07952  0.25256  1.0000
  C   C3        1.0  0.30541  0.99126  0.18751  1.0000
  C   C4        1.0  0.32684  0.44132  0.04809  1.0000
  H   H7        1.0  0.30138  0.36670  0.23557  1.0000
  H   H8        1.0  0.40813  0.10895  0.30941  1.0000
  C   C5        1.0  0.23779  0.35957  0.21286  1.0000
  H   H9        1.0  0.13516  0.06019  0.16707  1.0000
  H   H10       1.0  0.18835  0.03627  0.17632  1.0000
  H   H11       1.0  0.23499  0.04252  0.15388  1.0000
  C   C6        1.0  0.44064  0.04096  0.06197  1.0000
  C   C7        1.0  0.47051  0.02727  0.06613  1.0000
  C   C8        1.0  0.45203  0.35372  0.32042  1.0000
  H   H12       1.0  0.46871  0.01245  0.07468  1.0000
  H   H13       1.0  0.47758  0.07992  0.03464  1.0000
  C   C9        1.0  0.20228  0.06730  0.30135  1.0000
  C   C10       1.0  0.18557  0.04924  0.29394  1.0000
  C   C11       1.0  0.16430  0.05250  0.27845  1.0000
  C   C12       1.0  0.15924  0.07399  0.27053  1.0000
  C   C13       1.0  0.17641  0.09196  0.27780  1.0000
  C   C14       1.0  0.19822  0.08859  0.29305  1.0000
  H   H14       1.0  0.18931  0.03272  0.30022  1.0000
  H   H15       1.0  0.15157  0.03855  0.27274  1.0000
  H   H16       1.0  0.17260  0.10861  0.27168  1.0000
  H   H17       1.0  0.21104  0.10261  0.29868  1.0000
  C   C15       1.0  0.20291  0.02200  0.17044  1.0000
  C   C16       1.0  0.28205  0.36989  0.24598  1.0000
  H   H18       1.0  0.26399  0.35067  0.21309  1.0000
  C   C17       1.0  0.26146  0.39628  0.21273  1.0000
  C   C18       1.0  0.22958  0.02548  0.15773  1.0000
  H   H19       1.0  0.19666  0.38555  0.25406  1.0000
  H   H20       1.0  0.11611  0.43683  0.13182  1.0000
  C   C19       1.0  0.42872  0.38726  0.06862  1.0000
  C   C20       1.0  0.44965  0.40410  0.06243  1.0000
  H   H21       1.0  0.46621  0.02725  0.12418  1.0000
  C   C21       1.0  0.43263  0.36576  0.06088  1.0000
  H   H22       1.0  0.44753  0.42058  0.06857  1.0000
  H   H23       1.0  0.41656  0.35262  0.06555  1.0000
  H   H24       1.0  0.00691  0.35879  0.19932  1.0000
  H   H25       1.0  0.28798  0.38815  0.21138  1.0000
  C   C22       1.0  0.24891  0.00718  0.14977  1.0000
  C   C23       1.0  0.24757  0.37778  0.24144  1.0000
  C   C24       1.0  0.15488  0.34444  0.26130  1.0000
  C   C25       1.0  0.13620  0.35689  0.27447  1.0000
  C   C26       1.0  0.14533  0.35438  0.29292  1.0000
  C   C27       1.0  0.17380  0.33994  0.29825  1.0000
  C   C28       1.0  0.19311  0.32791  0.28504  1.0000
  C   C29       1.0  0.18336  0.32995  0.26659  1.0000
  H   H26       1.0  0.11429  0.36814  0.27047  1.0000
  H   H27       1.0  0.13037  0.36376  0.30304  1.0000
  H   H28       1.0  0.21500  0.31667  0.28906  1.0000
  H   H29       1.0  0.19793  0.32035  0.25641  1.0000
  H   H30       1.0  0.45391  0.32642  0.27263  1.0000
  S   S16       1.0  0.06209  0.01095  0.20484  1.0000
  H   H31       1.0  0.40468  0.30575  0.28248  1.0000
  H   H32       1.0  0.09468  0.02178  0.27539  1.0000
  H   H33       1.0  0.48545  0.07015  0.08979  1.0000
  C   C30       1.0  0.19803  0.44107  0.18666  1.0000
  C   C31       1.0  0.19614  0.42469  0.17317  1.0000
  C   C32       1.0  0.22100  0.42309  0.15904  1.0000
  C   C33       1.0  0.24851  0.43754  0.15821  1.0000
  C   C34       1.0  0.25105  0.45340  0.17204  1.0000
  C   C35       1.0  0.22588  0.45523  0.18604  1.0000
  H   H34       1.0  0.17502  0.41366  0.17327  1.0000
  H   H35       1.0  0.21853  0.41082  0.14842  1.0000
  H   H36       1.0  0.25275  0.40076  0.19857  1.0000
  C   C36       1.0  0.42195  0.07450  0.31720  1.0000
  H   H37       1.0  0.36818  0.02203  0.16955  1.0000
  C   C37       1.0  0.11067  0.08652  0.31694  1.0000
  C   C38       1.0  0.14224  0.01395  0.13796  1.0000
  C   C39       1.0  0.14550  0.05083  0.12388  1.0000
  Fe  Fe9       1.0  0.29055  0.13578  0.32738  1.0000
  H   H38       1.0  0.36482  0.30319  0.30544  1.0000
  H   H39       1.0  0.25789  0.21623  0.30651  1.0000
  C   C40       1.0  0.08550  0.08677  0.30324  1.0000
  S   S17       1.0  0.36609  0.47434  0.13459  1.0000
  S   S18       1.0  0.02323  0.07320  0.18658  1.0000
  H   H40       1.0  0.48701  0.41325  0.04222  1.0000
  H   H41       1.0  0.13739  0.08434  0.31279  1.0000
  C   C41       1.0  0.47378  0.05724  0.30236  1.0000
  H   H42       1.0  0.31679  0.45860  0.05204  1.0000
  S   S19       1.0  0.05978  0.43315  0.27784  1.0000
  H   H43       1.0  0.41478  0.03899  0.22419  1.0000
  H   H44       1.0  0.31015  0.03594  0.24270  1.0000
  C   C42       1.0  0.07996  0.46964  0.17924  1.0000
  H   H45       1.0  0.37717  0.46556  0.06040  1.0000
  H   H46       1.0  0.47461  0.45948  0.02766  1.0000
  H   H47       1.0  0.43958  0.07248  0.09037  1.0000
  H   H48       1.0  0.46687  0.39944  0.10111  1.0000
  H   H49       1.0  0.40743  0.06615  0.11573  1.0000
  C   C43       1.0  0.05836  0.45897  0.15022  1.0000
  C   C44       1.0  0.29210  0.36543  0.26405  1.0000
  C   C45       1.0  0.23405  0.37591  0.27411  1.0000
  C   C46       1.0  0.26812  0.36839  0.27808  1.0000
  H   H50       1.0  0.31854  0.35938  0.26726  1.0000
  H   H51       1.0  0.21521  0.37769  0.28502  1.0000
  H   H52       1.0  0.27584  0.36455  0.29203  1.0000
  C   C47       1.0  0.45998  0.45247  0.20698  1.0000
  C   C48       1.0  0.46519  0.28395  0.31305  1.0000
  C   C49       1.0  0.12002  0.01168  0.30908  1.0000
  C   C50       1.0  0.42971  0.06774  0.12521  1.0000
  H   H53       1.0  0.41273  0.44880  0.05019  1.0000
  C   C51       1.0  0.32192  0.01945  0.21718  1.0000
  H   H54       1.0  0.32334  0.39465  0.32686  1.0000
  H   H55       1.0  0.05508  0.46539  0.18567  1.0000
  H   H56       1.0  0.20908  0.01389  0.10788  1.0000
  C   C52       1.0  0.47117  0.39927  0.11605  1.0000
  H   H57       1.0  0.40179  0.98919  0.05290  1.0000
  H   H58       1.0  0.17097  0.44416  0.11714  1.0000
  H   H59       1.0  0.44724  0.40744  0.12206  1.0000
  C   C53       1.0  0.46305  0.07535  0.09866  1.0000
  C   C54       1.0  0.07075  0.05470  0.13625  1.0000
  H   H60       1.0  0.49057  0.03337  0.10421  1.0000
  H   H61       1.0  0.46281  0.09382  0.10107  1.0000
  H   H62       1.0  0.37803  0.27283  0.28383  1.0000
  C   C55       1.0  0.43227  0.28668  0.30431  1.0000
  H   H63       1.0  0.44500  0.46326  0.21623  1.0000
  C   C56       1.0  0.34751  0.01362  0.20383  1.0000
  N   N1        1.0  0.36217  0.44165  0.04028  1.0000
  H   H64       1.0  0.46499  0.00554  0.03129  1.0000
  C   C57       1.0  0.37405  0.41835  0.03501  1.0000
  C   C58       1.0  0.38554  0.44860  0.05498  1.0000
  C   C59       1.0  0.36148  0.45676  0.02408  1.0000
  H   H65       1.0  0.18668  0.05364  0.10432  1.0000
  H   H66       1.0  0.45746  0.34496  0.04011  1.0000
  N   N2        1.0  0.10024  0.04638  0.14800  1.0000
  H   H67       1.0  0.30796  0.43467  0.03845  1.0000
  H   H68       1.0  0.44411  0.03342  0.10319  1.0000
  C   C60       1.0  0.05309  0.02789  0.32601  1.0000
  H   H69       1.0  0.37472  0.40655  0.04694  1.0000
  H   H70       1.0  0.40067  0.41773  0.02917  1.0000
  H   H71       1.0  0.35675  0.41112  0.02486  1.0000
  C   C61       1.0  0.49250  0.01518  0.20153  1.0000
  S   S20       1.0  0.15954  0.99445  0.19009  1.0000
  H   H72       1.0  0.44285  0.04043  0.32212  1.0000
  C   C62       1.0  0.46629  0.03805  0.11174  1.0000
  C   C63       1.0  0.11195  0.06554  0.15870  1.0000
  H   H73       1.0  0.39495  0.37438  0.27943  1.0000
  C   C64       1.0  0.44901  0.36244  0.11923  1.0000
  C   C65       1.0  0.41081  0.36849  0.29090  1.0000
  H   H74       1.0  0.45931  0.03606  0.18371  1.0000
  C   C66       1.0  0.38074  0.47632  0.02301  1.0000
  C   C67       1.0  0.13142  0.44951  0.13766  1.0000
  H   H75       1.0  0.39269  0.98629  0.18278  1.0000
  C   C68       1.0  0.47867  0.07748  0.29310  1.0000
  C   C69       1.0  0.05048  0.08915  0.30767  1.0000
  N   N3        1.0  0.08594  0.00626  0.30155  1.0000
  H   H76       1.0  0.47012  0.27272  0.32456  1.0000
  H   H77       1.0  0.06542  0.03745  0.16948  1.0000
  Fe  Fe10      1.0  0.40824  0.99166  0.13174  1.0000
  C   C70       1.0  0.45453  0.09598  0.29555  1.0000
  S   S21       1.0  0.03085  0.98831  0.25288  1.0000
  C   C71       1.0  0.44934  0.45120  0.18861  1.0000
  C   C72       1.0  0.47544  0.37845  0.03954  1.0000
  H   H78       1.0  0.39674  0.48153  0.03406  1.0000
  H   H79       1.0  0.04829  0.06150  0.14454  1.0000
  S   S22       1.0  0.18379  0.33689  0.32157  1.0000
  H   H80       1.0  0.07467  0.04047  0.29161  1.0000
  S   S23       1.0  0.43658  0.00828  0.15509  1.0000
  C   C73       1.0  0.18638  0.02012  0.11543  1.0000
  C   C74       1.0  0.40945  0.25869  0.32586  1.0000
  H   H81       1.0  0.49214  0.04290  0.30067  1.0000
  H   H82       1.0  0.20910  0.47168  0.13002  1.0000
  S   S24       1.0  0.37241  0.01998  0.12092  1.0000
  S   S25       1.0  0.28078  0.01277  0.13291  1.0000
  Fe  Fe11      1.0  0.11965  0.01580  0.20716  1.0000
  S   S26       1.0  0.11835  0.01447  0.23798  1.0000
  Fe  Fe12      1.0  0.40977  0.44684  0.13586  1.0000
  C   C75       1.0  0.22371  0.38046  0.25611  1.0000
  H   H83       1.0  0.21964  0.34823  0.21963  1.0000
  S   S27       1.0  0.42146  0.45033  0.10589  1.0000
  H   H84       1.0  0.22965  0.36155  0.19834  1.0000
  Fe  Fe13      1.0  0.38799  0.00920  0.09290  1.0000
  Fe  Fe14      1.0  0.06018  0.01309  0.23560  1.0000
  H   H85       1.0  0.38812  0.00076  0.02115  1.0000
  C   C76       1.0  0.12913  0.03688  0.13662  1.0000
  C   C77       1.0  0.20191  0.39268  0.21993  1.0000
  H   H86       1.0  0.29550  0.01476  0.21605  1.0000
  N   N4        1.0  0.23723  0.38161  0.22213  1.0000
  C   C78       1.0  0.04711  0.36367  0.31686  1.0000
  C   C79       1.0  0.07595  0.02278  0.28685  1.0000
  C   C80       1.0  0.19470  0.00009  0.17520  1.0000
  C   C81       1.0  0.09105  0.43172  0.16908  1.0000
  H   H87       1.0  0.07763  0.06860  0.12698  1.0000
  H   H88       1.0  0.26330  0.41245  0.22012  1.0000
  H   H89       1.0  0.09137  0.07241  0.16812  1.0000
  H   H90       1.0  0.19522  0.39621  0.20540  1.0000
  H   H91       1.0  0.35160  0.28327  0.32199  1.0000
  S   S28       1.0  0.00592  0.40733  0.19122  1.0000
  C   C82       1.0  0.44575  0.05587  0.31449  1.0000
  H   H92       1.0  0.06162  0.04089  0.12772  1.0000
  C   C83       1.0  0.44346  0.05988  0.05050  1.0000
  H   H93       1.0  0.19941  0.40913  0.22711  1.0000
  H   H94       1.0  0.14109  0.00888  0.29887  1.0000
  S   S29       1.0  0.28456  0.30861  0.31621  1.0000
  C   C84       1.0  0.45602  0.36131  0.04653  1.0000
  C   C85       1.0  0.05930  0.00766  0.31605  1.0000
  H   H95       1.0  0.03104  0.08946  0.29697  1.0000
  Fe  Fe15      1.0  0.33053  0.99556  0.12036  1.0000
  H   H96       1.0  0.42802  0.08526  0.13051  1.0000
  C   C86       1.0  0.46729  0.36481  0.30574  1.0000
  H   H97       1.0  0.11401  0.42847  0.17810  1.0000
  C   C87       1.0  0.39550  0.35761  0.30566  1.0000
  H   H98       1.0  0.32656  0.43035  0.06051  1.0000
  Fe  Fe16      1.0  0.37539  0.47551  0.10387  1.0000
  S   S30       1.0  0.45867  0.43677  0.15270  1.0000
  H   H99       1.0  0.42643  0.46099  0.18385  1.0000
  H   H100      1.0  0.12710  0.00090  0.32120  1.0000
  H   H101      1.0  0.10017  0.46677  0.19002  1.0000
  N   N5        1.0  0.08813  0.45562  0.16297  1.0000
  H   H102      1.0  0.42049  0.07056  0.04718  1.0000
  N   N6        1.0  0.40184  0.27477  0.31048  1.0000
  H   H103      1.0  0.33755  0.00574  0.15834  1.0000
  C   C88       1.0  0.48891  0.31127  0.29263  1.0000
  C   C89       1.0  0.49295  0.29617  0.30724  1.0000
  H   H104      1.0  0.27180  0.46475  0.17165  1.0000
  C   C90       1.0  0.42608  0.09445  0.30737  1.0000
  H   H105      1.0  0.38427  0.30221  0.32761  1.0000
  C   C91       1.0  0.44652  0.37204  0.29090  1.0000
  H   H106      1.0  0.07242  0.35483  0.31852  1.0000
  S   S31       1.0  0.27903  0.16969  0.31339  1.0000
  Fe  Fe17      1.0  0.31568  0.33722  0.32543  1.0000
  H   H107      1.0  0.32261  0.02967  0.17147  1.0000
  C   C92       1.0  0.46367  0.00169  0.17432  1.0000
  H   H108      1.0  0.45790  0.38057  0.27952  1.0000
  C   C93       1.0  0.34231  0.01512  0.17104  1.0000
  C   C94       1.0  0.34037  0.45237  0.00882  1.0000
  H   H109      1.0  0.40144  0.01818  0.19688  1.0000
  S   S32       1.0  0.35016  0.35435  0.30506  1.0000
  C   C95       1.0  0.08701  0.02980  0.16111  1.0000
  C   C96       1.0  0.46899  0.43782  0.17635  1.0000
  N   N7        1.0  0.46354  0.06236  0.11611  1.0000
  H   H110      1.0  0.06768  0.42711  0.17679  1.0000
  H   H111      1.0  0.38579  0.43672  0.06682  1.0000
  H   H112      1.0  0.03955  0.43898  0.31519  1.0000
  H   H113      1.0  0.05013  0.01961  0.28110  1.0000
  S   S33       1.0  0.49665  0.37504  0.01832  1.0000
  C   C97       1.0  0.46863  0.48267  0.04985  1.0000
  H   H114      1.0  0.36949  0.04804  0.24722  1.0000
  H   H115      1.0  0.45816  0.11172  0.28849  1.0000
  C   C98       1.0  0.01614  0.44067  0.30707  1.0000
  C   C99       1.0  0.42911  0.30225  0.28947  1.0000
  N   N8        1.0  0.47851  0.37621  0.12361  1.0000
  H   H116      1.0  0.13690  0.06839  0.12205  1.0000
  C   C100      1.0  0.38100  0.02142  0.20668  1.0000
  C   C101      1.0  0.47581  0.06528  0.04341  1.0000
  H   H117      1.0  0.46251  0.46190  0.31117  1.0000
  C   C102      1.0  0.38814  0.41315  0.32344  1.0000
  C   C103      1.0  0.47085  0.01922  0.18621  1.0000
  H   H118      1.0  0.06050  0.44734  0.13849  1.0000
  H   H119      1.0  0.12053  0.02962  0.31314  1.0000
  C   C104      1.0  0.17446  0.48081  0.15201  1.0000
  H   H120      1.0  0.45361  0.34486  0.12451  1.0000
  C   C105      1.0  0.38881  0.03355  0.22219  1.0000
  H   H121      1.0  0.10766  0.02337  0.17081  1.0000
  H   H122      1.0  0.44425  0.36146  0.10434  1.0000
  C   C106      1.0  0.17386  0.04255  0.11357  1.0000
  H   H123      1.0  0.22774  0.46801  0.19631  1.0000
  C   C107      1.0  0.48017  0.47198  0.28476  1.0000
  C   C108      1.0  0.47239  0.39983  0.04768  1.0000
  N   N9        1.0  0.34023  0.00045  0.18740  1.0000
  S   S34       1.0  0.34298  0.98706  0.09085  1.0000
  H   H124      1.0  0.03341  0.45563  0.15704  1.0000
  H   H125      1.0  0.42426  0.36975  0.12514  1.0000
  C   C109      1.0  0.18423  0.46917  0.13629  1.0000
  C   C110      1.0  0.32996  0.03174  0.23261  1.0000
  H   H126      1.0  0.07658  0.01520  0.15408  1.0000
  C   C111      1.0  0.27724  0.21563  0.31722  1.0000
  C   C112      1.0  0.17032  0.00581  0.12740  1.0000
  H   H127      1.0  0.09393  0.41978  0.15756  1.0000
  H   H128      1.0  0.09329  0.08535  0.28905  1.0000
  C   C113      1.0  0.48009  0.37816  0.14376  1.0000
  C   C114      1.0  0.12069  0.46100  0.15376  1.0000
  C   C115      1.0  0.01840  0.43824  0.28803  1.0000
  C   C116      1.0  0.14329  0.47681  0.16073  1.0000
  H   H129      1.0  0.45547  0.38613  0.14937  1.0000
  C   C117      1.0  0.36335  0.03864  0.23517  1.0000
  C   C118      1.0  0.00528  0.38442  0.29768  1.0000
  C   C119      1.0  0.47352  0.47706  0.03162  1.0000
  C   C120      1.0  0.48990  0.44003  0.21343  1.0000
  C   C121      1.0  0.41637  0.35005  0.32037  1.0000
  C   C122      1.0  0.48359  0.46842  0.30347  1.0000
  C   C123      1.0  0.28590  0.23575  0.32554  1.0000
  H   H130      1.0  0.45662  0.46791  0.27782  1.0000
  H   H131      1.0  0.47349  0.04933  0.15193  1.0000
  H   H132      1.0  0.48439  0.36139  0.15058  1.0000
  S   S35       1.0  0.22458  0.06333  0.32213  1.0000
  C   C124      1.0  0.45711  0.31421  0.28371  1.0000
  H   H133      1.0  0.32488  0.43789  0.00866  1.0000
  C   C125      1.0  0.37446  0.29159  0.31660  1.0000
  H   H134      1.0  0.06758  0.04244  0.32318  1.0000
  H   H135      1.0  0.40833  0.24961  0.28970  1.0000
  H   H136      1.0  0.42964  0.24531  0.32216  1.0000
  H   H137      1.0  0.05559  0.37174  0.28860  1.0000
  C   C126      1.0  0.38798  0.26178  0.29525  1.0000
  H   H138      1.0  0.36579  0.25197  0.29971  1.0000
  C   C127      1.0  0.29270  0.19469  0.32303  1.0000
  H   H139      1.0  0.13820  0.48574  0.17327  1.0000
  C   C128      1.0  0.04053  0.09113  0.32584  1.0000
  H   H140      1.0  0.27323  0.25173  0.32127  1.0000
  H   H141      1.0  0.36561  0.41527  0.31473  1.0000
  C   C129      1.0  0.41994  0.41707  0.31534  1.0000
  H   H142      1.0  0.13215  0.00205  0.14748  1.0000
  C   C130      1.0  0.49355  0.05933  0.14660  1.0000
  H   H143      1.0  0.49260  0.41030  0.11907  1.0000
  H   H144      1.0  0.46582  0.46963  0.06010  1.0000
  H   H145      1.0  0.49157  0.36830  0.08734  1.0000
  C   C131      1.0  0.45066  0.41362  0.32522  1.0000
  H   H146      1.0  0.28421  0.00492  0.18702  1.0000
  C   C132      1.0  0.48650  0.99837  0.02332  1.0000
  C   C133      1.0  0.49266  0.06726  0.12827  1.0000
  H   H147      1.0  0.47539  0.41559  0.31861  1.0000
  C   C134      1.0  0.03848  0.98952  0.32050  1.0000
  H   H148      1.0  0.18061  0.98846  0.12906  1.0000
  H   H149      1.0  0.99827  0.39191  0.28452  1.0000
  H   H150      1.0  0.23446  0.38289  0.41728  1.0000
  C   C135      1.0  0.04127  0.45680  0.53816  1.0000
  H   H151      1.0  0.06604  0.44952  0.54420  1.0000
  S   S36       1.0  0.32978  0.32196  0.35275  1.0000
  H   H152      1.0  0.22941  0.03060  0.48619  1.0000
  Fe  Fe18      1.0  0.28007  0.33902  0.36305  1.0000
  S   S37       1.0  0.27171  0.36103  0.38778  1.0000
  H   H153      1.0  0.18745  0.42406  0.59921  1.0000
  H   H154      1.0  0.20255  0.19566  0.41001  1.0000
  S   S38       1.0  0.24794  0.31009  0.35701  1.0000
  H   H155      1.0  0.45701  0.08652  0.35462  1.0000
  Fe  Fe19      1.0  0.09481  0.46009  0.60416  1.0000
  H   H156      1.0  0.22140  0.15603  0.37368  1.0000
  S   S39       1.0  0.11570  0.43891  0.57971  1.0000
  H   H157      1.0  0.27362  0.03088  0.40862  1.0000
  H   H158      1.0  0.28553  0.17192  0.39236  1.0000
  N   N10       1.0  0.35317  0.40112  0.35093  1.0000
  S   S40       1.0  0.11116  0.45693  0.63392  1.0000
  H   H159      1.0  0.26271  0.06856  0.42211  1.0000
  Fe  Fe20      1.0  0.08863  0.34837  0.49556  1.0000
  S   S41       1.0  0.04328  0.33958  0.47794  1.0000
  S   S42       1.0  0.07392  0.36109  0.52453  1.0000
  Fe  Fe21      1.0  0.14026  0.33164  0.46579  1.0000
  S   S43       1.0  0.09845  0.32212  0.44683  1.0000
  S   S44       1.0  0.19526  0.32209  0.45674  1.0000
  Fe  Fe22      1.0  0.07145  0.35519  0.45470  1.0000
  H   H160      1.0  0.04711  0.99283  0.54103  1.0000
  Fe  Fe23      1.0  0.07437  0.30687  0.47157  1.0000
  S   S45       1.0  0.04849  0.27309  0.46883  1.0000
  S   S46       1.0  0.11509  0.36578  0.47249  1.0000
  S   S47       1.0  0.11788  0.31464  0.49035  1.0000
  H   H161      1.0  0.07991  0.22738  0.57195  1.0000
  H   H162      1.0  0.24622  0.99795  0.42187  1.0000
  S   S48       1.0  0.07116  0.01001  0.58796  1.0000
  S   S49       1.0  0.32079  0.25945  0.35123  1.0000
  Fe  Fe24      1.0  0.02912  0.09741  0.46366  1.0000
  S   S50       1.0  0.07176  0.07022  0.46350  1.0000
  C   C136      1.0  0.11533  0.09619  0.36794  1.0000
  Fe  Fe25      1.0  0.07601  0.13275  0.47798  1.0000
  S   S51       1.0  0.12249  0.10745  0.47896  1.0000
  S   S52       1.0  0.08173  0.16866  0.48893  1.0000
  Fe  Fe26      1.0  0.10433  0.09657  0.45151  1.0000
  S   S53       1.0  0.13494  0.08344  0.42699  1.0000
  Fe  Fe27      1.0  0.08706  0.08237  0.49110  1.0000
  S   S54       1.0  0.10864  0.05330  0.51004  1.0000
  S   S55       1.0  0.06029  0.12323  0.44962  1.0000
  S   S56       1.0  0.04176  0.10839  0.49216  1.0000
  S   S57       1.0  0.29819  0.07856  0.35291  1.0000
  Fe  Fe28      1.0  0.29635  0.29418  0.34425  1.0000
  S   S58       1.0  0.32927  0.12832  0.34990  1.0000
  H   H163      1.0  0.19106  0.17702  0.38285  1.0000
  C   C137      1.0  0.01326  0.99162  0.33412  1.0000
  H   H164      1.0  0.00185  0.37478  0.36771  1.0000
  Fe  Fe29      1.0  0.28495  0.11284  0.36422  1.0000
  S   S59       1.0  0.27084  0.12160  0.39339  1.0000
  C   C138      1.0  0.31043  0.23499  0.33958  1.0000
  H   H165      1.0  0.35830  0.36599  0.34445  1.0000
  C   C139      1.0  0.17271  0.09451  0.41807  1.0000
  C   C140      1.0  0.18844  0.11234  0.42629  1.0000
  C   C141      1.0  0.21872  0.12043  0.41869  1.0000
  C   C142      1.0  0.23289  0.11112  0.40261  1.0000
  C   C143      1.0  0.21698  0.09340  0.39435  1.0000
  C   C144      1.0  0.18742  0.08487  0.40227  1.0000
  H   H166      1.0  0.17746  0.11978  0.43855  1.0000
  H   H167      1.0  0.23113  0.13400  0.42524  1.0000
  H   H168      1.0  0.22805  0.08588  0.38214  1.0000
  H   H169      1.0  0.17591  0.07066  0.39616  1.0000
  C   C145      1.0  0.08143  0.02133  0.56600  1.0000
  C   C146      1.0  0.10739  0.01137  0.55486  1.0000
  C   C147      1.0  0.11504  0.02129  0.53783  1.0000
  C   C148      1.0  0.09675  0.04122  0.53149  1.0000
  C   C149      1.0  0.07029  0.05091  0.54246  1.0000
  C   C150      1.0  0.06287  0.04110  0.55958  1.0000
  H   H170      1.0  0.15443  0.01601  0.45828  1.0000
  H   H171      1.0  0.13562  0.01358  0.52959  1.0000
  H   H172      1.0  0.05599  0.06623  0.53794  1.0000
  H   H173      1.0  0.04280  0.04907  0.56801  1.0000
  C   C151      1.0  0.21032  0.42658  0.60811  1.0000
  C   C152      1.0  0.21872  0.17057  0.38314  1.0000
  H   H174      1.0  0.17470  0.10718  0.35569  1.0000
  H   H175      1.0  0.22516  0.16338  0.39691  1.0000
  H   H176      1.0  0.47388  0.40308  0.35071  1.0000
  C   C153      1.0  0.06345  0.24413  0.47225  1.0000
  C   C154      1.0  0.08677  0.23727  0.48617  1.0000
  C   C155      1.0  0.09299  0.21410  0.49058  1.0000
  C   C156      1.0  0.07700  0.19730  0.48081  1.0000
  C   C157      1.0  0.05540  0.20410  0.46614  1.0000
  C   C158      1.0  0.04820  0.22732  0.46215  1.0000
  H   H177      1.0  0.09883  0.24984  0.49411  1.0000
  H   H178      1.0  0.10987  0.20917  0.50191  1.0000
  H   H179      1.0  0.05300  0.30237  0.56255  1.0000
  Fe  Fe30      1.0  0.05673  0.47123  0.64076  1.0000
  C   C159      1.0  0.27811  0.17808  0.37841  1.0000
  H   H180      1.0  0.01735  0.29498  0.51565  1.0000
  H   H181      1.0  0.23558  0.47248  0.58506  1.0000
  H   H182      1.0  0.40517  0.34150  0.33176  1.0000
  C   C160      1.0  0.26860  0.43736  0.62965  1.0000
  C   C161      1.0  0.22993  0.45458  0.58750  1.0000
  H   H183      1.0  0.03828  0.21695  0.51887  1.0000
  C   C162      1.0  0.10320  0.41726  0.56455  1.0000
  C   C163      1.0  0.07474  0.40436  0.56782  1.0000
  C   C164      1.0  0.06617  0.38749  0.55539  1.0000
  C   C165      1.0  0.08555  0.38329  0.53937  1.0000
  C   C166      1.0  0.11370  0.39641  0.53599  1.0000
  C   C167      1.0  0.12252  0.41309  0.54852  1.0000
  H   H184      1.0  0.05968  0.40703  0.58009  1.0000
  H   H185      1.0  0.04441  0.37750  0.55829  1.0000
  H   H186      1.0  0.12905  0.39346  0.52384  1.0000
  H   H187      1.0  0.14458  0.42286  0.54572  1.0000
  H   H188      1.0  0.01367  0.30036  0.54970  1.0000
  C   C168      1.0  0.00775  0.01172  0.34355  1.0000
  H   H189      1.0  0.25103  0.20799  0.35362  1.0000
  C   C169      1.0  0.01277  0.38524  0.42284  1.0000
  C   C170      1.0  0.41809  0.40266  0.35161  1.0000
  H   H190      1.0  0.18605  0.02853  0.49467  1.0000
  H   H191      1.0  0.10939  0.29374  0.54839  1.0000
  C   C171      1.0  0.04115  0.30478  0.54883  1.0000
  C   C172      1.0  0.15537  0.10542  0.34460  1.0000
  H   H192      1.0  0.05943  0.20171  0.54854  1.0000
  C   C173      1.0  0.24834  0.35009  0.40621  1.0000
  C   C174      1.0  0.24601  0.32684  0.40861  1.0000
  C   C175      1.0  0.22885  0.31850  0.42391  1.0000
  C   C176      1.0  0.21300  0.33327  0.43665  1.0000
  C   C177      1.0  0.21470  0.35656  0.43404  1.0000
  C   C178      1.0  0.23252  0.36490  0.41894  1.0000
  H   H193      1.0  0.25849  0.31523  0.39905  1.0000
  H   H194      1.0  0.22831  0.30052  0.42608  1.0000
  H   H195      1.0  0.20334  0.36808  0.44402  1.0000
  N   N11       1.0  0.06012  0.29126  0.53469  1.0000
  C   C179      1.0  0.09697  0.29680  0.53486  1.0000
  C   C180      1.0  0.04515  0.29857  0.51676  1.0000
  S   S60       1.0  0.39007  0.07292  0.33444  1.0000
  C   C181      1.0  0.05816  0.26682  0.53849  1.0000
  H   H196      1.0  0.41779  0.26750  0.33827  1.0000
  H   H197      1.0  0.20806  0.00234  0.44827  1.0000
  C   C182      1.0  0.25115  0.45441  0.61861  1.0000
  H   H198      1.0  0.17109  0.09972  0.33263  1.0000
  H   H199      1.0  0.36839  0.41114  0.37791  1.0000
  H   H200      1.0  0.48858  0.05013  0.36212  1.0000
  C   C183      1.0  0.05864  0.21974  0.54588  1.0000
  C   C184      1.0  0.19095  0.46528  0.61190  1.0000
  C   C185      1.0  0.02424  0.36572  0.33160  1.0000
  Fe  Fe31      1.0  0.33915  0.09458  0.33625  1.0000
  H   H201      1.0  0.08022  0.26786  0.56586  1.0000
  N   N12       1.0  0.22122  0.45008  0.60680  1.0000
  H   H202      1.0  0.05951  0.29021  0.50530  1.0000
  H   H203      1.0  0.03691  0.25702  0.51212  1.0000
  S   S61       1.0  0.26898  0.35691  0.33646  1.0000
  H   H204      1.0  0.09842  0.08354  0.37386  1.0000
  H   H205      1.0  0.16727  0.46142  0.60420  1.0000
  H   H206      1.0  0.12779  0.05394  0.35586  1.0000
  C   C186      1.0  0.07015  0.25740  0.55541  1.0000
  C   C187      1.0  0.25939  0.22705  0.38663  1.0000
  C   C188      1.0  0.25775  0.24581  0.39799  1.0000
  C   C189      1.0  0.21692  0.22806  0.41732  1.0000
  C   C190      1.0  0.23661  0.24629  0.41333  1.0000
  H   H207      1.0  0.14312  0.12248  0.34134  1.0000
  H   H208      1.0  0.29739  0.19005  0.37405  1.0000
  H   H209      1.0  0.27657  0.22745  0.37504  1.0000
  H   H210      1.0  0.27315  0.25999  0.39488  1.0000
  H   H211      1.0  0.23564  0.26074  0.42224  1.0000
  H   H212      1.0  0.00933  0.04847  0.40086  1.0000
  C   C191      1.0  0.21828  0.20922  0.40601  1.0000
  N   N13       1.0  0.24214  0.18843  0.37802  1.0000
  H   H213      1.0  0.11237  0.28650  0.52476  1.0000
  H   H214      1.0  0.09980  0.31492  0.53143  1.0000
  H   H215      1.0  0.02742  0.44205  0.53350  1.0000
  N   N14       1.0  0.13108  0.35267  0.39172  1.0000
  C   C192      1.0  0.10435  0.33720  0.39735  1.0000
  C   C193      1.0  0.16262  0.33858  0.38644  1.0000
  C   C194      1.0  0.14036  0.36612  0.40769  1.0000
  C   C195      1.0  0.11709  0.36788  0.37695  1.0000
  C   C196      1.0  0.13240  0.36872  0.35937  1.0000
  C   C197      1.0  0.08682  0.38229  0.37986  1.0000
  C   C198      1.0  0.11823  0.38314  0.34570  1.0000
  C   C199      1.0  0.07295  0.39671  0.36611  1.0000
  H   H216      1.0  0.06904  0.47924  0.56368  1.0000
  H   H217      1.0  0.11479  0.32435  0.40745  1.0000
  H   H218      1.0  0.08175  0.34628  0.40404  1.0000
  H   H219      1.0  0.09463  0.32801  0.38546  1.0000
  H   H220      1.0  0.15744  0.32733  0.37485  1.0000
  H   H221      1.0  0.17250  0.32745  0.39789  1.0000
  H   H222      1.0  0.18433  0.34915  0.38265  1.0000
  H   H223      1.0  0.14967  0.35506  0.41929  1.0000
  H   H224      1.0  0.16116  0.37753  0.40426  1.0000
  H   H225      1.0  0.11804  0.37673  0.41305  1.0000
  H   H226      1.0  0.15540  0.35841  0.35573  1.0000
  H   H227      1.0  0.07377  0.38256  0.39290  1.0000
  H   H228      1.0  0.13051  0.38344  0.33242  1.0000
  H   H229      1.0  0.05009  0.40773  0.36880  1.0000
  H   H230      1.0  0.01338  0.15918  0.47179  1.0000
  C   C200      1.0  0.48272  0.08262  0.34911  1.0000
  C   C201      1.0  0.25694  0.03293  0.42043  1.0000
  H   H231      1.0  0.16794  0.06601  0.36159  1.0000
  C   C202      1.0  0.04653  0.22840  0.52919  1.0000
  C   C203      1.0  0.29134  0.48101  0.63064  1.0000
  C   C204      1.0  0.32222  0.40568  0.33907  1.0000
  H   H232      1.0  0.03002  0.23231  0.45139  1.0000
  C   C205      1.0  0.23327  0.19567  0.35907  1.0000
  H   H233      1.0  0.03398  0.44678  0.57317  1.0000
  H   H234      1.0  0.29781  0.40217  0.34633  1.0000
  H   H235      1.0  0.05601  0.09273  0.35342  1.0000
  H   H236      1.0  0.02015  0.07123  0.42814  1.0000
  H   H237      1.0  0.25313  0.44385  0.58322  1.0000
  H   H238      1.0  0.37517  0.37232  0.36643  1.0000
  H   H239      1.0  0.32288  0.41238  0.37418  1.0000
  C   C206      1.0  0.38625  0.40585  0.34193  1.0000
  H   H240      1.0  0.34590  0.21348  0.35575  1.0000
  S   S62       1.0  0.05440  0.38128  0.43287  1.0000
  C   C207      1.0  0.00253  0.47669  0.47114  1.0000
  C   C208      1.0  0.20275  0.02640  0.48232  1.0000
  H   H241      1.0  0.13548  0.03665  0.47335  1.0000
  H   H242      1.0  0.20059  0.22853  0.42933  1.0000
  C   C209      1.0  0.23960  0.20817  0.39022  1.0000
  N   N15       1.0  0.18919  0.04097  0.46701  1.0000
  C   C210      1.0  0.15429  0.03408  0.46194  1.0000
  H   H243      1.0  0.22511  0.07408  0.44810  1.0000
  C   C211      1.0  0.18491  0.06440  0.47384  1.0000
  C   C212      1.0  0.21271  0.03855  0.45114  1.0000
  C   C213      1.0  0.21966  0.01714  0.44303  1.0000
  C   C214      1.0  0.22905  0.05706  0.44317  1.0000
  H   H244      1.0  0.02612  0.46588  0.47265  1.0000
  C   C215      1.0  0.25083  0.05415  0.42808  1.0000
  H   H245      1.0  0.04648  0.31707  0.51447  1.0000
  H   H246      1.0  0.02468  0.41632  0.40953  1.0000
  H   H247      1.0  0.04831  0.46711  0.52615  1.0000
  H   H248      1.0  0.14368  0.04414  0.45005  1.0000
  H   H249      1.0  0.20656  0.20380  0.35820  1.0000
  S   S63       1.0  0.03975  0.47079  0.61134  1.0000
  H   H250      1.0  0.20371  0.00818  0.47899  1.0000
  H   H251      1.0  0.17355  0.07613  0.46314  1.0000
  H   H252      1.0  0.16708  0.06569  0.48577  1.0000
  H   H253      1.0  0.20998  0.07057  0.47848  1.0000
  H   H254      1.0  0.00667  0.00084  0.53075  1.0000
  H   H255      1.0  0.41885  0.39669  0.36556  1.0000
  C   C216      1.0  0.02767  0.02982  0.33955  1.0000
  H   H256      1.0  0.34846  0.43344  0.36393  1.0000
  N   N16       1.0  0.02060  0.47061  0.55154  1.0000
  H   H257      1.0  0.31948  0.42363  0.33451  1.0000
  N   N17       1.0  0.12894  0.08942  0.34973  1.0000
  H   H258      1.0  0.23128  0.41411  0.60367  1.0000
  H   H259      1.0  0.28125  0.16333  0.36919  1.0000
  C   C217      1.0  0.26349  0.47637  0.61942  1.0000
  C   C218      1.0  0.32670  0.21415  0.34498  1.0000
  C   C219      1.0  0.06557  0.09112  0.33966  1.0000
  C   C220      1.0  0.24143  0.01444  0.42790  1.0000
  H   H260      1.0  0.07783  0.40823  0.33833  1.0000
  H   H261      1.0  0.13648  0.09767  0.37805  1.0000
  H   H262      1.0  0.04296  0.19158  0.45835  1.0000
  C   C221      1.0  0.35415  0.37703  0.35649  1.0000
  C   C222      1.0  0.07024  0.23422  0.55902  1.0000
  C   C223      1.0  0.29642  0.44223  0.64085  1.0000
  H   H263      1.0  0.26103  0.42020  0.63010  1.0000
  H   H264      1.0  0.20232  0.42235  0.62224  1.0000
  C   C224      1.0  0.10161  0.08926  0.33554  1.0000
  H   H265      1.0  0.32950  0.37272  0.36313  1.0000
  H   H266      1.0  0.18533  0.46375  0.62672  1.0000
  H   H267      1.0  0.04113  0.32325  0.54578  1.0000
  H   H268      1.0  0.32863  0.46784  0.65047  1.0000
  H   H269      1.0  0.12207  0.99624  0.55952  1.0000
  H   H270      1.0  0.33014  0.17805  0.34121  1.0000
  C   C225      1.0  0.30774  0.46398  0.64135  1.0000
  C   C226      1.0  0.00527  0.40423  0.41154  1.0000
  C   C227      1.0  0.08861  0.39712  0.34904  1.0000
  H   H271      1.0  0.30897  0.42919  0.64950  1.0000
  C   C228      1.0  0.34810  0.41516  0.36741  1.0000
  C   C229      1.0  0.01072  0.45545  0.56653  1.0000
  S   S64       1.0  0.24575  0.12243  0.34260  1.0000
  C   C230      1.0  0.04606  0.25158  0.52548  1.0000
  H   H272      1.0  0.23512  0.18121  0.34947  1.0000
  H   H273      1.0  0.20806  0.45112  0.57821  1.0000
  C   C231      1.0  0.14630  0.06650  0.35150  1.0000
  H   H274      1.0  0.46795  0.34798  0.33191  1.0000
  H   H275      1.0  0.10068  0.11296  0.36730  1.0000
  H   H276      1.0  0.03346  0.35822  0.34431  1.0000
  H   H277      1.0  0.19490  0.48336  0.60910  1.0000
  H   H278      1.0  0.15801  0.06063  0.33840  1.0000
  C   C232      1.0  0.31774  0.19405  0.33681  1.0000
  C   C233      1.0  0.44974  0.40643  0.34330  1.0000
  Fe  Fe32      1.0  0.23906  0.32718  0.32976  1.0000
  H   H279      1.0  0.48241  0.11323  0.33335  1.0000
  H   H280      1.0  0.01487  0.99165  0.57102  1.0000
  S   S65       1.0  0.01545  0.46039  0.66075  1.0000
  Fe  Fe33      1.0  0.26206  0.08922  0.33001  1.0000
  H   H281      1.0  0.00429  0.18892  0.49224  1.0000
  H   H282      1.0  0.02295  0.04544  0.34689  1.0000
  H   H283      1.0  0.99869  0.23007  0.49273  1.0000
  C   C234      1.0  0.02376  0.98589  0.53487  1.0000
  H   H284      1.0  0.20079  0.46915  0.66168  1.0000
  H   H285      1.0  0.01317  0.09284  0.32923  1.0000
  H   H286      1.0  0.38603  0.24987  0.32998  1.0000
  H   H287      1.0  0.04782  0.45982  0.81102  1.0000
  C   C235      1.0  0.43762  0.01743  0.82299  1.0000
  H   H288      1.0  0.42468  0.02379  0.83508  1.0000
  H   H289      1.0  0.41591  0.99961  0.78079  1.0000
  C   C236      1.0  0.24930  0.47792  0.67375  1.0000
  H   H290      1.0  0.25484  0.46135  0.67976  1.0000
  H   H291      1.0  0.07172  0.48041  0.79907  1.0000
  C   C237      1.0  0.46791  0.00143  0.79079  1.0000
  C   C238      1.0  0.00230  0.47270  0.68190  1.0000
  H   H292      1.0  0.05147  0.45895  0.78668  1.0000
  C   C239      1.0  0.41687  0.01244  0.80812  1.0000
  H   H293      1.0  0.47625  0.48076  0.93541  1.0000
  C   C240      1.0  0.43199  0.00420  0.79212  1.0000
  C   C241      1.0  0.04825  0.47051  0.79847  1.0000
  H   H294      1.0  0.38887  0.01464  0.80904  1.0000
  H   H295      1.0  0.32125  0.46348  0.98236  1.0000
  H   H296      1.0  0.47954  0.99472  0.77838  1.0000
  H   H297      1.0  0.46599  0.04888  0.84569  1.0000
  C   C242      1.0  0.47430  0.01386  0.82237  1.0000
  H   H298      1.0  0.45692  0.01238  0.85935  1.0000
  C   C243      1.0  0.48892  0.00617  0.80562  1.0000
  H   H299      1.0  0.43737  0.47774  0.79929  1.0000
  C   C244      1.0  0.46105  0.48250  0.79293  1.0000
  H   H300      1.0  0.48043  0.98742  0.85131  1.0000
  H   H301      1.0  0.48557  0.44859  0.91478  1.0000
  C   C245      1.0  0.48270  0.00552  0.85463  1.0000
  C   C246      1.0  0.33816  0.46689  0.99366  1.0000
  H   H302      1.0  0.47851  0.44357  0.94535  1.0000
  N   N18       1.0  0.49556  0.01806  0.83867  1.0000
  C   C247      1.0  0.02422  0.48536  0.69228  1.0000
  C   C248      1.0  0.49245  0.48024  0.80287  1.0000
  H   H303      1.0  0.49280  0.47373  0.81669  1.0000
  C   C249      1.0  0.21855  0.48228  0.66341  1.0000
  C   C250      1.0  0.49304  0.04249  0.84272  1.0000
  H   H304      1.0  0.48765  0.41822  0.97171  1.0000
  N   N19       1.0  0.01618  0.48545  0.79682  1.0000
  C   C251      1.0  0.42125  0.93899  0.03205  1.0000
  H   H305      1.0  0.45763  0.90659  0.00992  1.0000
  H   H306      1.0  0.40152  0.56416  0.03809  1.0000
  H   H307      1.0  0.30141  0.98072  0.17533  1.0000
  C   C252      1.0  0.02506  0.50000  0.32304  1.0000
  S   S66       1.0  0.38686  0.50662  0.08607  1.0000
  C   C253      1.0  0.34878  0.51380  0.05356  1.0000
  S   S67       1.0  0.35280  0.55491  0.00836  1.0000
  H   H308      1.0  0.42269  0.94986  0.05997  1.0000
  H   H309      1.0  0.37233  0.75142  0.99997  1.0000
  Fe  Fe34      1.0  0.38096  0.96003  0.10228  1.0000
  C   C254      1.0  0.34170  0.52493  0.03666  1.0000
  S   S68       1.0  0.39266  0.92508  0.08924  1.0000
  H   H310      1.0  0.00992  0.94779  0.26824  1.0000
  H   H311      1.0  0.46889  0.53934  0.04692  1.0000
  H   H312      1.0  0.42568  0.54032  0.00447  1.0000
  H   H313      1.0  0.20825  0.96476  0.17088  1.0000
  S   S69       1.0  0.36592  0.96717  0.13194  1.0000
  H   H314      1.0  0.32127  0.51937  0.02805  1.0000
  S   S70       1.0  0.34675  0.87575  0.01582  1.0000
  H   H315      1.0  0.25538  0.97097  0.14873  1.0000
  H   H316      1.0  0.33365  0.50004  0.05782  1.0000
  C   C255      1.0  0.47630  0.51715  0.02328  1.0000
  C   C256      1.0  0.36110  0.54287  0.03063  1.0000
  C   C257      1.0  0.47081  0.52226  0.04197  1.0000
  C   C258      1.0  0.38695  0.55005  0.04217  1.0000
  C   C259      1.0  0.37519  0.52064  0.06491  1.0000
  H   H317      1.0  0.03712  0.48864  0.29588  1.0000
  H   H318      1.0  0.42948  0.92198  0.03624  1.0000
  H   H319      1.0  0.04042  0.97364  0.31342  1.0000
  C   C260      1.0  0.39365  0.53916  0.05920  1.0000
  H   H320      1.0  0.41347  0.54508  0.06803  1.0000
  C   C261      1.0  0.36623  0.98100  0.18573  1.0000
  N   N20       1.0  0.48049  0.53475  0.00913  1.0000
  C   C262      1.0  0.37950  0.91185  0.06865  1.0000
  C   C263      1.0  0.35171  0.92061  0.05787  1.0000
  C   C264      1.0  0.34206  0.90927  0.04194  1.0000
  C   C265      1.0  0.36029  0.88922  0.03624  1.0000
  C   C266      1.0  0.38849  0.88069  0.04685  1.0000
  C   C267      1.0  0.39774  0.89180  0.06296  1.0000
  H   H321      1.0  0.33728  0.93593  0.06195  1.0000
  H   H322      1.0  0.32015  0.91611  0.03399  1.0000
  H   H323      1.0  0.40274  0.86525  0.04287  1.0000
  H   H324      1.0  0.41917  0.88472  0.07114  1.0000
  H   H325      1.0  0.39450  0.97348  0.99647  1.0000
  C   C268      1.0  0.41354  0.94498  0.01360  1.0000
  H   H326      1.0  0.11060  0.98308  0.28222  1.0000
  C   C269      1.0  0.44999  0.53586  0.99683  1.0000
  C   C270      1.0  0.41728  0.95490  0.04594  1.0000
  H   H327      1.0  0.41465  0.89767  0.01448  1.0000
  S   S71       1.0  0.42643  0.98234  0.10338  1.0000
  C   C271      1.0  0.00135  0.98372  0.27108  1.0000
  H   H328      1.0  0.39195  0.50603  0.00763  1.0000
  C   C272      1.0  0.40168  0.96778  0.01006  1.0000
  H   H329      1.0  0.45932  0.56406  0.02358  1.0000
  H   H330      1.0  0.48420  0.96522  0.03510  1.0000
  C   C273      1.0  0.37830  0.71504  0.99703  1.0000
  C   C274      1.0  0.47840  0.97996  0.17798  1.0000
  C   C275      1.0  0.48355  0.55769  0.01664  1.0000
  H   H331      1.0  0.09886  0.97035  0.30344  1.0000
  H   H332      1.0  0.47309  0.96626  0.16903  1.0000
  H   H333      1.0  0.36767  0.97060  0.19846  1.0000
  H   H334      1.0  0.35590  0.71209  0.00531  1.0000
  S   S72       1.0  0.42257  0.60122  0.99611  1.0000
  H   H335      1.0  0.07742  0.48793  0.17567  1.0000
  C   C276      1.0  0.43105  0.90577  0.00427  1.0000
  H   H336      1.0  0.30180  0.98036  0.19970  1.0000
  C   C277      1.0  0.09067  0.98359  0.29318  1.0000
  N   N21       1.0  0.41586  0.92843  0.99862  1.0000
  C   C278      1.0  0.37839  0.49065  0.00775  1.0000
  C   C279      1.0  0.40542  0.97706  0.04200  1.0000
  H   H337      1.0  0.47996  0.48887  0.00447  1.0000
  H   H338      1.0  0.06652  0.97872  0.28647  1.0000
  C   C280      1.0  0.21432  0.98180  0.16740  1.0000
  H   H339      1.0  0.35999  0.96979  0.17429  1.0000
  H   H340      1.0  0.36318  0.91986  0.00243  1.0000
  H   H341      1.0  0.48804  0.57032  0.00566  1.0000
  C   C281      1.0  0.47690  0.49401  0.01847  1.0000
  C   C282      1.0  0.46693  0.50520  0.05496  1.0000
  C   C283      1.0  0.01737  0.49614  0.30485  1.0000
  H   H342      1.0  0.46204  0.50953  0.06911  1.0000
  C   C284      1.0  0.39774  0.98352  0.02408  1.0000
  H   H343      1.0  0.19188  0.49235  0.15788  1.0000
  C   C285      1.0  0.24122  0.98528  0.15483  1.0000
  C   C286      1.0  0.99676  0.96127  0.27589  1.0000
  H   H344      1.0  0.05107  0.49572  0.32808  1.0000
  S   S73       1.0  0.07043  0.50721  0.63996  1.0000
  S   S74       1.0  0.01142  0.53095  0.60049  1.0000
  C   C287      1.0  0.30554  0.89799  0.62744  1.0000
  C   C288      1.0  0.29350  0.91980  0.62241  1.0000
  S   S75       1.0  0.19133  0.92736  0.63312  1.0000
  Fe  Fe35      1.0  0.08442  0.92637  0.59356  1.0000
  H   H345      1.0  0.05356  0.71981  0.55389  1.0000
  S   S76       1.0  0.10088  0.91565  0.62168  1.0000
  S   S77       1.0  0.03306  0.92543  0.65521  1.0000
  S   S78       1.0  0.12649  0.95071  0.59131  1.0000
  C   C289      1.0  0.00395  0.54425  0.57898  1.0000
  S   S79       1.0  0.07537  0.90323  0.56975  1.0000
  H   H346      1.0  0.05602  0.96215  0.56117  1.0000
  H   H347      1.0  0.42815  0.88312  0.66140  1.0000
  H   H348      1.0  0.00704  0.51129  0.34874  1.0000
  C   C290      1.0  0.42083  0.91517  0.63581  1.0000
  H   H349      1.0  0.04838  0.87856  0.53999  1.0000
  C   C291      1.0  0.03421  0.89277  0.56603  1.0000
  H   H350      1.0  0.11807  0.89603  0.65925  1.0000
  H   H351      1.0  0.07374  0.74980  0.57364  1.0000
  Fe  Fe36      1.0  0.13959  0.94228  0.62085  1.0000
  C   C292      1.0  0.34601  0.93414  0.63434  1.0000
  H   H352      1.0  0.04526  0.94307  0.54366  1.0000
  S   S80       1.0  0.04333  0.95150  0.60357  1.0000
  C   C293      1.0  0.03403  0.95392  0.55472  1.0000
  H   H353      1.0  0.26801  0.92281  0.61628  1.0000
  H   H354      1.0  0.01807  0.82115  0.56692  1.0000
  H   H355      1.0  0.40369  0.87325  0.64299  1.0000
  Fe  Fe37      1.0  0.12397  0.49345  0.63157  1.0000
  Fe  Fe38      1.0  0.06224  0.94244  0.63203  1.0000
  H   H356      1.0  0.34518  0.87683  0.63979  1.0000
  H   H357      1.0  0.16385  0.89934  0.66022  1.0000
  C   C294      1.0  0.33781  0.89409  0.63599  1.0000
  H   H358      1.0  0.44719  0.91246  0.64200  1.0000
  C   C295      1.0  0.02972  0.54492  0.56567  1.0000
  H   H359      1.0  0.47371  0.59866  0.64871  1.0000
  C   C296      1.0  0.23113  0.95770  0.65154  1.0000
  H   H360      1.0  0.03254  0.49596  0.57127  1.0000
  H   H361      1.0  0.45365  0.56153  0.64044  1.0000
  C   C297      1.0  0.23481  0.52024  0.65783  1.0000
  C   C298      1.0  0.21111  0.50348  0.65523  1.0000
  H   H362      1.0  0.30360  0.95487  0.62253  1.0000
  H   H363      1.0  0.21627  0.97109  0.64434  1.0000
  H   H364      1.0  0.01208  0.90505  0.59118  1.0000
  C   C299      1.0  0.22333  0.93526  0.64903  1.0000
  C   C300      1.0  0.00425  0.54666  0.48331  1.0000
  H   H365      1.0  0.05550  0.53751  0.56852  1.0000
  C   C301      1.0  0.31361  0.93785  0.62593  1.0000
  C   C302      1.0  0.35911  0.91215  0.63970  1.0000
  C   C303      1.0  0.47599  0.56787  0.63364  1.0000
  H   H366      1.0  0.02378  0.94279  0.56544  1.0000
  S   S81       1.0  0.10147  0.96910  0.63200  1.0000
  H   H367      1.0  0.36042  0.94875  0.63693  1.0000
  C   C304      1.0  0.00749  0.89627  0.57867  1.0000
  H   H368      1.0  0.42050  0.90499  0.62318  1.0000
  H   H369      1.0  0.28930  0.88412  0.62504  1.0000
  N   N22       1.0  0.39351  0.90874  0.64863  1.0000
  H   H370      1.0  0.41756  0.93326  0.63169  1.0000
  H   H371      1.0  0.48496  0.53854  0.61712  1.0000
  C   C305      1.0  0.02783  0.88123  0.54986  1.0000
  H   H372      1.0  0.04120  0.78597  0.57580  1.0000
  H   H373      1.0  0.00201  0.56509  0.48632  1.0000
  H   H374      1.0  0.04248  0.55662  0.53867  1.0000
  H   H375      1.0  0.22954  0.53671  0.65159  1.0000
  S   S82       1.0  0.17324  0.50999  0.64145  1.0000
  Fe  Fe39      1.0  0.05537  0.50641  0.61035  1.0000
  C   C306      1.0  0.02232  0.55582  0.54880  1.0000
  Fe  Fe40      1.0  0.08590  0.97584  0.60223  1.0000
  H   H376      1.0  0.02390  0.54410  0.47237  1.0000
  H   H377      1.0  0.00473  0.81329  0.53466  1.0000
  H   H378      1.0  0.03231  0.97673  0.52235  1.0000
  H   H379      1.0  0.04885  0.50052  0.54871  1.0000
  C   C307      1.0  0.48737  0.58880  0.63830  1.0000
  S   S83       1.0  0.10970  0.49621  0.60161  1.0000
  H   H380      1.0  0.29960  0.49806  0.63151  1.0000
  C   C308      1.0  0.04991  0.75278  0.56591  1.0000
  C   C309      1.0  0.00821  0.73967  0.54471  1.0000
  H   H381      1.0  0.02611  0.50542  0.48084  1.0000
  H   H382      1.0  0.23792  0.90071  0.65649  1.0000
  C   C310      1.0  0.24345  0.91814  0.65836  1.0000
  C   C311      1.0  0.03078  0.77357  0.56706  1.0000
  H   H383      1.0  0.00028  0.54057  0.63906  1.0000
  H   H384      1.0  0.01417  0.53839  0.49615  1.0000
  C   C312      1.0  0.03862  0.73586  0.55479  1.0000
  C   C313      1.0  0.99943  0.77792  0.55706  1.0000
  H   H385      1.0  0.25118  0.49031  0.61171  1.0000
  C   C314      1.0  0.99933  0.50892  0.33481  1.0000
  N   N23       1.0  0.00680  0.97070  0.54779  1.0000
  H   H386      1.0  0.14670  0.94043  0.66181  1.0000
  C   C315      1.0  0.49392  0.55486  0.62062  1.0000
  C   C316      1.0  0.40228  0.88506  0.65464  1.0000
  C   C317      1.0  0.00218  0.49954  0.47572  1.0000
  H   H387      1.0  0.39352  0.94146  0.66162  1.0000
  H   H388      1.0  0.99955  0.72660  0.53591  1.0000
  H   H389      1.0  0.99715  0.97772  0.33703  1.0000
  C   C318      1.0  0.04362  0.48733  0.55904  1.0000
  H   H390      1.0  0.00043  0.53232  0.66234  1.0000
  Fe  Fe41      1.0  0.39477  0.63229  0.98300  1.0000
  S   S84       1.0  0.34537  0.61447  0.97919  1.0000
  H   H391      1.0  0.02398  0.48878  0.76758  1.0000
  Fe  Fe42      1.0  0.43838  0.59124  0.96748  1.0000
  S   S85       1.0  0.39170  0.57194  0.96206  1.0000
  H   H392      1.0  0.09950  0.92423  0.70366  1.0000
  Fe  Fe43      1.0  0.36667  0.60500  0.95170  1.0000
  S   S86       1.0  0.34245  0.61461  0.92404  1.0000
  S   S87       1.0  0.41516  0.62362  0.95516  1.0000
  H   H393      1.0  0.47425  0.94086  0.75514  1.0000
  Fe  Fe44      1.0  0.17551  0.63105  0.82370  1.0000
  S   S88       1.0  0.14073  0.61191  0.84188  1.0000
  S   S89       1.0  0.15992  0.66521  0.81141  1.0000
  Fe  Fe45      1.0  0.22844  0.59121  0.81985  1.0000
  S   S90       1.0  0.19742  0.56904  0.83736  1.0000
  S   S91       1.0  0.27970  0.57473  0.81110  1.0000
  Fe  Fe46      1.0  0.15054  0.58358  0.82203  1.0000
  S   S92       1.0  0.11442  0.56203  0.80615  1.0000
  Fe  Fe47      1.0  0.19112  0.59921  0.85555  1.0000
  S   S93       1.0  0.20052  0.59300  0.88587  1.0000
  S   S94       1.0  0.18267  0.60353  0.80309  1.0000
  S   S95       1.0  0.22483  0.62066  0.83875  1.0000
  H   H394      1.0  0.04734  0.83838  0.77375  1.0000
  S   S96       1.0  0.42119  0.54478  0.72753  1.0000
  H   H395      1.0  0.35430  0.49779  0.98175  1.0000
  S   S97       1.0  0.36897  0.54265  0.69156  1.0000
  Fe  Fe48      1.0  0.42433  0.53133  0.69897  1.0000
  S   S98       1.0  0.47153  0.53354  0.68040  1.0000
  Fe  Fe49      1.0  0.36479  0.55261  0.72101  1.0000
  S   S99       1.0  0.33224  0.58336  0.73002  1.0000
  S   S100      1.0  0.10270  0.83544  0.79971  1.0000
  S   S101      1.0  0.34810  0.51926  0.73071  1.0000
  Fe  Fe50      1.0  0.38825  0.92549  0.74223  1.0000
  S   S102      1.0  0.39013  0.88756  0.74146  1.0000
  H   H396      1.0  0.42035  0.57344  0.88629  1.0000
  Fe  Fe51      1.0  0.34727  0.92969  0.70533  1.0000
  S   S103      1.0  0.34843  0.89222  0.70244  1.0000
  C   C319      1.0  0.17759  0.89794  0.70478  1.0000
  Fe  Fe52      1.0  0.33473  0.89173  0.73206  1.0000
  S   S104      1.0  0.28491  0.87672  0.74026  1.0000
  Fe  Fe53      1.0  0.40407  0.89208  0.71180  1.0000
  S   S105      1.0  0.44371  0.86711  0.69867  1.0000
  S   S106      1.0  0.33150  0.92926  0.73467  1.0000
  S   S107      1.0  0.40444  0.93000  0.71284  1.0000
  Fe  Fe54      1.0  0.18881  0.83373  0.85535  1.0000
  S   S108      1.0  0.22266  0.80275  0.85001  1.0000
  S   S109      1.0  0.20160  0.85396  0.88035  1.0000
  Fe  Fe55      1.0  0.14310  0.82617  0.82179  1.0000
  S   S110      1.0  0.17504  0.79418  0.81461  1.0000
  Fe  Fe56      1.0  0.17372  0.78608  0.84445  1.0000
  S   S111      1.0  0.17218  0.75249  0.85911  1.0000
  Fe  Fe57      1.0  0.22080  0.81391  0.82097  1.0000
  S   S112      1.0  0.27324  0.81090  0.80774  1.0000
  S   S113      1.0  0.13888  0.81653  0.85158  1.0000
  S   S114      1.0  0.18980  0.84638  0.82630  1.0000
  H   H397      1.0  0.43324  0.58693  0.82566  1.0000
  Fe  Fe58      1.0  0.35913  0.83466  0.95497  1.0000
  S   S115      1.0  0.41474  0.82143  0.95306  1.0000
  S   S116      1.0  0.33380  0.82389  0.92865  1.0000
  Fe  Fe59      1.0  0.40704  0.80595  0.98071  1.0000
  H   H398      1.0  0.11103  0.63390  0.80311  1.0000
  Fe  Fe60      1.0  0.42884  0.85288  0.96679  1.0000
  C   C320      1.0  0.45997  0.79302  0.91031  1.0000
  C   C321      1.0  0.47693  0.87171  0.92415  1.0000
  S   S117      1.0  0.37405  0.86758  0.96665  1.0000
  C   C322      1.0  0.32648  0.75553  0.93007  1.0000
  H   H399      1.0  0.48588  0.82797  0.96810  1.0000
  S   S118      1.0  0.43199  0.76945  0.98085  1.0000
  H   H400      1.0  0.26976  0.53294  0.75793  1.0000
  H   H401      1.0  0.18493  0.55175  0.79281  1.0000
  C   C323      1.0  0.24230  0.53739  0.75921  1.0000
  C   C324      1.0  0.44572  0.55789  0.77710  1.0000
  C   C325      1.0  0.39786  0.69645  0.98962  1.0000
  C   C326      1.0  0.01513  0.50148  0.81226  1.0000
  H   H402      1.0  0.08918  0.94303  0.73617  1.0000
  H   H403      1.0  0.36781  0.67507  0.93001  1.0000
  C   C327      1.0  0.24018  0.84758  0.89307  1.0000
  C   C328      1.0  0.24411  0.85708  0.91037  1.0000
  C   C329      1.0  0.27335  0.85082  0.92132  1.0000
  C   C330      1.0  0.29873  0.83490  0.91503  1.0000
  C   C331      1.0  0.29521  0.82597  0.89755  1.0000
  C   C332      1.0  0.26641  0.83246  0.88657  1.0000
  H   H404      1.0  0.22412  0.86895  0.91550  1.0000
  H   H405      1.0  0.27572  0.85777  0.93479  1.0000
  H   H406      1.0  0.31480  0.81373  0.89255  1.0000
  H   H407      1.0  0.26442  0.82543  0.87320  1.0000
  H   H408      1.0  0.27687  0.80078  0.94703  1.0000
  H   H409      1.0  0.18162  0.75092  0.93510  1.0000
  H   H410      1.0  0.42202  0.94584  0.80659  1.0000
  C   C333      1.0  0.28279  0.85871  0.75925  1.0000
  C   C334      1.0  0.25010  0.85456  0.76625  1.0000
  C   C335      1.0  0.24711  0.84014  0.78131  1.0000
  C   C336      1.0  0.27683  0.82948  0.78921  1.0000
  C   C337      1.0  0.30960  0.83363  0.78228  1.0000
  C   C338      1.0  0.31262  0.84842  0.76737  1.0000
  H   H411      1.0  0.22701  0.86251  0.75997  1.0000
  H   H412      1.0  0.22175  0.83695  0.78656  1.0000
  H   H413      1.0  0.33267  0.82545  0.78840  1.0000
  H   H414      1.0  0.33790  0.85165  0.76202  1.0000
  Fe  Fe61      1.0  0.37477  0.58285  0.99032  1.0000
  C   C339      1.0  0.48319  0.78429  0.94037  1.0000
  H   H415      1.0  0.09581  0.62198  0.78268  1.0000
  H   H416      1.0  0.03155  0.66999  0.79482  1.0000
  H   H417      1.0  0.00708  0.88301  0.82706  1.0000
  C   C340      1.0  0.45398  0.55773  0.81001  1.0000
  H   H418      1.0  0.42701  0.56079  0.76562  1.0000
  C   C341      1.0  0.27992  0.94561  0.67177  1.0000
  H   H419      1.0  0.35756  0.57959  0.88509  1.0000
  H   H420      1.0  0.28334  0.71017  0.91842  1.0000
  H   H421      1.0  0.45746  0.85951  0.92538  1.0000
  C   C342      1.0  0.27136  0.92324  0.66972  1.0000
  H   H422      1.0  0.14444  0.88006  0.67542  1.0000
  C   C343      1.0  0.01403  0.55584  0.79176  1.0000
  C   C344      1.0  0.06937  0.64990  0.83140  1.0000
  C   C345      1.0  0.16274  0.68924  0.82496  1.0000
  C   C346      1.0  0.15694  0.71069  0.81692  1.0000
  C   C347      1.0  0.15954  0.73020  0.82732  1.0000
  C   C348      1.0  0.16792  0.72833  0.84582  1.0000
  C   C349      1.0  0.17356  0.70687  0.85389  1.0000
  C   C350      1.0  0.17105  0.68733  0.84348  1.0000
  H   H423      1.0  0.15045  0.71221  0.80260  1.0000
  H   H424      1.0  0.15466  0.74666  0.82105  1.0000
  H   H425      1.0  0.17999  0.70533  0.86822  1.0000
  H   H426      1.0  0.17550  0.67082  0.84976  1.0000
  C   C351      1.0  0.29256  0.57726  0.78830  1.0000
  C   C352      1.0  0.31857  0.56195  0.78182  1.0000
  C   C353      1.0  0.33060  0.56371  0.76391  1.0000
  C   C354      1.0  0.31673  0.58089  0.75238  1.0000
  C   C355      1.0  0.29032  0.59611  0.75878  1.0000
  C   C356      1.0  0.27804  0.59422  0.77672  1.0000
  H   H427      1.0  0.32922  0.54857  0.79068  1.0000
  H   H428      1.0  0.35104  0.55201  0.75911  1.0000
  H   H429      1.0  0.27939  0.60935  0.74984  1.0000
  H   H430      1.0  0.25777  0.60601  0.78163  1.0000
  C   C357      1.0  0.35992  0.90228  0.80140  1.0000
  H   H431      1.0  0.23658  0.81060  0.92222  1.0000
  H   H432      1.0  0.29859  0.52330  0.85782  1.0000
  C   C358      1.0  0.48134  0.81093  0.90880  1.0000
  C   C359      1.0  0.47573  0.55968  0.92751  1.0000
  C   C360      1.0  0.39460  0.92314  0.66497  1.0000
  H   H433      1.0  0.25095  0.91725  0.72292  1.0000
  H   H434      1.0  0.05951  0.88379  0.76614  1.0000
  C   C361      1.0  0.30155  0.60953  0.91463  1.0000
  C   C362      1.0  0.29272  0.61921  0.89756  1.0000
  C   C363      1.0  0.26150  0.61473  0.88886  1.0000
  C   C364      1.0  0.23875  0.60041  0.89709  1.0000
  C   C365      1.0  0.24709  0.59121  0.91443  1.0000
  C   C366      1.0  0.27842  0.59570  0.92317  1.0000
  H   H435      1.0  0.31034  0.63006  0.89091  1.0000
  H   H436      1.0  0.25517  0.62226  0.87571  1.0000
  H   H437      1.0  0.22951  0.58026  0.92099  1.0000
  H   H438      1.0  0.28484  0.58820  0.93635  1.0000
  C   C367      1.0  0.26547  0.51592  0.66825  1.0000
  H   H439      1.0  0.46375  0.54838  0.90066  1.0000
  C   C368      1.0  0.49089  0.49687  0.76684  1.0000
  C   C369      1.0  0.02385  0.94451  0.74043  1.0000
  H   H440      1.0  0.18690  0.52178  0.71347  1.0000
  H   H441      1.0  0.24698  0.54096  0.78828  1.0000
  C   C370      1.0  0.09451  0.92713  0.74323  1.0000
  C   C371      1.0  0.45289  0.57323  0.82467  1.0000
  H   H442      1.0  0.44992  0.56723  0.92989  1.0000
  C   C372      1.0  0.44572  0.94539  0.79877  1.0000
  N   N24       1.0  0.25825  0.74114  0.80344  1.0000
  C   C373      1.0  0.29282  0.74724  0.79701  1.0000
  C   C374      1.0  0.23125  0.75262  0.79158  1.0000
  C   C375      1.0  0.25334  0.75023  0.82210  1.0000
  C   C376      1.0  0.25598  0.71637  0.80251  1.0000
  C   C377      1.0  0.26086  0.70507  0.78566  1.0000
  C   C378      1.0  0.24891  0.70281  0.81798  1.0000
  C   C379      1.0  0.25871  0.68172  0.78439  1.0000
  C   C380      1.0  0.24708  0.67946  0.81656  1.0000
  C   C381      1.0  0.25174  0.66895  0.79981  1.0000
  H   H443      1.0  0.29722  0.74329  0.78242  1.0000
  H   H444      1.0  0.29597  0.76568  0.79825  1.0000
  H   H445      1.0  0.31394  0.73817  0.80506  1.0000
  H   H446      1.0  0.23441  0.74803  0.77704  1.0000
  H   H447      1.0  0.23207  0.77135  0.79209  1.0000
  H   H448      1.0  0.20485  0.74824  0.79583  1.0000
  H   H449      1.0  0.27321  0.74269  0.83174  1.0000
  H   H450      1.0  0.25558  0.76879  0.82235  1.0000
  H   H451      1.0  0.22710  0.74734  0.82749  1.0000
  H   H452      1.0  0.26599  0.71426  0.77328  1.0000
  H   H453      1.0  0.24380  0.70982  0.83129  1.0000
  H   H454      1.0  0.26201  0.67347  0.77135  1.0000
  H   H455      1.0  0.24071  0.66954  0.82842  1.0000
  H   H456      1.0  0.24926  0.65093  0.79875  1.0000
  H   H457      1.0  0.47652  0.58329  0.84976  1.0000
  N   N25       1.0  0.30680  0.87087  0.83586  1.0000
  C   C382      1.0  0.32801  0.84916  0.83697  1.0000
  C   C383      1.0  0.31348  0.88428  0.85229  1.0000
  C   C384      1.0  0.26978  0.86566  0.83636  1.0000
  C   C385      1.0  0.31624  0.88334  0.81918  1.0000
  C   C386      1.0  0.29282  0.88787  0.80439  1.0000
  C   C387      1.0  0.35021  0.89079  0.81713  1.0000
  C   C388      1.0  0.30284  0.89944  0.78878  1.0000
  H   H458      1.0  0.27052  0.76651  0.96582  1.0000
  H   H459      1.0  0.22275  0.74189  0.95957  1.0000
  H   H460      1.0  0.32440  0.83896  0.82453  1.0000
  H   H461      1.0  0.35616  0.85163  0.83817  1.0000
  H   H462      1.0  0.32077  0.83880  0.84893  1.0000
  H   H463      1.0  0.34145  0.88676  0.85430  1.0000
  H   H464      1.0  0.30474  0.87587  0.86499  1.0000
  H   H465      1.0  0.29949  0.90127  0.85141  1.0000
  H   H466      1.0  0.26353  0.85425  0.82508  1.0000
  H   H467      1.0  0.26306  0.85682  0.84921  1.0000
  H   H468      1.0  0.25222  0.88126  0.83545  1.0000
  H   H469      1.0  0.26679  0.88233  0.80432  1.0000
  H   H470      1.0  0.36972  0.88755  0.82755  1.0000
  H   H471      1.0  0.28485  0.90244  0.77750  1.0000
  N   N26       1.0  0.18036  0.78847  0.91103  1.0000
  C   C389      1.0  0.15177  0.77313  0.90899  1.0000
  C   C390      1.0  0.16439  0.81160  0.91388  1.0000
  C   C391      1.0  0.19964  0.78824  0.89364  1.0000
  C   C392      1.0  0.20462  0.78204  0.92614  1.0000
  C   C393      1.0  0.23254  0.79556  0.93010  1.0000
  C   C394      1.0  0.20182  0.76234  0.93711  1.0000
  C   C395      1.0  0.25584  0.79002  0.94427  1.0000
  C   C396      1.0  0.22540  0.75688  0.95125  1.0000
  C   C397      1.0  0.25228  0.77073  0.95485  1.0000
  H   H472      1.0  0.13408  0.77859  0.89751  1.0000
  H   H473      1.0  0.16184  0.75567  0.90559  1.0000
  H   H474      1.0  0.13560  0.77272  0.92149  1.0000
  H   H475      1.0  0.18371  0.82467  0.91344  1.0000
  H   H476      1.0  0.15100  0.81291  0.92726  1.0000
  H   H477      1.0  0.14518  0.81671  0.90300  1.0000
  H   H478      1.0  0.21990  0.80059  0.89339  1.0000
  H   H479      1.0  0.21242  0.77126  0.89094  1.0000
  H   H480      1.0  0.18206  0.79271  0.88196  1.0000
  C   C398      1.0  0.45996  0.49098  0.77492  1.0000
  C   C399      1.0  0.42687  0.70070  0.97905  1.0000
  C   C400      1.0  0.07828  0.89414  0.75999  1.0000
  H   H481      1.0  0.08036  0.91028  0.68496  1.0000
  C   C401      1.0  0.33626  0.90658  0.78728  1.0000
  H   H482      1.0  0.06451  0.55141  0.77933  1.0000
  S   S119      1.0  0.40300  0.94230  0.76893  1.0000
  S   S120      1.0  0.31655  0.95284  0.68489  1.0000
  N   N27       1.0  0.13481  0.91540  0.68197  1.0000
  C   C402      1.0  0.44421  0.94272  0.77975  1.0000
  H   H483      1.0  0.12045  0.95118  0.68056  1.0000
  H   H484      1.0  0.48242  0.77372  0.95243  1.0000
  H   H485      1.0  0.36820  0.94150  0.98564  1.0000
  C   C403      1.0  0.35693  0.48610  0.99320  1.0000
  C   C404      1.0  0.06042  0.84901  0.80073  1.0000
  H   H486      1.0  0.03898  0.51109  0.78040  1.0000
  H   H487      1.0  0.45961  0.72599  0.96861  1.0000
  C   C405      1.0  0.01222  0.90545  0.73914  1.0000
  C   C406      1.0  0.47503  0.94258  0.76979  1.0000
  C   C407      1.0  0.03858  0.84809  0.78544  1.0000
  H   H488      1.0  0.36567  0.75641  0.95084  1.0000
  C   C408      1.0  0.01499  0.92393  0.76810  1.0000
  S   S121      1.0  0.31222  0.48772  0.68893  1.0000
  C   C409      1.0  0.21645  0.93589  0.70436  1.0000
  H   H489      1.0  0.35475  0.52510  0.84596  1.0000
  C   C410      1.0  0.05038  0.55645  0.79148  1.0000
  C   C411      1.0  0.06855  0.56339  0.80680  1.0000
  H   H490      1.0  0.38601  0.90780  0.79997  1.0000
  H   H491      1.0  0.34397  0.91529  0.77504  1.0000
  C   C412      1.0  0.14053  0.89688  0.66871  1.0000
  H   H492      1.0  0.41938  0.59505  0.79433  1.0000
  H   H493      1.0  0.23235  0.95029  0.70381  1.0000
  C   C413      1.0  0.47751  0.94810  0.80773  1.0000
  C   C414      1.0  0.02947  0.62458  0.78952  1.0000
  H   H494      1.0  0.32767  0.77325  0.92644  1.0000
  N   N28       1.0  0.05530  0.63672  0.79997  1.0000
  H   H495      1.0  0.06527  0.86244  0.82763  1.0000
  H   H496      1.0  0.26572  0.98015  0.66413  1.0000
  H   H497      1.0  0.05992  0.65939  0.77699  1.0000
  C   C415      1.0  0.27315  0.49462  0.67619  1.0000
  C   C416      1.0  0.19462  0.54814  0.77924  1.0000
  H   H498      1.0  0.09146  0.65816  0.82618  1.0000
  C   C417      1.0  0.12578  0.93651  0.67148  1.0000
  C   C418      1.0  0.16608  0.91659  0.69354  1.0000
  H   H499      1.0  0.27247  0.54371  0.70677  1.0000
  S   S122      1.0  0.41046  0.49615  0.70715  1.0000
  C   C419      1.0  0.20767  0.89833  0.71535  1.0000
  C   C420      1.0  0.47761  0.57133  0.83869  1.0000
  Fe  Fe62      1.0  0.35455  0.50862  0.70157  1.0000
  H   H500      1.0  0.44234  0.68672  0.97328  1.0000
  H   H501      1.0  0.10755  0.89433  0.70066  1.0000
  H   H502      1.0  0.09081  0.60783  0.80418  1.0000
  C   C421      1.0  0.04872  0.86151  0.81580  1.0000
  H   H503      1.0  0.36345  0.71678  0.95930  1.0000
  H   H504      1.0  0.45905  0.54110  0.77441  1.0000
  C   C422      1.0  0.30237  0.58012  0.85780  1.0000
  C   C423      1.0  0.05613  0.65978  0.79201  1.0000
  H   H505      1.0  0.02888  0.93566  0.77678  1.0000
  H   H506      1.0  0.18064  0.95043  0.68519  1.0000
  H   H507      1.0  0.38651  0.58044  0.78324  1.0000
  C   C424      1.0  0.40565  0.56295  0.87754  1.0000
  S   S123      1.0  0.41908  0.49500  0.76360  1.0000
  H   H508      1.0  0.45202  0.54896  0.98599  1.0000
  H   H509      1.0  0.00030  0.55058  0.77985  1.0000
  H   H510      1.0  0.46385  0.94023  0.98877  1.0000
  C   C425      1.0  0.40453  0.57965  0.79513  1.0000
  H   H511      1.0  0.28668  0.74985  0.91058  1.0000
  H   H512      1.0  0.42237  0.52296  0.79722  1.0000
  C   C426      1.0  0.18649  0.93568  0.69367  1.0000
  C   C427      1.0  0.36956  0.56632  0.87676  1.0000
  N   N29       1.0  0.42806  0.55881  0.79507  1.0000
  C   C428      1.0  0.40646  0.53920  0.79673  1.0000
  C   C429      1.0  0.08965  0.62463  0.79733  1.0000
  S   S124      1.0  0.47281  0.87593  0.96167  1.0000
  C   C430      1.0  0.36773  0.53603  0.85499  1.0000
  H   H513      1.0  0.28671  0.90980  0.67656  1.0000
  H   H514      1.0  0.44228  0.78966  0.89936  1.0000
  H   H515      1.0  0.45076  0.54322  0.86815  1.0000
  H   H516      1.0  0.38891  0.53801  0.78479  1.0000
  H   H517      1.0  0.39050  0.54002  0.80931  1.0000
  Fe  Fe63      1.0  0.40507  0.51039  0.73547  1.0000
  H   H518      1.0  0.31217  0.59325  0.86672  1.0000
  C   C431      1.0  0.30172  0.71944  0.92587  1.0000
  C   C432      1.0  0.04776  0.63809  0.81971  1.0000
  C   C433      1.0  0.00563  0.85977  0.78504  1.0000
  H   H519      1.0  0.47664  0.90799  0.68643  1.0000
  C   C434      1.0  0.12938  0.91915  0.74444  1.0000
  H   H520      1.0  0.48345  0.86726  0.89519  1.0000
  H   H521      1.0  0.37216  0.92051  0.67398  1.0000
  H   H522      1.0  0.31033  0.66615  0.96960  1.0000
  C   C435      1.0  0.22711  0.91724  0.71509  1.0000
  H   H523      1.0  0.43294  0.89386  0.99264  1.0000
  C   C436      1.0  0.01367  0.56904  0.82276  1.0000
  C   C437      1.0  0.38055  0.92560  0.99146  1.0000
  C   C438      1.0  0.22959  0.54202  0.77666  1.0000
  H   H524      1.0  0.07785  0.66910  0.79751  1.0000
  H   H525      1.0  0.21660  0.88369  0.72347  1.0000
  H   H526      1.0  0.30547  0.56783  0.89287  1.0000
  C   C439      1.0  0.34940  0.55287  0.86555  1.0000
  H   H527      1.0  0.28410  0.69218  0.96635  1.0000
  C   C440      1.0  0.48807  0.88264  0.93964  1.0000
  H   H528      1.0  0.27379  0.58374  0.85663  1.0000
  C   C441      1.0  0.29652  0.55492  0.88344  1.0000
  H   H529      1.0  0.30377  0.53807  0.88960  1.0000
  C   C442      1.0  0.06351  0.65091  0.85016  1.0000
  C   C443      1.0  0.10437  0.91083  0.69338  1.0000
  H   H530      1.0  0.42607  0.95203  0.97682  1.0000
  C   C444      1.0  0.41702  0.74168  0.98380  1.0000
  C   C445      1.0  0.29372  0.54107  0.85303  1.0000
  H   H531      1.0  0.03560  0.62404  0.77472  1.0000
  N   N30       1.0  0.31121  0.55698  0.86488  1.0000
  H   H532      1.0  0.26764  0.55732  0.88331  1.0000
  H   H533      1.0  0.30212  0.54247  0.83860  1.0000
  C   C446      1.0  0.42276  0.54606  0.86729  1.0000
  C   C447      1.0  0.24982  0.50892  0.72617  1.0000
  H   H534      1.0  0.46837  0.57904  0.69554  1.0000
  H   H535      1.0  0.06364  0.57547  0.83426  1.0000
  C   C448      1.0  0.34786  0.74605  0.94379  1.0000
  H   H536      1.0  0.16389  0.88268  0.70514  1.0000
  H   H537      1.0  0.01775  0.49264  0.82567  1.0000
  N   N31       1.0  0.23406  0.53239  0.72555  1.0000
  H   H538      1.0  0.31374  0.58258  0.84408  1.0000
  S   S125      1.0  0.42635  0.83681  0.99465  1.0000
  H   H539      1.0  0.12029  0.87064  0.76843  1.0000
  H   H540      1.0  0.26507  0.54473  0.85286  1.0000
  H   H541      1.0  0.38763  0.58049  0.80739  1.0000
  S   S126      1.0  0.38425  0.66854  0.99376  1.0000
  C   C449      1.0  0.40389  0.53276  0.85595  1.0000
  C   C450      1.0  0.20749  0.53364  0.71084  1.0000
  H   H542      1.0  0.27300  0.50702  0.73516  1.0000
  C   C451      1.0  0.17213  0.54966  0.76438  1.0000
  H   H543      1.0  0.27093  0.67927  0.93538  1.0000
  C   C452      1.0  0.49199  0.57652  0.68774  1.0000
  C   C453      1.0  0.04997  0.57013  0.82235  1.0000
  H   H544      1.0  0.14946  0.92881  0.73846  1.0000
  C   C454      1.0  0.01573  0.87321  0.81541  1.0000
  H   H545      1.0  0.01553  0.90741  0.77539  1.0000
  H   H546      1.0  0.49058  0.50332  0.75300  1.0000
  H   H547      1.0  0.16571  0.89279  0.75447  1.0000
  H   H548      1.0  0.28310  0.54705  0.73010  1.0000
  C   C455      1.0  0.06780  0.91475  0.75100  1.0000
  C   C456      1.0  0.01418  0.62850  0.84678  1.0000
  H   H549      1.0  0.01247  0.88876  0.74619  1.0000
  H   H550      1.0  0.29847  0.65433  0.93880  1.0000
  N   N32       1.0  0.03053  0.92221  0.74964  1.0000
  H   H551      1.0  0.25053  0.56576  0.71994  1.0000
  C   C457      1.0  0.48307  0.87172  0.68719  1.0000
  C   C458      1.0  0.22009  0.53842  0.74375  1.0000
  C   C459      1.0  0.11314  0.88639  0.76125  1.0000
  H   H552      1.0  0.41748  0.51972  0.84795  1.0000
  H   H553      1.0  0.23092  0.49689  0.73105  1.0000
  H   H554      1.0  0.02397  0.90280  0.72544  1.0000
  H   H555      1.0  0.03675  0.95803  0.74766  1.0000
  C   C460      1.0  0.31055  0.68396  0.96463  1.0000
  H   H556      1.0  0.32802  0.69235  0.97406  1.0000
  H   H557      1.0  0.25887  0.50323  0.71253  1.0000
  C   C461      1.0  0.26109  0.54786  0.72036  1.0000
  H   H558      1.0  0.08072  0.65983  0.85878  1.0000
  H   H559      1.0  0.00493  0.96778  0.67186  1.0000
  H   H560      1.0  0.37604  0.68008  0.95372  1.0000
  H   H561      1.0  0.03222  0.94405  0.72592  1.0000
  C   C462      1.0  0.34639  0.72328  0.94857  1.0000
  C   C463      1.0  0.29827  0.67235  0.93426  1.0000
  H   H562      1.0  0.04983  0.48831  0.68727  1.0000
  H   H563      1.0  0.30612  0.67201  0.91968  1.0000
  H   H564      1.0  0.35660  0.65522  0.94725  1.0000
  H   H565      1.0  0.44683  0.51966  0.98983  1.0000
  C   C464      1.0  0.35715  0.67354  0.94400  1.0000
  H   H566      1.0  0.48879  0.79906  0.97541  1.0000
  C   C465      1.0  0.18447  0.54487  0.74683  1.0000
  H   H567      1.0  0.41869  0.91942  0.67310  1.0000
  C   C466      1.0  0.43656  0.72309  0.97638  1.0000
  S   S127      1.0  0.35089  0.81876  0.98254  1.0000
  C   C467      1.0  0.30342  0.74228  0.92116  1.0000
  H   H568      1.0  0.44402  0.76593  0.92736  1.0000
  N   N33       1.0  0.32214  0.68522  0.94542  1.0000
  H   H569      1.0  0.44163  0.92372  0.97269  1.0000
  C   C468      1.0  0.32337  0.70921  0.93978  1.0000
  H   H570      1.0  0.16559  0.54627  0.73596  1.0000
  C   C469      1.0  0.13867  0.89885  0.75344  1.0000
  H   H571      1.0  0.47807  0.95060  0.82229  1.0000
  H   H572      1.0  0.48033  0.82144  0.89661  1.0000
  H   H573      1.0  0.28343  0.52897  0.66986  1.0000
  H   H574      1.0  0.03676  0.51297  0.81168  1.0000
  H   H575      1.0  0.02897  0.60666  0.79412  1.0000
  H   H576      1.0  0.38080  0.91279  0.98052  1.0000
  H   H577      1.0  0.19541  0.55107  0.70909  1.0000
  H   H578      1.0  0.21898  0.52886  0.69740  1.0000
  C   C470      1.0  0.49272  0.89331  0.68243  1.0000
  H   H579      1.0  0.03151  0.50199  0.71790  1.0000
  C   C471      1.0  0.49168  0.87613  0.90706  1.0000
  H   H580      1.0  0.14491  0.55452  0.76659  1.0000
  C   C472      1.0  0.00427  0.93164  0.67366  1.0000
  C   C473      1.0  0.01977  0.62744  0.82799  1.0000
  C   C474      1.0  0.46104  0.77965  0.92603  1.0000
  C   C475      1.0  0.01809  0.49913  0.77982  1.0000
  H   H581      1.0  0.00291  0.63287  0.79082  1.0000
  H   H582      1.0  0.03173  0.64081  0.87242  1.0000
  H   H583      1.0  0.38334  0.87933  0.66484  1.0000
  H   H584      1.0  0.99956  0.57361  0.83503  1.0000
  C   C476      1.0  0.03601  0.64018  0.85784  1.0000
  H   H585      1.0  0.46520  0.57081  0.77600  1.0000
  H   H586      1.0  0.00198  0.61793  0.82031  1.0000
  C   C477      1.0  0.01370  0.49314  0.70966  1.0000
  C   C478      1.0  0.48077  0.54021  0.81053  1.0000
  C   C479      1.0  0.38748  0.73746  0.99396  1.0000
  S   S128      1.0  0.49205  0.57438  0.96192  1.0000
  Fe  Fe64      1.0  0.37086  0.85096  0.99446  1.0000
  H   H587      1.0  0.48297  0.52766  0.80003  1.0000
  C   C480      1.0  0.48369  0.54912  0.91085  1.0000
  C   C481      1.0  0.43774  0.93656  0.98363  1.0000
  H   H588      1.0  0.99779  0.89643  0.67919  1.0000
  H   H589      1.0  0.49669  0.49721  0.91864  1.0000
  C   C482      1.0  0.25940  0.96279  0.66271  1.0000
  H   H590      1.0  0.10215  0.93510  0.66302  1.0000
  Fe  Fe65      1.0  0.79192  0.33392  0.12953  1.0000
  S   S129      1.0  0.74890  0.32600  0.14837  1.0000
  S   S130      1.0  0.78245  0.33748  0.09895  1.0000
  Fe  Fe66      1.0  0.84599  0.33392  0.16094  1.0000
  S   S131      1.0  0.80575  0.32595  0.18178  1.0000
  S   S132      1.0  0.90223  0.33166  0.17102  1.0000
  Fe  Fe67      1.0  0.78801  0.30124  0.16138  1.0000
  S   S133      1.0  0.77107  0.26696  0.16973  1.0000
  Fe  Fe68      1.0  0.77081  0.35142  0.16670  1.0000
  S   S134      1.0  0.73598  0.37921  0.17899  1.0000
  S   S135      1.0  0.83003  0.30730  0.14138  1.0000
  S   S136      1.0  0.81202  0.36125  0.14702  1.0000
  Fe  Fe69      1.0  0.54457  0.35125  0.01400  1.0000
  S   S137      1.0  0.59260  0.36976  0.01768  1.0000
  C   C483      1.0  0.69543  0.22862  0.01899  1.0000
  H   H591      1.0  0.53227  0.41671  0.20595  1.0000
  H   H592      1.0  0.89857  0.38089  0.16510  1.0000
  Fe  Fe70      1.0  0.61536  0.33764  0.03062  1.0000
  S   S138      1.0  0.63489  0.33569  0.06004  1.0000
  S   S139      1.0  0.56608  0.31954  0.02835  1.0000
  Fe  Fe71      1.0  0.59466  0.37917  0.25349  1.0000
  S   S140      1.0  0.59967  0.41617  0.24897  1.0000
  S   S141      1.0  0.62687  0.35220  0.23844  1.0000
  Fe  Fe72      1.0  0.54297  0.38661  0.28456  1.0000
  S   S142      1.0  0.54571  0.42428  0.28253  1.0000
  H   H593      1.0  0.51728  0.46960  0.32670  1.0000
  Fe  Fe73      1.0  0.54168  0.41918  0.25213  1.0000
  H   H594      1.0  0.97179  0.10599  0.17341  1.0000
  Fe  Fe74      1.0  0.60378  0.41785  0.27961  1.0000
  S   S143      1.0  0.64616  0.44049  0.28958  1.0000
  S   S144      1.0  0.53622  0.38179  0.25448  1.0000
  S   S145      1.0  0.60131  0.38052  0.28388  1.0000
  Fe  Fe75      1.0  0.55318  0.05467  0.26692  1.0000
  H   H595      1.0  0.72776  0.05359  0.32779  1.0000
  Fe  Fe76      1.0  0.60761  0.05366  0.23672  1.0000
  S   S146      1.0  0.62494  0.07135  0.21128  1.0000
  S   S147      1.0  0.55004  0.05103  0.23661  1.0000
  S   S148      1.0  0.61028  0.06088  0.26669  1.0000
  Fe  Fe77      1.0  0.56777  0.08527  0.02119  1.0000
  S   S149      1.0  0.61868  0.07185  0.00958  1.0000
  H   H596      1.0  0.61864  0.25589  0.02999  1.0000
  H   H597      1.0  0.64538  0.14667  0.02506  1.0000
  C   C484      1.0  0.61589  0.17645  0.04690  1.0000
  Fe  Fe78      1.0  0.63974  0.10442  0.01758  1.0000
  S   S150      1.0  0.69263  0.10888  0.03035  1.0000
  C   C485      1.0  0.98802  0.44066  0.27765  1.0000
  S   S151      1.0  0.59046  0.11688  0.03108  1.0000
  Fe  Fe79      1.0  0.76570  0.10853  0.13193  1.0000
  S   S152      1.0  0.76070  0.13819  0.15081  1.0000
  S   S153      1.0  0.71953  0.09780  0.11561  1.0000
  Fe  Fe80      1.0  0.83944  0.09390  0.14566  1.0000
  S   S154      1.0  0.84038  0.12258  0.16510  1.0000
  S   S155      1.0  0.88034  0.06469  0.14472  1.0000
  Fe  Fe81      1.0  0.78594  0.11454  0.17177  1.0000
  S   S156      1.0  0.77232  0.10990  0.20126  1.0000
  Fe  Fe82      1.0  0.81543  0.14368  0.14241  1.0000
  S   S157      1.0  0.83567  0.17709  0.13398  1.0000
  S   S158      1.0  0.78643  0.08447  0.15383  1.0000
  S   S159      1.0  0.81895  0.11547  0.12206  1.0000
  C   C486      1.0  0.93092  0.08805  0.16140  1.0000
  C   C487      1.0  0.91930  0.06696  0.15712  1.0000
  H   H598      1.0  0.91597  0.10326  0.15718  1.0000
  C   C488      1.0  0.50741  0.48018  0.27473  1.0000
  C   C489      1.0  0.69913  0.10705  0.05420  1.0000
  C   C490      1.0  0.67318  0.10028  0.06588  1.0000
  C   C491      1.0  0.67967  0.09803  0.08471  1.0000
  C   C492      1.0  0.71191  0.10285  0.09208  1.0000
  C   C493      1.0  0.73754  0.11028  0.08047  1.0000
  C   C494      1.0  0.73119  0.11226  0.06159  1.0000
  H   H599      1.0  0.64841  0.09622  0.06036  1.0000
  H   H600      1.0  0.65974  0.09224  0.09359  1.0000
  H   H601      1.0  0.76248  0.11396  0.08598  1.0000
  H   H602      1.0  0.75140  0.11750  0.05262  1.0000
  C   C495      1.0  0.98330  0.36372  0.19196  1.0000
  C   C496      1.0  0.68537  0.38390  0.26878  1.0000
  C   C497      1.0  0.79966  0.05478  0.11197  1.0000
  H   H603      1.0  0.71015  0.43493  0.11541  1.0000
  H   H604      1.0  0.67893  0.18053  0.06315  1.0000
  C   C498      1.0  0.66661  0.08112  0.20897  1.0000
  C   C499      1.0  0.67688  0.08853  0.19174  1.0000
  C   C500      1.0  0.70953  0.09704  0.18930  1.0000
  C   C501      1.0  0.73188  0.09849  0.20414  1.0000
  C   C502      1.0  0.72181  0.09090  0.22139  1.0000
  C   C503      1.0  0.68924  0.08204  0.22379  1.0000
  H   H605      1.0  0.65939  0.08798  0.18027  1.0000
  H   H606      1.0  0.71706  0.10293  0.17598  1.0000
  H   H607      1.0  0.73903  0.09205  0.23292  1.0000
  H   H608      1.0  0.68137  0.07640  0.23712  1.0000
  H   H609      1.0  0.92622  0.07098  0.20399  1.0000
  H   H610      1.0  0.97854  0.04889  0.21363  1.0000
  H   H611      1.0  0.75964  0.42451  0.27824  1.0000
  H   H612      1.0  0.60613  0.21841  0.04011  1.0000
  C   C504      1.0  0.71729  0.41220  0.25436  1.0000
  H   H613      1.0  0.67471  0.26303  0.01591  1.0000
  Fe  Fe83      1.0  0.61876  0.02319  0.27052  1.0000
  H   H614      1.0  0.66739  0.38561  0.25691  1.0000
  H   H615      1.0  0.70009  0.41176  0.24219  1.0000
  H   H616      1.0  0.62883  0.40460  0.13031  1.0000
  C   C505      1.0  0.65719  0.38897  0.08128  1.0000
  C   C506      1.0  0.67983  0.43673  0.30643  1.0000
  H   H617      1.0  0.82231  0.04188  0.21997  1.0000
  H   H618      1.0  0.67954  0.04640  0.30652  1.0000
  H   H619      1.0  0.61817  0.99204  0.20154  1.0000
  H   H620      1.0  0.52097  0.00177  0.13704  1.0000
  C   C507      1.0  0.51070  0.36597  0.11540  1.0000
  C   C508      1.0  0.58130  0.03077  0.19163  1.0000
  C   C509      1.0  0.56727  0.19787  0.00138  1.0000
  H   H621      1.0  0.66309  0.40594  0.31814  1.0000
  C   C510      1.0  0.84101  0.07073  0.09225  1.0000
  Fe  Fe84      1.0  0.58624  0.30781  0.00098  1.0000
  C   C511      1.0  0.63170  0.22042  0.03472  1.0000
  C   C512      1.0  0.74902  0.99838  0.31934  1.0000
  H   H622      1.0  0.61325  0.18669  0.05947  1.0000
  C   C513      1.0  0.63857  0.24220  0.02895  1.0000
  H   H623      1.0  0.54347  0.25250  0.01365  1.0000
  C   C514      1.0  0.78929  0.24215  0.15964  1.0000
  C   C515      1.0  0.77597  0.22142  0.16412  1.0000
  C   C516      1.0  0.78988  0.20134  0.15627  1.0000
  C   C517      1.0  0.81733  0.20190  0.14395  1.0000
  C   C518      1.0  0.83054  0.22267  0.13939  1.0000
  C   C519      1.0  0.81649  0.24274  0.14717  1.0000
  H   H624      1.0  0.75491  0.22083  0.17377  1.0000
  H   H625      1.0  0.77960  0.18542  0.15992  1.0000
  H   H626      1.0  0.85179  0.22317  0.12986  1.0000
  H   H627      1.0  0.82666  0.25861  0.14348  1.0000
  C   C520      1.0  0.74140  0.33651  0.08819  1.0000
  C   C521      1.0  0.71128  0.33362  0.09820  1.0000
  C   C522      1.0  0.67911  0.33324  0.08928  1.0000
  C   C523      1.0  0.67652  0.33575  0.07025  1.0000
  C   C524      1.0  0.70660  0.33858  0.06018  1.0000
  C   C525      1.0  0.73889  0.33894  0.06914  1.0000
  H   H628      1.0  0.71262  0.33179  0.11282  1.0000
  H   H629      1.0  0.65607  0.33106  0.09723  1.0000
  H   H630      1.0  0.70500  0.34060  0.04553  1.0000
  H   H631      1.0  0.76205  0.34123  0.06126  1.0000
  C   C526      1.0  0.70554  0.37137  0.19528  1.0000
  C   C527      1.0  0.70386  0.34890  0.20092  1.0000
  C   C528      1.0  0.67937  0.34320  0.21405  1.0000
  C   C529      1.0  0.65645  0.35988  0.22157  1.0000
  C   C530      1.0  0.65807  0.38231  0.21581  1.0000
  C   C531      1.0  0.68260  0.38804  0.20275  1.0000
  H   H632      1.0  0.72144  0.33592  0.19523  1.0000
  H   H633      1.0  0.67824  0.32580  0.21842  1.0000
  H   H634      1.0  0.64028  0.39524  0.22125  1.0000
  H   H635      1.0  0.68370  0.40543  0.19838  1.0000
  S   S160      1.0  0.56137  0.01719  0.27209  1.0000
  H   H636      1.0  0.82213  0.01583  0.09618  1.0000
  H   H637      1.0  0.83903  0.23856  0.19261  1.0000
  S   S161      1.0  0.61999  0.01646  0.24028  1.0000
  H   H638      1.0  0.51770  0.29425  0.31426  1.0000
  C   C532      1.0  0.94548  0.39233  0.17712  1.0000
  C   C533      1.0  0.92198  0.37600  0.17264  1.0000
  C   C534      1.0  0.92939  0.35334  0.17749  1.0000
  C   C535      1.0  0.65681  0.20198  0.03279  1.0000
  H   H639      1.0  0.93979  0.40972  0.17300  1.0000
  N   N34       1.0  0.73381  0.26229  0.11138  1.0000
  C   C536      1.0  0.75058  0.23920  0.10983  1.0000
  C   C537      1.0  0.76076  0.27823  0.11540  1.0000
  C   C538      1.0  0.71000  0.26236  0.12725  1.0000
  C   C539      1.0  0.71623  0.26881  0.09398  1.0000
  C   C540      1.0  0.67966  0.27297  0.09244  1.0000
  C   C541      1.0  0.73587  0.27104  0.07781  1.0000
  C   C542      1.0  0.66408  0.27930  0.07577  1.0000
  C   C543      1.0  0.72002  0.27750  0.06126  1.0000
  C   C544      1.0  0.68421  0.28167  0.06026  1.0000
  H   H640      1.0  0.76253  0.23312  0.12295  1.0000
  H   H641      1.0  0.73145  0.22689  0.10594  1.0000
  H   H642      1.0  0.77167  0.23825  0.09955  1.0000
  H   H643      1.0  0.78289  0.27686  0.10577  1.0000
  H   H644      1.0  0.77202  0.27537  0.12923  1.0000
  H   H645      1.0  0.74979  0.29599  0.11475  1.0000
  H   H646      1.0  0.69010  0.24981  0.12575  1.0000
  H   H647      1.0  0.72411  0.25768  0.14016  1.0000
  H   H648      1.0  0.69706  0.27943  0.12942  1.0000
  H   H649      1.0  0.66252  0.27190  0.10394  1.0000
  H   H650      1.0  0.76376  0.26817  0.07794  1.0000
  H   H651      1.0  0.63631  0.28323  0.07494  1.0000
  H   H652      1.0  0.73566  0.27985  0.04924  1.0000
  H   H653      1.0  0.67202  0.28749  0.04759  1.0000
  C   C545      1.0  0.74266  0.38994  0.28054  1.0000
  C   C546      1.0  0.52143  0.07908  0.12226  1.0000
  H   H654      1.0  0.70552  0.42554  0.26345  1.0000
  C   C547      1.0  0.50284  0.03270  0.05908  1.0000
  H   H655      1.0  0.64042  0.04321  0.17809  1.0000
  C   C548      1.0  0.52046  0.06399  0.15843  1.0000
  C   C549      1.0  0.92355  0.05768  0.21396  1.0000
  H   H656      1.0  0.98676  0.01841  0.27768  1.0000
  C   C550      1.0  0.49890  0.42538  0.18282  1.0000
  C   C551      1.0  0.69871  0.03295  0.30999  1.0000
  C   C552      1.0  0.59165  0.01712  0.16126  1.0000
  C   C553      1.0  0.98268  0.07004  0.17599  1.0000
  H   H657      1.0  0.87619  0.07435  0.18795  1.0000
  C   C554      1.0  0.96234  0.99541  0.29618  1.0000
  C   C555      1.0  0.72616  0.03697  0.32209  1.0000
  C   C556      1.0  0.57823  0.04474  0.31303  1.0000
  H   H658      1.0  0.50374  0.48201  0.26017  1.0000
  H   H659      1.0  0.58972  0.45976  0.26696  1.0000
  S   S162      1.0  0.63664  0.32481  0.00388  1.0000
  H   H660      1.0  0.70318  0.16714  0.04485  1.0000
  H   H661      1.0  0.65968  0.01505  0.17373  1.0000
  C   C557      1.0  0.95221  0.02783  0.23228  1.0000
  C   C558      1.0  0.58020  0.47520  0.25932  1.0000
  S   S163      1.0  0.51618  0.08132  0.27982  1.0000
  C   C559      1.0  0.98232  0.38675  0.31233  1.0000
  H   H662      1.0  0.95799  0.39641  0.30994  1.0000
  S   S164      1.0  0.91269  0.45690  0.31477  1.0000
  H   H663      1.0  0.79377  0.42303  0.30597  1.0000
  H   H664      1.0  0.54123  0.36022  0.14053  1.0000
  H   H665      1.0  0.67143  0.15229  0.05631  1.0000
  C   C560      1.0  0.73496  0.05367  0.06517  1.0000
  C   C561      1.0  0.86648  0.27540  0.18591  1.0000
  C   C562      1.0  0.60907  0.02721  0.14654  1.0000
  Fe  Fe85      1.0  0.56210  0.01418  0.24135  1.0000
  C   C563      1.0  0.96264  0.08956  0.17057  1.0000
  H   H666      1.0  0.71990  0.23179  0.01259  1.0000
  H   H667      1.0  0.72094  0.37316  0.23801  1.0000
  C   C564      1.0  0.93928  0.04737  0.16256  1.0000
  H   H668      1.0  0.63205  0.17076  0.01135  1.0000
  H   H669      1.0  0.83416  0.05081  0.05779  1.0000
  H   H670      1.0  0.74272  0.41737  0.24930  1.0000
  H   H671      1.0  0.93148  0.28343  0.19171  1.0000
  S   S165      1.0  0.65873  0.00437  0.28972  1.0000
  H   H672      1.0  0.67314  0.39690  0.15087  1.0000
  H   H673      1.0  0.93042  0.03097  0.15937  1.0000
  N   N35       1.0  0.72082  0.38998  0.26393  1.0000
  H   H674      1.0  0.93267  0.44822  0.27791  1.0000
  H   H675      1.0  0.58985  0.03036  0.20607  1.0000
  H   H676      1.0  0.57994  0.04871  0.18703  1.0000
  H   H677      1.0  0.73646  0.35565  0.25651  1.0000
  C   C565      1.0  0.75684  0.05289  0.08039  1.0000
  H   H678      1.0  0.67724  0.16304  0.01514  1.0000
  H   H679      1.0  0.59419  0.18162  0.03743  1.0000
  H   H680      1.0  0.73584  0.37399  0.11662  1.0000
  N   N36       1.0  0.60510  0.01653  0.18017  1.0000
  C   C566      1.0  0.73604  0.37315  0.25095  1.0000
  C   C567      1.0  0.98382  0.00094  0.28124  1.0000
  C   C568      1.0  0.54941  0.21619  0.01014  1.0000
  H   H681      1.0  0.94915  0.00863  0.30405  1.0000
  C   C569      1.0  0.73148  0.45101  0.32095  1.0000
  H   H682      1.0  0.58085  0.98632  0.18901  1.0000
  H   H683      1.0  0.82585  0.08711  0.08984  1.0000
  H   H684      1.0  0.59254  0.34318  0.12585  1.0000
  H   H685      1.0  0.76314  0.37670  0.24740  1.0000
  H   H686      1.0  0.56859  0.07982  0.16149  1.0000
  H   H687      1.0  0.53774  0.05017  0.99978  1.0000
  C   C570      1.0  0.69564  0.01142  0.30283  1.0000
  C   C571      1.0  0.89068  0.05322  0.22123  1.0000
  H   H688      1.0  0.59437  0.33834  0.09245  1.0000
  H   H689      1.0  0.70706  0.05484  0.06697  1.0000
  H   H690      1.0  0.57071  0.02985  0.32101  1.0000
  H   H691      1.0  0.60273  0.38797  0.07587  1.0000
  H   H692      1.0  0.70903  0.19355  0.02266  1.0000
  C   C572      1.0  0.59555  0.08271  0.31271  1.0000
  C   C573      1.0  0.51301  0.36308  0.09624  1.0000
  C   C574      1.0  0.96015  0.34734  0.18719  1.0000
  C   C575      1.0  0.97073  0.04887  0.17212  1.0000
  C   C576      1.0  0.68821  0.40981  0.14389  1.0000
  C   C577      1.0  0.85998  0.22785  0.18704  1.0000
  H   H693      1.0  0.70969  0.41304  0.15348  1.0000
  H   H694      1.0  0.74258  0.38194  0.13963  1.0000
  H   H695      1.0  0.53802  0.10430  0.31928  1.0000
  C   C578      1.0  0.62230  0.39113  0.08597  1.0000
  H   H696      1.0  0.90665  0.28678  0.15968  1.0000
  H   H697      1.0  0.83902  0.10175  0.21703  1.0000
  C   C579      1.0  0.91023  0.19754  0.17214  1.0000
  H   H698      1.0  0.80350  0.07012  0.21872  1.0000
  C   C580      1.0  0.78442  0.05289  0.04526  1.0000
  H   H699      1.0  0.79716  0.38923  0.32572  1.0000
  H   H700      1.0  0.92937  0.18572  0.16612  1.0000
  H   H701      1.0  0.55943  0.47026  0.24993  1.0000
  H   H702      1.0  0.87463  0.17202  0.17782  1.0000
  H   H703      1.0  0.52868  0.21291  0.01947  1.0000
  N   N37       1.0  0.65016  0.17854  0.03813  1.0000
  H   H704      1.0  0.75032  0.46364  0.32168  1.0000
  H   H705      1.0  0.60275  0.03943  0.30583  1.0000
  H   H706      1.0  0.70551  0.36684  0.13394  1.0000
  H   H707      1.0  0.54406  0.35117  0.07345  1.0000
  C   C581      1.0  0.50806  0.99360  0.20496  1.0000
  H   H708      1.0  0.86641  0.03090  0.24090  1.0000
  H   H709      1.0  0.70361  0.46708  0.29824  1.0000
  H   H710      1.0  0.55769  0.04842  0.30256  1.0000
  N   N38       1.0  0.89674  0.26087  0.17959  1.0000
  H   H711      1.0  0.68448  0.36611  0.27349  1.0000
  H   H712      1.0  0.67436  0.39497  0.27976  1.0000
  H   H713      1.0  0.88468  0.09840  0.21375  1.0000
  C   C582      1.0  0.95361  0.44852  0.30514  1.0000
  C   C583      1.0  0.68201  0.41853  0.31875  1.0000
  C   C584      1.0  0.92046  0.02306  0.23981  1.0000
  H   H714      1.0  0.88451  0.26357  0.15101  1.0000
  H   H715      1.0  0.86669  0.09220  0.23564  1.0000
  C   C585      1.0  0.50571  0.05172  0.04771  1.0000
  C   C586      1.0  0.55777  0.23878  0.00686  1.0000
  H   H716      1.0  0.51024  0.32117  0.28848  1.0000
  H   H717      1.0  0.95092  0.25596  0.18700  1.0000
  H   H718      1.0  0.76729  0.35541  0.31684  1.0000
  H   H719      1.0  0.83067  0.19865  0.19152  1.0000
  S   S166      1.0  0.54715  0.05731  0.03910  1.0000
  H   H720      1.0  0.93008  0.26065  0.15582  1.0000
  C   C587      1.0  0.59512  0.02783  0.12892  1.0000
  H   H721      1.0  0.50068  0.38926  0.14804  1.0000
  C   C588      1.0  0.72112  0.99423  0.30758  1.0000
  C   C589      1.0  0.54844  0.08348  0.13417  1.0000
  C   C590      1.0  0.91600  0.22052  0.17281  1.0000
  C   C591      1.0  0.67711  0.16938  0.05116  1.0000
  C   C592      1.0  0.60684  0.99308  0.18755  1.0000
  H   H722      1.0  0.82681  0.06119  0.23871  1.0000
  C   C593      1.0  0.76092  0.40884  0.28586  1.0000
  H   H723      1.0  0.70945  0.38941  0.09011  1.0000
  H   H724      1.0  0.51456  0.41516  0.17350  1.0000
  H   H725      1.0  0.52001  0.05811  0.17246  1.0000
  H   H726      1.0  0.85992  0.27178  0.20034  1.0000
  C   C594      1.0  0.68896  0.20679  0.02482  1.0000
  C   C595      1.0  0.92651  0.26511  0.19154  1.0000
  H   H727      1.0  0.79492  0.05319  0.03158  1.0000
  H   H728      1.0  0.98934  0.43891  0.26301  1.0000
  H   H729      1.0  0.78295  0.04068  0.11497  1.0000
  H   H730      1.0  0.84325  0.27335  0.17729  1.0000
  C   C596      1.0  0.53265  0.00338  0.00097  1.0000
  C   C597      1.0  0.85473  0.20479  0.18652  1.0000
  C   C598      1.0  0.61274  0.39688  0.10368  1.0000
  H   H731      1.0  0.66449  0.38407  0.06754  1.0000
  H   H732      1.0  0.74508  0.42246  0.12925  1.0000
  H   H733      1.0  0.81840  0.05506  0.12351  1.0000
  H   H734      1.0  0.96626  0.32988  0.19097  1.0000
  C   C599      1.0  0.72223  0.38022  0.12910  1.0000
  H   H735      1.0  0.60884  0.03559  0.11788  1.0000
  C   C600      1.0  0.95375  0.04514  0.21942  1.0000
  C   C601      1.0  0.54039  0.35862  0.12590  1.0000
  C   C602      1.0  0.65134  0.16425  0.02170  1.0000
  H   H736      1.0  0.74422  0.05357  0.09351  1.0000
  H   H737      1.0  0.52578  0.02195  0.06231  1.0000
  H   H738      1.0  0.73345  0.35538  0.28868  1.0000
  C   C603      1.0  0.95590  0.44593  0.28616  1.0000
  C   C604      1.0  0.54779  0.07614  0.15226  1.0000
  H   H739      1.0  0.63342  0.03485  0.14829  1.0000
  H   H740      1.0  0.73956  0.41292  0.10670  1.0000
  C   C605      1.0  0.57135  0.34603  0.09882  1.0000
  C   C606      1.0  0.74624  0.37046  0.29196  1.0000
  C   C607      1.0  0.72498  0.41878  0.11898  1.0000
  H   H741      1.0  0.62121  0.07736  0.30672  1.0000
  H   H742      1.0  0.67194  0.42590  0.14253  1.0000
  H   H743      1.0  0.58818  0.02544  0.00953  1.0000
  C   C608      1.0  0.87952  0.18973  0.17885  1.0000
  C   C609      1.0  0.63806  0.40042  0.11682  1.0000
  C   C610      1.0  0.83884  0.03033  0.09490  1.0000
  N   N39       1.0  0.85921  0.06707  0.21540  1.0000
  H   H744      1.0  0.56533  0.48343  0.30982  1.0000
  H   H745      1.0  0.58550  0.39839  0.10728  1.0000
  N   N40       1.0  0.70159  0.40182  0.12595  1.0000
  H   H746      1.0  0.87159  0.29361  0.18532  1.0000
  C   C611      1.0  0.67398  0.39837  0.11244  1.0000
  C   C612      1.0  0.68273  0.39223  0.09431  1.0000
  H   H747      1.0  0.83057  0.07526  0.19061  1.0000
  C   C613      1.0  0.97628  0.38631  0.18678  1.0000
  C   C614      1.0  0.67017  0.24625  0.02094  1.0000
  C   C615      1.0  0.78088  0.40823  0.30180  1.0000
  H   H748      1.0  0.85699  0.02960  0.10677  1.0000
  H   H749      1.0  0.98596  0.03370  0.17619  1.0000
  H   H750      1.0  0.85494  0.02765  0.08249  1.0000
  H   H751      1.0  0.55473  0.02505  0.19163  1.0000
  S   S167      1.0  0.55475  0.16965  0.00593  1.0000
  N   N41       1.0  0.81757  0.05202  0.09418  1.0000
  C   C616      1.0  0.85521  0.06620  0.19530  1.0000
  C   C617      1.0  0.70486  0.45289  0.30762  1.0000
  C   C618      1.0  0.89071  0.23649  0.17991  1.0000
  C   C619      1.0  0.50392  0.01216  0.01136  1.0000
  C   C620      1.0  0.78292  0.38911  0.31297  1.0000
  H   H752      1.0  0.55307  0.01901  0.11175  1.0000
  C   C621      1.0  0.86263  0.09085  0.22069  1.0000
  H   H753      1.0  0.61189  0.15867  0.05093  1.0000
  C   C622      1.0  0.80662  0.05172  0.06037  1.0000
  C   C623      1.0  0.54292  0.35328  0.08813  1.0000
  C   C624      1.0  0.76581  0.37019  0.30802  1.0000
  C   C625      1.0  0.57018  0.34877  0.11763  1.0000
  H   H754      1.0  0.85528  0.04848  0.19051  1.0000
  C   C626      1.0  0.79350  0.05219  0.07843  1.0000
  H   H755      1.0  0.85724  0.07249  0.10469  1.0000
  H   H756      1.0  0.64948  0.02417  0.19641  1.0000
  H   H757      1.0  0.94025  0.22573  0.16747  1.0000
  C   C627      1.0  0.50909  0.42625  0.20126  1.0000
  H   H758      1.0  0.56999  0.09274  0.12939  1.0000
  C   C628      1.0  0.82671  0.05961  0.22362  1.0000
  Fe  Fe86      1.0  0.57653  0.13238  0.00351  1.0000
  C   C629      1.0  0.89002  0.03550  0.23445  1.0000
  C   C630      1.0  0.56360  0.01857  0.12545  1.0000
  H   H759      1.0  0.78342  0.07096  0.11237  1.0000
  H   H760      1.0  0.73140  0.05565  0.03597  1.0000
  C   C631      1.0  0.90484  0.26818  0.16074  1.0000
  C   C632      1.0  0.98392  0.44572  0.31561  1.0000
  H   H761      1.0  0.57799  0.08686  0.30091  1.0000
  C   C633      1.0  0.64024  0.02503  0.18199  1.0000
  C   C634      1.0  0.74865  0.05406  0.04767  1.0000
  H   H762      1.0  0.92163  0.25969  0.20582  1.0000
  H   H763      1.0  0.85952  0.06825  0.08081  1.0000
  C   C635      1.0  0.54569  0.00882  0.13962  1.0000
  C   C636      1.0  0.53914  0.48502  0.28315  1.0000
  C   C637      1.0  0.55937  0.00815  0.15726  1.0000
  S   S168      1.0  0.53818  0.98810  0.22316  1.0000
  H   H764      1.0  0.97568  0.01808  0.23643  1.0000
  H   H765      1.0  0.59891  0.09841  0.32045  1.0000
  H   H766      1.0  0.91955  0.00960  0.24991  1.0000
  H   H767      1.0  0.52367  0.08516  0.10842  1.0000
  H   H768      1.0  0.54422  0.00073  0.16783  1.0000
  H   H769      1.0  0.61030  0.48431  0.29055  1.0000
  S   S169      1.0  0.51210  0.36964  0.30676  1.0000
  N   N42       1.0  0.58211  0.06478  0.32451  1.0000
  H   H770      1.0  0.60198  0.48043  0.25071  1.0000
  S   S170      1.0  0.50344  0.44326  0.23643  1.0000
  H   H771      1.0  0.49756  0.02885  0.21057  1.0000
  C   C638      1.0  0.75150  0.01974  0.32695  1.0000
  C   C639      1.0  0.54195  0.48093  0.30225  1.0000
  C   C640      1.0  0.51442  0.47284  0.31219  1.0000
  C   C641      1.0  0.52935  0.09227  0.32911  1.0000
  H   H772      1.0  0.91930  0.38172  0.32869  1.0000
  H   H773      1.0  0.60252  0.00166  0.99594  1.0000
  S   S171      1.0  0.83748  0.44656  0.38791  1.0000
  S   S172      1.0  0.86507  0.42159  0.35051  1.0000
  Fe  Fe87      1.0  0.81841  0.44377  0.35872  1.0000
  S   S173      1.0  0.76595  0.42973  0.35095  1.0000
  Fe  Fe88      1.0  0.88572  0.42649  0.37872  1.0000
  S   S174      1.0  0.90717  0.39504  0.39396  1.0000
  H   H774      1.0  0.99169  0.15446  0.50209  1.0000
  S   S175      1.0  0.94871  0.03139  0.38561  1.0000
  H   H775      1.0  0.98305  0.34950  0.35953  1.0000
  H   H776      1.0  0.54516  0.04008  0.34864  1.0000
  Fe  Fe89      1.0  0.86541  0.47697  0.37873  1.0000
  C   C642      1.0  0.95428  0.04791  0.40526  1.0000
  C   C643      1.0  0.92681  0.05491  0.41670  1.0000
  C   C644      1.0  0.93305  0.06794  0.43220  1.0000
  H   H777      1.0  0.90077  0.05061  0.41347  1.0000
  H   H778      1.0  0.91166  0.07352  0.44087  1.0000
  C   C645      1.0  0.96672  0.07396  0.43643  1.0000
  C   C646      1.0  0.94750  0.39226  0.40550  1.0000
  C   C647      1.0  0.97270  0.40783  0.40299  1.0000
  H   H779      1.0  0.94808  0.41441  0.33808  1.0000
  H   H780      1.0  0.96716  0.42256  0.39442  1.0000
  C   C648      1.0  0.95517  0.37313  0.41660  1.0000
  Fe  Fe90      1.0  0.90407  0.01246  0.37415  1.0000
  H   H781      1.0  0.93516  0.35381  0.33570  1.0000
  C   C649      1.0  0.49713  0.09769  0.33712  1.0000
  C   C650      1.0  0.94812  0.23276  0.48054  1.0000
  H   H782      1.0  0.95827  0.36943  0.37289  1.0000
  H   H783      1.0  0.99412  0.44221  0.56149  1.0000
  Fe  Fe91      1.0  0.89022  0.45338  0.34331  1.0000
  H   H784      1.0  0.98764  0.01332  0.35383  1.0000
  C   C651      1.0  0.95539  0.99995  0.44088  1.0000
  C   C652      1.0  0.97279  0.46772  0.46430  1.0000
  C   C653      1.0  0.54836  0.07145  0.33309  1.0000
  C   C654      1.0  0.97752  0.22089  0.48753  1.0000
  Fe  Fe92      1.0  0.83488  0.00651  0.35342  1.0000
  H   H785      1.0  0.74906  0.98909  0.38269  1.0000
  H   H786      1.0  0.91359  0.37290  0.35160  1.0000
  S   S176      1.0  0.84256  0.47569  0.35018  1.0000
  S   S177      1.0  0.84999  0.00620  0.38334  1.0000
  H   H787      1.0  0.94100  0.00902  0.45201  1.0000
  H   H788      1.0  0.61110  0.07329  0.34818  1.0000
  S   S178      1.0  0.88792  0.01651  0.34465  1.0000
  C   C655      1.0  0.92403  0.19747  0.47272  1.0000
  H   H789      1.0  0.91047  0.00635  0.41346  1.0000
  H   H790      1.0  0.70941  0.40277  0.34177  1.0000
  C   C656      1.0  0.70834  0.41681  0.33222  1.0000
  S   S179      1.0  0.78395  0.02546  0.34350  1.0000
  C   C657      1.0  0.99413  0.06672  0.42508  1.0000
  H   H791      1.0  0.94408  0.40721  0.36156  1.0000
  C   C658      1.0  0.94242  0.48148  0.46221  1.0000
  C   C659      1.0  0.97583  0.47699  0.52609  1.0000
  H   H792      1.0  0.97494  0.99826  0.55940  1.0000
  C   C660      1.0  0.98046  0.19731  0.48714  1.0000
  S   S180      1.0  0.97376  0.09074  0.45579  1.0000
  C   C661      1.0  0.73332  0.43300  0.33349  1.0000
  H   H793      1.0  0.99310  0.35495  0.43393  1.0000
  H   H794      1.0  0.96201  0.01281  0.43053  1.0000
  C   C662      1.0  0.97815  0.36789  0.36195  1.0000
  H   H795      1.0  0.60264  0.04395  0.34697  1.0000
  C   C663      1.0  0.60869  0.05896  0.33871  1.0000
  H   H796      1.0  0.66595  0.99575  0.33709  1.0000
  H   H797      1.0  0.97329  0.45008  0.46052  1.0000
  H   H798      1.0  0.99598  0.46480  0.57738  1.0000
  H   H799      1.0  0.89856  0.23043  0.46774  1.0000
  N   N43       1.0  0.95874  0.15998  0.47828  1.0000
  H   H800      1.0  0.98602  0.41187  0.35231  1.0000
  C   C664      1.0  0.98757  0.36969  0.42535  1.0000
  H   H801      1.0  0.93555  0.48352  0.50593  1.0000
  C   C665      1.0  0.98789  0.05385  0.40958  1.0000
  H   H802      1.0  0.93589  0.36092  0.41849  1.0000
  S   S181      1.0  0.91476  0.45666  0.37091  1.0000
  H   H803      1.0  0.94586  0.15520  0.50650  1.0000
  H   H804      1.0  0.63470  0.05477  0.33263  1.0000
  H   H805      1.0  0.95089  0.99243  0.53036  1.0000
  H   H806      1.0  0.90256  0.18957  0.46662  1.0000
  H   H807      1.0  0.91925  0.47454  0.45681  1.0000
  C   C666      1.0  0.53286  0.05648  0.34539  1.0000
  C   C667      1.0  0.92807  0.14928  0.47085  1.0000
  H   H808      1.0  0.94638  0.25106  0.48052  1.0000
  C   C668      1.0  0.96096  0.40445  0.34942  1.0000
  C   C669      1.0  0.95393  0.18485  0.47958  1.0000
  H   H809      1.0  0.98477  0.16241  0.45251  1.0000
  H   H810      1.0  0.93246  0.13053  0.47037  1.0000
  H   H811      1.0  0.90470  0.15296  0.47940  1.0000
  C   C670      1.0  0.96635  0.14982  0.49655  1.0000
  H   H812      1.0  0.88744  0.00409  0.43435  1.0000
  N   N44       1.0  0.96623  0.38016  0.34507  1.0000
  C   C671      1.0  0.98878  0.48218  0.54362  1.0000
  H   H813      1.0  0.98043  0.99280  0.44657  1.0000
  C   C672      1.0  0.92133  0.22108  0.47327  1.0000
  C   C673      1.0  0.98839  0.15409  0.46611  1.0000
  H   H814      1.0  0.98871  0.46450  0.51745  1.0000
  H   H815      1.0  0.96802  0.13102  0.49612  1.0000
  H   H816      1.0  0.92241  0.15480  0.45655  1.0000
  C   C674      1.0  0.90336  0.99418  0.42426  1.0000
  C   C675      1.0  0.50052  0.06205  0.35323  1.0000
  C   C676      1.0  0.93222  0.37175  0.33999  1.0000
  H   H817      1.0  0.99160  0.13559  0.46386  1.0000
  H   H818      1.0  0.71689  0.99386  0.35631  1.0000
  H   H819      1.0  0.98276  0.44830  0.33014  1.0000
  C   C677      1.0  0.99093  0.37728  0.32973  1.0000
  S   S182      1.0  0.55976  0.33810  0.98614  1.0000
  S   S183      1.0  0.55010  0.47339  0.86274  1.0000
  C   C678      1.0  0.65289  0.36099  0.91163  1.0000
  S   S184      1.0  0.62685  0.46011  0.84662  1.0000
  H   H820      1.0  0.57624  0.30201  0.95544  1.0000
  C   C679      1.0  0.53234  0.45225  0.94313  1.0000
  Fe  Fe93      1.0  0.59984  0.45631  0.87398  1.0000
  S   S185      1.0  0.59031  0.42424  0.89117  1.0000
  H   H821      1.0  0.52708  0.00567  0.96460  1.0000
  C   C680      1.0  0.63347  0.36052  0.89567  1.0000
  H   H822      1.0  0.90459  0.43537  0.79348  1.0000
  S   S186      1.0  0.63253  0.37891  0.96904  1.0000
  H   H823      1.0  0.55785  0.39210  0.91415  1.0000
  Fe  Fe94      1.0  0.57850  0.48033  0.83679  1.0000
  C   C681      1.0  0.95024  0.44557  0.77977  1.0000
  H   H824      1.0  0.50225  0.05250  0.83099  1.0000
  S   S187      1.0  0.56704  0.00736  0.88986  1.0000
  C   C682      1.0  0.58143  0.31310  0.94351  1.0000
  C   C683      1.0  0.56987  0.43372  0.96672  1.0000
  H   H825      1.0  0.91610  0.45618  0.82153  1.0000
  C   C684      1.0  0.96297  0.46955  0.81133  1.0000
  H   H826      1.0  0.58848  0.45517  0.94635  1.0000
  S   S188      1.0  0.61501  0.06358  0.95947  1.0000
  C   C685      1.0  0.58073  0.02229  0.90957  1.0000
  C   C686      1.0  0.55866  0.03997  0.91663  1.0000
  C   C687      1.0  0.56848  0.05269  0.93181  1.0000
  C   C688      1.0  0.60097  0.04825  0.94007  1.0000
  C   C689      1.0  0.62297  0.03051  0.93307  1.0000
  C   C690      1.0  0.61291  0.01755  0.91809  1.0000
  C   C691      1.0  0.63905  0.31472  0.95519  1.0000
  H   H827      1.0  0.55112  0.06619  0.93689  1.0000
  H   H828      1.0  0.64813  0.02677  0.93928  1.0000
  C   C692      1.0  0.96917  0.46893  0.68877  1.0000
  H   H829      1.0  0.51647  0.00295  0.80370  1.0000
  H   H830      1.0  0.94496  0.43655  0.76741  1.0000
  Fe  Fe95      1.0  0.60871  0.35558  0.99042  1.0000
  Fe  Fe96      1.0  0.60119  0.08834  0.98308  1.0000
  H   H831      1.0  0.63595  0.37343  0.88525  1.0000
  C   C693      1.0  0.98597  0.47135  0.79633  1.0000
  C   C694      1.0  0.53287  0.01091  0.83646  1.0000
  H   H832      1.0  0.55220  0.05111  0.97683  1.0000
  C   C695      1.0  0.59382  0.20264  0.98924  1.0000
  H   H833      1.0  0.67042  0.37430  0.91351  1.0000
  C   C696      1.0  0.56539  0.44809  0.95153  1.0000
  C   C697      1.0  0.64866  0.34513  0.92554  1.0000
  C   C698      1.0  0.50430  0.44134  0.95104  1.0000
  C   C699      1.0  0.92755  0.44484  0.79443  1.0000
  H   H834      1.0  0.51014  0.04171  0.98143  1.0000
  H   H835      1.0  0.66365  0.34716  0.93778  1.0000
  C   C700      1.0  0.61025  0.34384  0.89335  1.0000
  H   H836      1.0  0.61173  0.28369  0.92015  1.0000
  H   H837      1.0  0.62415  0.27538  0.94280  1.0000
  N   N45       1.0  0.61862  0.31142  0.93839  1.0000
  H   H838      1.0  0.54802  0.01338  0.84916  1.0000
  H   H839      1.0  0.65550  0.28644  0.92755  1.0000
  S   S189      1.0  0.56396  0.48325  0.80642  1.0000
  H   H840      1.0  0.53375  0.04396  0.91024  1.0000
  H   H841      1.0  0.60765  0.18896  0.98216  1.0000
  C   C701      1.0  0.60092  0.41337  0.91359  1.0000
  C   C702      1.0  0.63002  0.41947  0.92329  1.0000
  C   C703      1.0  0.63891  0.40896  0.94024  1.0000
  C   C704      1.0  0.61858  0.39250  0.94802  1.0000
  C   C705      1.0  0.58877  0.38698  0.93862  1.0000
  C   C706      1.0  0.58031  0.39713  0.92149  1.0000
  H   H842      1.0  0.64641  0.43173  0.91746  1.0000
  H   H843      1.0  0.66204  0.41344  0.94728  1.0000
  H   H844      1.0  0.57270  0.37448  0.94432  1.0000
  H   H845      1.0  0.59508  0.34365  0.88091  1.0000
  C   C707      1.0  0.53724  0.04109  0.98661  1.0000
  C   C708      1.0  0.97924  0.45837  0.78073  1.0000
  H   H846      1.0  0.75761  0.46582  0.80199  1.0000
  H   H847      1.0  0.57288  0.33075  0.94715  1.0000
  C   C709      1.0  0.54195  0.42298  0.97390  1.0000
  C   C710      1.0  0.58389  0.24356  0.99447  1.0000
  H   H848      1.0  0.60374  0.02947  0.98672  1.0000
  C   C711      1.0  0.60605  0.32773  0.90708  1.0000
  H   H849      1.0  0.57828  0.46259  0.91561  1.0000
  H   H850      1.0  0.58758  0.31521  0.90467  1.0000
  H   H851      1.0  0.63248  0.33162  0.96114  1.0000
  H   H852      1.0  0.56429  0.30794  0.93238  1.0000
  C   C712      1.0  0.62476  0.32806  0.92374  1.0000
  H   H853      1.0  0.66742  0.31293  0.95259  1.0000
  C   C713      1.0  0.62790  0.28826  0.93190  1.0000
  H   H854      1.0  0.63373  0.30205  0.96597  1.0000
  S   S190      1.0  0.62696  0.12050  0.99023  1.0000
  N   N46       1.0  0.52665  0.46682  0.92672  1.0000
  H   H855      1.0  0.50036  0.00618  0.86665  1.0000
  C   C714      1.0  0.55361  0.00760  0.97002  1.0000
  H   H856      1.0  0.56820  0.99088  0.96965  1.0000
  H   H857      1.0  0.54523  0.02076  0.82558  1.0000
  H   H858      1.0  0.56702  0.01838  0.96019  1.0000
  H   H859      1.0  0.62208  0.22853  0.97614  1.0000
  H   H860      1.0  0.95201  0.45909  0.68093  1.0000
  H   H861      1.0  0.52865  0.43789  0.90932  1.0000
  H   H862      1.0  0.53642  0.99268  0.83315  1.0000
  C   C715      1.0  0.60184  0.22524  0.98575  1.0000
  H   H863      1.0  0.59551  0.43019  0.97257  1.0000
  C   C716      1.0  0.93410  0.45660  0.81024  1.0000
  H   H864      1.0  0.50906  0.04625  0.85485  1.0000
  C   C717      1.0  0.95824  0.47733  0.70589  1.0000
  H   H865      1.0  0.63039  0.00416  0.91291  1.0000
  H   H866      1.0  0.71048  0.47211  0.82477  1.0000
  C   C718      1.0  0.50918  0.42686  0.96614  1.0000
  C   C719      1.0  0.51211  0.45361  0.91181  1.0000
  H   H867      1.0  0.54589  0.41130  0.98533  1.0000
  H   H868      1.0  0.93304  0.47375  0.71113  1.0000
  C   C720      1.0  0.55878  0.47622  0.91973  1.0000
  S   S191      1.0  0.59489  0.27187  0.98904  1.0000
  C   C721      1.0  0.75668  0.48081  0.81024  1.0000
  H   H869      1.0  0.51049  0.46331  0.89872  1.0000
  C   C722      1.0  0.72983  0.48432  0.82321  1.0000
  N   N47       1.0  0.55234  0.01751  0.98850  1.0000
  H   H870      1.0  0.96598  0.47856  0.82385  1.0000
  C   C723      1.0  0.58822  0.01849  0.99547  1.0000
  S   S192      1.0  0.54920  0.10117  0.99452  1.0000
  H   H871      1.0  0.99580  0.45837  0.76889  1.0000
  H   H872      1.0  0.50566  0.55801  0.02634  1.0000
  H   H873      1.0  0.71902  0.97745  0.30229  1.0000
  H   H874      1.0  0.89392  0.50967  0.32637  1.0000
  C   C724      1.0  0.95803  0.51018  0.30989  1.0000
  H   H875      1.0  0.93240  0.51346  0.30417  1.0000
  H   H876      1.0  0.53536  0.52622  0.00731  1.0000
  H   H877      1.0  0.76807  0.98487  0.32288  1.0000
  H   H878      1.0  0.59060  0.51262  0.29307  1.0000
  H   H879      1.0  0.57707  0.52085  0.25373  1.0000
  H   H880      1.0  0.54348  0.52673  0.27030  1.0000
  C   C725      1.0  0.50055  0.97599  0.19319  1.0000
  H   H881      1.0  0.53606  0.50962  0.25081  1.0000
  C   C726      1.0  0.59810  0.49924  0.28307  1.0000
  C   C727      1.0  0.98392  0.50120  0.29830  1.0000
  C   C728      1.0  0.55554  0.51345  0.26130  1.0000
  H   H882      1.0  0.51221  0.95918  0.19577  1.0000
  C   C729      1.0  0.95834  0.97266  0.30094  1.0000
  C   C730      1.0  0.52523  0.96650  0.01549  1.0000
  S   S193      1.0  0.93332  0.96343  0.31972  1.0000
  H   H883      1.0  0.62281  0.98144  0.17871  1.0000
  N   N48       1.0  0.56786  0.49315  0.27205  1.0000
  C   C731      1.0  0.97564  0.95583  0.29057  1.0000
  H   H884      1.0  0.61903  0.50558  0.27440  1.0000
  C   C732      1.0  0.54278  0.98011  0.00344  1.0000
  H   H885      1.0  0.97780  0.49748  0.28427  1.0000
  H   H886      1.0  0.91465  0.54680  0.32004  1.0000
  C   C733      1.0  0.51227  0.52916  0.99830  1.0000
  H   H887      1.0  0.97280  0.93827  0.29397  1.0000
  H   H888      1.0  0.53376  0.94886  0.01734  1.0000
  C   C734      1.0  0.49724  0.97565  0.02546  1.0000
  H   H889      1.0  0.56483  0.97237  0.99630  1.0000
  C   C735      1.0  0.96484  0.51422  0.32855  1.0000
  H   H890      1.0  0.92535  0.53188  0.36865  1.0000
  H   H891      1.0  0.92384  0.52196  0.55481  1.0000
  H   H892      1.0  0.93241  0.56559  0.63495  1.0000
  Fe  Fe97      1.0  0.65571  0.80552  0.64911  1.0000
  C   C736      1.0  0.76921  0.71526  0.60512  1.0000
  Fe  Fe98      1.0  0.92543  0.59377  0.51798  1.0000
  S   S194      1.0  0.88394  0.56949  0.52034  1.0000
  H   H893      1.0  0.88642  0.51496  0.34992  1.0000
  Fe  Fe99      1.0  0.87399  0.63255  0.50495  1.0000
  S   S195      1.0  0.82939  0.60943  0.50565  1.0000
  S   S196      1.0  0.85785  0.67010  0.49864  1.0000
  Fe  Fe100     1.0  0.85143  0.59797  0.53285  1.0000
  S   S197      1.0  0.82883  0.59458  0.56135  1.0000
  Fe  Fe101     1.0  0.86615  0.58273  0.49262  1.0000
  S   S198      1.0  0.85572  0.55318  0.47317  1.0000
  S   S199      1.0  0.89473  0.62148  0.53244  1.0000
  S   S200      1.0  0.90898  0.60661  0.48994  1.0000
  C   C737      1.0  0.67489  0.97971  0.34325  1.0000
  S   S201      1.0  0.65514  0.58609  0.64787  1.0000
  H   H894      1.0  0.54252  0.60829  0.58691  1.0000
  S   S202      1.0  0.64369  0.64073  0.64137  1.0000
  C   C738      1.0  0.69021  0.70348  0.66014  1.0000
  S   S203      1.0  0.98074  0.58005  0.52398  1.0000
  H   H895      1.0  0.59994  0.56748  0.62614  1.0000
  Fe  Fe102     1.0  0.67762  0.61217  0.62969  1.0000
  S   S204      1.0  0.68027  0.60922  0.59885  1.0000
  C   C739      1.0  0.73765  0.72107  0.61349  1.0000
  H   H896      1.0  0.88526  0.56047  0.65459  1.0000
  H   H897      1.0  0.73311  0.92838  0.39068  1.0000
  C   C740      1.0  0.64242  0.72557  0.64571  1.0000
  S   S205      1.0  0.64834  0.83413  0.62875  1.0000
  H   H898      1.0  0.96474  0.50083  0.65753  1.0000
  Fe  Fe103     1.0  0.70164  0.84248  0.63773  1.0000
  S   S206      1.0  0.74997  0.84936  0.62145  1.0000
  C   C741      1.0  0.97084  0.55447  0.57524  1.0000
  C   C742      1.0  0.53671  0.58347  0.61736  1.0000
  C   C743      1.0  0.89176  0.96181  0.45225  1.0000
  Fe  Fe104     1.0  0.86539  0.96909  0.37997  1.0000
  H   H899      1.0  0.90457  0.55457  0.34295  1.0000
  S   S207      1.0  0.84406  0.94661  0.40290  1.0000
  H   H900      1.0  0.94163  0.78621  0.57612  1.0000
  H   H901      1.0  0.89971  0.90394  0.63871  1.0000
  H   H902      1.0  0.84415  0.88660  0.63774  1.0000
  S   S208      1.0  0.84775  0.96928  0.35043  1.0000
  H   H903      1.0  0.95012  0.54327  0.62104  1.0000
  Fe  Fe105     1.0  0.90091  0.85134  0.53149  1.0000
  S   S209      1.0  0.85763  0.87172  0.51729  1.0000
  S   S210      1.0  0.92686  0.86635  0.55600  1.0000
  Fe  Fe106     1.0  0.88502  0.80694  0.51190  1.0000
  S   S211      1.0  0.84079  0.82476  0.49601  1.0000
  S   S212      1.0  0.90688  0.76977  0.51496  1.0000
  Fe  Fe107     1.0  0.87556  0.85390  0.49162  1.0000
  S   S213      1.0  0.89154  0.87328  0.46550  1.0000
  Fe  Fe108     1.0  0.82648  0.84163  0.52284  1.0000
  S   S214      1.0  0.77234  0.84422  0.53534  1.0000
  S   S215      1.0  0.92096  0.83481  0.50593  1.0000
  S   S216      1.0  0.86850  0.82250  0.53850  1.0000
  H   H904      1.0  0.70965  0.80636  0.57287  1.0000
  C   C744      1.0  0.96827  0.87677  0.55905  1.0000
  H   H905      1.0  0.95568  0.53463  0.50590  1.0000
  C   C745      1.0  0.95774  0.55207  0.46177  1.0000
  H   H906      1.0  0.90132  0.97588  0.51623  1.0000
  C   C746      1.0  0.94729  0.52519  0.35997  1.0000
  C   C747      1.0  0.97479  0.88816  0.57522  1.0000
  C   C748      1.0  0.88504  0.94557  0.46550  1.0000
  H   H907      1.0  0.72692  0.78007  0.56417  1.0000
  H   H908      1.0  0.78585  0.89064  0.63653  1.0000
  H   H909      1.0  0.95437  0.89077  0.58519  1.0000
  H   H910      1.0  0.95547  0.50823  0.36573  1.0000
  C   C749      1.0  0.85797  0.92591  0.41999  1.0000
  C   C750      1.0  0.89212  0.91651  0.42129  1.0000
  C   C751      1.0  0.90162  0.90036  0.43509  1.0000
  C   C752      1.0  0.87734  0.89327  0.44793  1.0000
  C   C753      1.0  0.84316  0.90262  0.44658  1.0000
  C   C754      1.0  0.83363  0.91872  0.43274  1.0000
  H   H911      1.0  0.91119  0.92144  0.41155  1.0000
  H   H912      1.0  0.92810  0.89330  0.43587  1.0000
  H   H913      1.0  0.82405  0.89744  0.45623  1.0000
  H   H914      1.0  0.80711  0.92569  0.43198  1.0000
  C   C755      1.0  0.75526  0.84818  0.59745  1.0000
  C   C756      1.0  0.78898  0.84639  0.59029  1.0000
  C   C757      1.0  0.79456  0.84535  0.57135  1.0000
  C   C758      1.0  0.76642  0.84625  0.55929  1.0000
  C   C759      1.0  0.73264  0.84841  0.56645  1.0000
  C   C760      1.0  0.72703  0.84927  0.58543  1.0000
  H   H915      1.0  0.81103  0.84580  0.59942  1.0000
  H   H916      1.0  0.82068  0.84403  0.56608  1.0000
  H   H917      1.0  0.71071  0.84943  0.55723  1.0000
  H   H918      1.0  0.70092  0.85112  0.59072  1.0000
  H   H919      1.0  0.70762  0.92158  0.36325  1.0000
  C   C761      1.0  0.94627  0.93633  0.46922  1.0000
  C   C762      1.0  0.98523  0.54253  0.65194  1.0000
  C   C763      1.0  0.98917  0.56610  0.54513  1.0000
  H   H920      1.0  0.65623  0.92474  0.34373  1.0000
  H   H921      1.0  0.58551  0.60961  0.63212  1.0000
  H   H922      1.0  0.61729  0.72630  0.63913  1.0000
  C   C764      1.0  0.88368  0.90382  0.65081  1.0000
  H   H923      1.0  0.60624  0.61634  0.61114  1.0000
  C   C765      1.0  0.58121  0.61168  0.61718  1.0000
  C   C766      1.0  0.87176  0.69761  0.50379  1.0000
  C   C767      1.0  0.90229  0.70087  0.51344  1.0000
  C   C768      1.0  0.91232  0.72298  0.51680  1.0000
  C   C769      1.0  0.89195  0.74226  0.51078  1.0000
  C   C770      1.0  0.86103  0.73897  0.50149  1.0000
  C   C771      1.0  0.85117  0.71687  0.49798  1.0000
  H   H924      1.0  0.91854  0.68638  0.51802  1.0000
  H   H925      1.0  0.93628  0.72514  0.52396  1.0000
  H   H926      1.0  0.84504  0.75347  0.49666  1.0000
  H   H927      1.0  0.82755  0.71471  0.49046  1.0000
  C   C772      1.0  0.78682  0.59844  0.57102  1.0000
  C   C773      1.0  0.75684  0.60345  0.56060  1.0000
  C   C774      1.0  0.72430  0.60666  0.56923  1.0000
  C   C775      1.0  0.72143  0.60485  0.58829  1.0000
  C   C776      1.0  0.75136  0.59959  0.59861  1.0000
  C   C777      1.0  0.78378  0.59643  0.59002  1.0000
  H   H928      1.0  0.75861  0.60456  0.54593  1.0000
  H   H929      1.0  0.70127  0.61054  0.56110  1.0000
  H   H930      1.0  0.74960  0.59786  0.61323  1.0000
  H   H931      1.0  0.80672  0.59239  0.59819  1.0000
  C   C778      1.0  0.85990  0.54220  0.45043  1.0000
  C   C779      1.0  0.87266  0.55459  0.43583  1.0000
  C   C780      1.0  0.87649  0.54486  0.41834  1.0000
  C   C781      1.0  0.86773  0.52257  0.41500  1.0000
  C   C782      1.0  0.85514  0.51014  0.42962  1.0000
  C   C783      1.0  0.85118  0.51991  0.44710  1.0000
  H   H932      1.0  0.87935  0.57176  0.43797  1.0000
  H   H933      1.0  0.88606  0.55480  0.40724  1.0000
  H   H934      1.0  0.59339  0.55751  0.60351  1.0000
  H   H935      1.0  0.84121  0.51005  0.45815  1.0000
  H   H936      1.0  0.78334  0.69943  0.60862  1.0000
  C   C784      1.0  0.92182  0.96498  0.52239  1.0000
  H   H937      1.0  0.77419  0.98390  0.36226  1.0000
  N   N49       1.0  0.93453  0.98247  0.43283  1.0000
  C   C785      1.0  0.96341  0.56524  0.55839  1.0000
  H   H938      1.0  0.96572  0.76255  0.53753  1.0000
  C   C786      1.0  0.99353  0.98405  0.56353  1.0000
  C   C787      1.0  0.69161  0.74441  0.65693  1.0000
  H   H939      1.0  0.93783  0.57316  0.55577  1.0000
  C   C788      1.0  0.90684  0.50946  0.33990  1.0000
  N   N50       1.0  0.80202  0.66835  0.54949  1.0000
  C   C789      1.0  0.83989  0.66413  0.55260  1.0000
  C   C790      1.0  0.79159  0.65224  0.53558  1.0000
  C   C791      1.0  0.79628  0.69164  0.54196  1.0000
  C   C792      1.0  0.78107  0.66556  0.56615  1.0000
  C   C793      1.0  0.74480  0.67126  0.56592  1.0000
  C   C794      1.0  0.79533  0.65619  0.58267  1.0000
  C   C795      1.0  0.72426  0.66808  0.58128  1.0000
  C   C796      1.0  0.77453  0.65316  0.59797  1.0000
  C   C797      1.0  0.73911  0.65907  0.59727  1.0000
  H   H940      1.0  0.84664  0.64627  0.55676  1.0000
  H   H941      1.0  0.85497  0.66699  0.53993  1.0000
  H   H942      1.0  0.84948  0.67548  0.56314  1.0000
  H   H943      1.0  0.79706  0.63451  0.54036  1.0000
  H   H944      1.0  0.80595  0.65425  0.52259  1.0000
  H   H945      1.0  0.76354  0.65441  0.53222  1.0000
  H   H946      1.0  0.80161  0.70441  0.55239  1.0000
  H   H947      1.0  0.81350  0.69447  0.53008  1.0000
  H   H948      1.0  0.76952  0.69530  0.53674  1.0000
  H   H949      1.0  0.73184  0.67756  0.55366  1.0000
  H   H950      1.0  0.82224  0.65030  0.58399  1.0000
  H   H951      1.0  0.69648  0.67194  0.58067  1.0000
  H   H952      1.0  0.78569  0.64534  0.61025  1.0000
  H   H953      1.0  0.72294  0.65591  0.60898  1.0000
  H   H954      1.0  0.94027  0.95742  0.41196  1.0000
  H   H955      1.0  0.79055  0.97413  0.38385  1.0000
  C   C798      1.0  0.65904  0.74552  0.64854  1.0000
  H   H956      1.0  0.89666  0.93450  0.51670  1.0000
  H   H957      1.0  0.93026  0.54951  0.45849  1.0000
  C   C799      1.0  0.69910  0.93809  0.35799  1.0000
  C   C800      1.0  0.94175  0.50426  0.46681  1.0000
  H   H958      1.0  0.96845  0.53677  0.36181  1.0000
  C   C801      1.0  0.74252  0.94563  0.39123  1.0000
  H   H959      1.0  0.62309  0.57854  0.60715  1.0000
  H   H960      1.0  0.86935  0.97044  0.44588  1.0000
  C   C802      1.0  0.78285  0.73002  0.59257  1.0000
  H   H961      1.0  0.77775  0.85016  0.66142  1.0000
  H   H962      1.0  0.97345  0.54780  0.44946  1.0000
  H   H963      1.0  0.88689  0.98198  0.41754  1.0000
  N   N51       1.0  0.71337  0.77906  0.59270  1.0000
  C   C803      1.0  0.71702  0.79369  0.60868  1.0000
  C   C804      1.0  0.67586  0.77622  0.58964  1.0000
  H   H964      1.0  0.74475  0.79629  0.61163  1.0000
  H   H965      1.0  0.70375  0.81070  0.60644  1.0000
  H   H966      1.0  0.70569  0.78638  0.62117  1.0000
  H   H967      1.0  0.66234  0.77093  0.60218  1.0000
  H   H968      1.0  0.66161  0.79237  0.58541  1.0000
  N   N52       1.0  0.56917  0.59074  0.60912  1.0000
  C   C805      1.0  0.94594  0.54292  0.49307  1.0000
  H   H969      1.0  0.80081  0.93756  0.37123  1.0000
  H   H970      1.0  0.96067  0.98312  0.40688  1.0000
  C   C806      1.0  0.91218  0.93267  0.47378  1.0000
  H   H971      1.0  0.64464  0.68941  0.64944  1.0000
  C   C807      1.0  0.76648  0.97648  0.37551  1.0000
  H   H972      1.0  0.90264  0.51228  0.52430  1.0000
  C   C808      1.0  0.97747  0.96040  0.53876  1.0000
  H   H973      1.0  0.99018  0.86470  0.53375  1.0000
  H   H974      1.0  0.72733  0.70973  0.62352  1.0000
  S   S217      1.0  0.63830  0.77136  0.64113  1.0000
  H   H975      1.0  0.92498  0.50436  0.64503  1.0000
  C   C809      1.0  0.94519  0.92762  0.53062  1.0000
  H   H976      1.0  0.94275  0.90950  0.53097  1.0000
  H   H977      1.0  0.55679  0.57962  0.58208  1.0000
  H   H978      1.0  0.96543  0.80033  0.52906  1.0000
  C   C810      1.0  0.93835  0.50931  0.54682  1.0000
  H   H979      1.0  0.98021  0.97327  0.57346  1.0000
  N   N53       1.0  0.97031  0.53844  0.47783  1.0000
  H   H980      1.0  0.98022  0.96336  0.42284  1.0000
  H   H981      1.0  0.94242  0.56126  0.49580  1.0000
  C   C811      1.0  0.95130  0.51070  0.64637  1.0000
  H   H982      1.0  0.53657  0.55189  0.60240  1.0000
  C   C812      1.0  0.71774  0.95729  0.36189  1.0000
  H   H983      1.0  0.72255  0.95664  0.39835  1.0000
  H   H984      1.0  0.91746  0.51419  0.46504  1.0000
  C   C813      1.0  0.70443  0.97830  0.35435  1.0000
  C   C814      1.0  0.65790  0.70463  0.65150  1.0000
  H   H985      1.0  0.91967  0.53722  0.49026  1.0000
  S   S218      1.0  0.72286  0.61719  0.64804  1.0000
  H   H986      1.0  0.97501  0.83176  0.57154  1.0000
  C   C815      1.0  0.97171  0.51411  0.47347  1.0000
  C   C816      1.0  0.51726  0.59659  0.63036  1.0000
  H   H987      1.0  0.56242  0.62643  0.61477  1.0000
  H   H988      1.0  0.63548  0.96163  0.33029  1.0000
  C   C817      1.0  0.65774  0.96046  0.33935  1.0000
  Fe  Fe109     1.0  0.90146  0.97942  0.34297  1.0000
  H   H989      1.0  0.70509  0.75960  0.65872  1.0000
  H   H990      1.0  0.96607  0.50640  0.63371  1.0000
  C   C818      1.0  0.95041  0.97426  0.53043  1.0000
  C   C819      1.0  0.52363  0.56258  0.61244  1.0000
  C   C820      1.0  0.71959  0.74165  0.60930  1.0000
  Fe  Fe110     1.0  0.62798  0.85463  0.65272  1.0000
  H   H991      1.0  0.80776  0.72562  0.58636  1.0000
  H   H992      1.0  0.98502  0.56057  0.65591  1.0000
  H   H993      1.0  0.90668  0.91924  0.48328  1.0000
  H   H994      1.0  0.99293  0.92480  0.54470  1.0000
  H   H995      1.0  0.75270  0.79703  0.57867  1.0000
  H   H996      1.0  0.67198  0.76356  0.57890  1.0000
  H   H997      1.0  0.92850  0.78649  0.55259  1.0000
  H   H998      1.0  0.91520  0.49159  0.34304  1.0000
  C   C821      1.0  0.97400  0.93671  0.53857  1.0000
  H   H999      1.0  0.78083  0.94498  0.34962  1.0000
  C   C822      1.0  0.92629  0.96577  0.44706  1.0000
  C   C823      1.0  0.95335  0.95271  0.45616  1.0000
  H   H1000     1.0  0.98022  0.95472  0.45295  1.0000
  C   C824      1.0  0.59748  0.57279  0.61158  1.0000
  Fe  Fe111     1.0  0.62539  0.61490  0.66131  1.0000
  S   S219      1.0  0.70998  0.81262  0.65682  1.0000
  H   H1001     1.0  0.58770  0.60072  0.58276  1.0000
  C   C825      1.0  0.92643  0.50391  0.52961  1.0000
  C   C826      1.0  0.85177  0.89402  0.65040  1.0000
  H   H1002     1.0  0.95073  0.55412  0.58544  1.0000
  H   H1003     1.0  0.81401  0.85576  0.64764  1.0000
  C   C827      1.0  0.76496  0.75068  0.58830  1.0000
  C   C828      1.0  0.72637  0.79096  0.57641  1.0000
  C   C829      1.0  0.73240  0.75700  0.59640  1.0000
  H   H1004     1.0  0.69578  0.74562  0.61656  1.0000
  C   C830      1.0  0.66962  0.93971  0.34684  1.0000
  H   H1005     1.0  0.77141  0.91262  0.65196  1.0000
  N   N54       1.0  0.74997  0.95486  0.37290  1.0000
  C   C831      1.0  0.77560  0.93910  0.36376  1.0000
  S   S220      1.0  0.87316  0.51134  0.39241  1.0000
  C   C832      1.0  0.56377  0.59500  0.58935  1.0000
  H   H1006     1.0  0.74851  0.88733  0.64984  1.0000
  H   H1007     1.0  0.76625  0.94423  0.39998  1.0000
  H   H1008     1.0  0.77738  0.76157  0.57880  1.0000
  H   H1009     1.0  0.85853  0.94218  0.46877  1.0000
  C   C833      1.0  0.93411  0.54693  0.63339  1.0000
  C   C834      1.0  0.96878  0.49846  0.55385  1.0000
  H   H1010     1.0  0.76685  0.92171  0.36290  1.0000
  C   C835      1.0  0.91914  0.94170  0.52259  1.0000
  C   C836      1.0  0.94237  0.79588  0.56308  1.0000
  H   H1011     1.0  0.96722  0.92595  0.47554  1.0000
  H   H1012     1.0  0.90791  0.54126  0.63024  1.0000
  N   N55       1.0  0.94940  0.53530  0.64984  1.0000
  H   H1013     1.0  0.92660  0.81213  0.56488  1.0000
  N   N56       1.0  0.97855  0.79972  0.55776  1.0000
  C   C837      1.0  0.77475  0.89401  0.65027  1.0000
  S   S221      1.0  0.92008  0.97546  0.37205  1.0000
  N   N57       1.0  0.93684  0.52373  0.34053  1.0000
  H   H1014     1.0  0.84810  0.49306  0.42743  1.0000
  H   H1015     1.0  0.52509  0.61261  0.63517  1.0000
  C   C838      1.0  0.98890  0.76034  0.54578  1.0000
  H   H1016     1.0  0.57611  0.56827  0.65895  1.0000
  C   C839      1.0  0.95484  0.97107  0.41806  1.0000
  H   H1017     1.0  0.97630  0.50286  0.56748  1.0000
  H   H1018     1.0  0.95849  0.57053  0.46418  1.0000
  C   C840      1.0  0.94511  0.48778  0.51927  1.0000
  H   H1019     1.0  0.96327  0.82730  0.53958  1.0000
  Fe  Fe112     1.0  0.68768  0.64436  0.66080  1.0000
  S   S222      1.0  0.68097  0.86573  0.65978  1.0000
  S   S223      1.0  0.58221  0.88084  0.65375  1.0000
  C   C841      1.0  0.97804  0.81058  0.53948  1.0000
  C   C842      1.0  0.92538  0.54677  0.33410  1.0000
  C   C843      1.0  0.80242  0.85887  0.66131  1.0000
  C   C844      1.0  0.99200  0.81590  0.57091  1.0000
  H   H1020     1.0  0.99309  0.80878  0.58499  1.0000
  C   C845      1.0  0.99489  0.87338  0.54630  1.0000
  H   H1021     1.0  0.94735  0.55798  0.33406  1.0000
  H   H1022     1.0  0.53665  0.53705  0.66237  1.0000
  C   C846      1.0  0.92383  0.53603  0.69992  1.0000
  S   S224      1.0  0.59556  0.51329  0.84695  1.0000
  Fe  Fe113     1.0  0.92268  0.51280  0.75375  1.0000
  S   S225      1.0  0.92603  0.55019  0.75707  1.0000
  Fe  Fe114     1.0  0.85867  0.51245  0.78009  1.0000
  S   S226      1.0  0.85995  0.54954  0.78520  1.0000
  C   C847      1.0  0.99488  0.95368  0.67913  1.0000
  Fe  Fe115     1.0  0.86795  0.55221  0.75499  1.0000
  S   S227      1.0  0.83865  0.58082  0.73994  1.0000
  Fe  Fe116     1.0  0.91820  0.54383  0.78681  1.0000
  S   S228      1.0  0.95025  0.55922  0.80904  1.0000
  S   S229      1.0  0.86461  0.51534  0.74940  1.0000
  S   S230      1.0  0.91660  0.50635  0.78396  1.0000
  S   S231      1.0  0.72175  0.56305  0.68239  1.0000
  S   S232      1.0  0.66681  0.62096  0.68183  1.0000
  S   S233      1.0  0.70038  0.83947  0.70736  1.0000
  H   H1023     1.0  0.60994  0.83946  0.72642  1.0000
  Fe  Fe117     1.0  0.87119  0.87575  0.74501  1.0000
  S   S234      1.0  0.84870  0.91063  0.73813  1.0000
  S   S235      1.0  0.85874  0.84698  0.72687  1.0000
  Fe  Fe118     1.0  0.91633  0.89175  0.77564  1.0000
  S   S236      1.0  0.89670  0.92771  0.77043  1.0000
  S   S237      1.0  0.95348  0.88833  0.79987  1.0000
  Fe  Fe119     1.0  0.84335  0.91456  0.76868  1.0000
  Fe  Fe120     1.0  0.63480  0.93943  0.85570  1.0000
  Fe  Fe121     1.0  0.90399  0.92011  0.74067  1.0000
  S   S238      1.0  0.79670  0.93441  0.78205  1.0000
  S   S239      1.0  0.86261  0.87880  0.77527  1.0000
  S   S240      1.0  0.92677  0.88501  0.74606  1.0000
  H   H1024     1.0  0.91984  0.92105  0.66703  1.0000
  H   H1025     1.0  0.80016  0.52775  0.81742  1.0000
  S   S241      1.0  0.59128  0.91960  0.84579  1.0000
  Fe  Fe122     1.0  0.56649  0.92488  0.87323  1.0000
  S   S242      1.0  0.68875  0.92355  0.84773  1.0000
  H   H1026     1.0  0.67038  0.54340  0.81950  1.0000
  H   H1027     1.0  0.52999  0.94684  0.77067  1.0000
  H   H1028     1.0  0.82665  0.96187  0.82374  1.0000
  C   C848      1.0  0.54260  0.54015  0.92078  1.0000
  Fe  Fe123     1.0  0.57005  0.50529  0.87355  1.0000
  C   C849      1.0  0.89720  0.55331  0.66683  1.0000
  C   C850      1.0  0.97225  0.95752  0.69402  1.0000
  C   C851      1.0  0.67971  0.53686  0.80653  1.0000
  S   S243      1.0  0.54785  0.95589  0.80772  1.0000
  H   H1029     1.0  0.99056  0.51246  0.81211  1.0000
  C   C852      1.0  0.76544  0.93025  0.79961  1.0000
  C   C853      1.0  0.71669  0.92636  0.82852  1.0000
  C   C854      1.0  0.74123  0.90853  0.82442  1.0000
  C   C855      1.0  0.76502  0.91029  0.80994  1.0000
  H   H1030     1.0  0.74191  0.89322  0.83256  1.0000
  H   H1031     1.0  0.78313  0.89621  0.80691  1.0000
  C   C856      1.0  0.60324  0.82428  0.71954  1.0000
  C   C857      1.0  0.96800  0.91741  0.69810  1.0000
  C   C858      1.0  0.54827  0.82733  0.95203  1.0000
  H   H1032     1.0  0.95747  0.90330  0.70512  1.0000
  H   H1033     1.0  0.61484  0.54948  0.78184  1.0000
  C   C859      1.0  0.74453  0.84154  0.71244  1.0000
  C   C860      1.0  0.75378  0.85409  0.72755  1.0000
  C   C861      1.0  0.78880  0.85615  0.73190  1.0000
  C   C862      1.0  0.81472  0.84488  0.72158  1.0000
  C   C863      1.0  0.80548  0.83182  0.70675  1.0000
  C   C864      1.0  0.77045  0.83050  0.70195  1.0000
  H   H1034     1.0  0.73385  0.86224  0.73592  1.0000
  H   H1035     1.0  0.79574  0.86606  0.74346  1.0000
  H   H1036     1.0  0.82552  0.82287  0.69889  1.0000
  H   H1037     1.0  0.76351  0.82052  0.69044  1.0000
  Fe  Fe124     1.0  0.68508  0.83525  0.67798  1.0000
  C   C865      1.0  0.80753  0.57543  0.72330  1.0000
  C   C866      1.0  0.80034  0.55341  0.71875  1.0000
  C   C867      1.0  0.77411  0.54976  0.70606  1.0000
  C   C868      1.0  0.75528  0.56808  0.69770  1.0000
  C   C869      1.0  0.76279  0.59007  0.70205  1.0000
  C   C870      1.0  0.78880  0.59371  0.71486  1.0000
  H   H1038     1.0  0.81477  0.53920  0.72505  1.0000
  H   H1039     1.0  0.76852  0.53271  0.70263  1.0000
  H   H1040     1.0  0.74845  0.60430  0.69563  1.0000
  H   H1041     1.0  0.79434  0.61079  0.71828  1.0000
  C   C871      1.0  0.89514  0.91340  0.66677  1.0000
  C   C872      1.0  0.83018  0.89366  0.66601  1.0000
  C   C873      1.0  0.51327  0.89853  0.93779  1.0000
  H   H1042     1.0  0.51785  0.54304  0.98861  1.0000
  H   H1043     1.0  0.77049  0.58178  0.76720  1.0000
  N   N58       1.0  0.52675  0.80785  0.95527  1.0000
  C   C874      1.0  0.71748  0.53960  0.77981  1.0000
  H   H1044     1.0  0.57066  0.48710  0.92992  1.0000
  C   C875      1.0  0.89267  0.54919  0.69961  1.0000
  H   H1045     1.0  0.75081  0.87758  0.68117  1.0000
  N   N59       1.0  0.64790  0.76785  0.70608  1.0000
  H   H1046     1.0  0.53679  0.80340  0.69638  1.0000
  H   H1047     1.0  0.72560  0.53992  0.74228  1.0000
  C   C876      1.0  0.75398  0.51904  0.83191  1.0000
  C   C877      1.0  0.78061  0.51565  0.81882  1.0000
  H   H1048     1.0  0.75331  0.53385  0.84037  1.0000
  Fe  Fe125     1.0  0.58372  0.97451  0.87438  1.0000
  C   C878      1.0  0.87928  0.55770  0.68311  1.0000
  C   C879      1.0  0.61865  0.52828  0.73901  1.0000
  C   C880      1.0  0.65706  0.53219  0.70357  1.0000
  S   S244      1.0  0.93041  0.94527  0.72236  1.0000
  C   C881      1.0  0.51709  0.89189  0.90518  1.0000
  H   H1049     1.0  0.65328  0.80810  0.72371  1.0000
  H   H1050     1.0  0.87885  0.55278  0.71219  1.0000
  C   C882      1.0  0.87493  0.91302  0.68244  1.0000
  H   H1051     1.0  0.51971  0.81772  0.98336  1.0000
  C   C883      1.0  0.72832  0.50344  0.83426  1.0000
  S   S245      1.0  0.60935  0.97287  0.84651  1.0000
  S   S246      1.0  0.81617  0.49071  0.79153  1.0000
  H   H1052     1.0  0.60706  0.58135  0.70223  1.0000
  H   H1053     1.0  0.85480  0.56779  0.68301  1.0000
  C   C884      1.0  0.50355  0.55387  0.83871  1.0000
  N   N60       1.0  0.74247  0.55145  0.76851  1.0000
  H   H1054     1.0  0.52241  0.55225  0.84971  1.0000
  C   C885      1.0  0.77339  0.94560  0.85695  1.0000
  H   H1055     1.0  0.52513  0.52460  0.82472  1.0000
  H   H1056     1.0  0.79490  0.54574  0.75872  1.0000
  H   H1057     1.0  0.51015  0.51406  0.98972  1.0000
  H   H1058     1.0  0.70156  0.56461  0.75071  1.0000
  S   S247      1.0  0.97082  0.49636  0.73963  1.0000
  C   C886      1.0  0.78756  0.95877  0.84344  1.0000
  C   C887      1.0  0.54486  0.87698  0.66722  1.0000
  H   H1059     1.0  0.76384  0.57133  0.78967  1.0000
  C   C888      1.0  0.99410  0.87250  0.80002  1.0000
  C   C889      1.0  0.68291  0.50678  0.78474  1.0000
  H   H1060     1.0  0.79006  0.87690  0.69387  1.0000
  S   S248      1.0  0.61919  0.48833  0.88532  1.0000
  C   C890      1.0  0.99557  0.56164  0.80755  1.0000
  C   C891      1.0  0.50358  0.81574  0.92309  1.0000
  H   H1061     1.0  0.65402  0.57695  0.70383  1.0000
  C   C892      1.0  0.67737  0.77625  0.69569  1.0000
  H   H1062     1.0  0.66125  0.53183  0.68854  1.0000
  N   N61       1.0  0.86742  0.92115  0.82987  1.0000
  C   C893      1.0  0.88194  0.93772  0.81717  1.0000
  C   C894      1.0  0.89486  0.91439  0.84341  1.0000
  C   C895      1.0  0.85975  0.90111  0.81915  1.0000
  C   C896      1.0  0.83544  0.92999  0.83916  1.0000
  C   C897      1.0  0.81798  0.95114  0.83454  1.0000
  C   C898      1.0  0.82002  0.91690  0.85286  1.0000
  H   H1063     1.0  0.51904  0.83003  0.92104  1.0000
  C   C899      1.0  0.78948  0.92466  0.86160  1.0000
  H   H1064     1.0  0.98449  0.91112  0.73697  1.0000
  H   H1065     1.0  0.86379  0.94220  0.80566  1.0000
  H   H1066     1.0  0.88790  0.95343  0.82430  1.0000
  H   H1067     1.0  0.90651  0.93077  0.81083  1.0000
  H   H1068     1.0  0.89997  0.92868  0.85250  1.0000
  H   H1069     1.0  0.91977  0.90880  0.83665  1.0000
  H   H1070     1.0  0.88809  0.89989  0.85206  1.0000
  H   H1071     1.0  0.84061  0.90578  0.80820  1.0000
  H   H1072     1.0  0.88345  0.89340  0.81250  1.0000
  H   H1073     1.0  0.84894  0.88766  0.82762  1.0000
  H   H1074     1.0  0.49703  0.83613  0.68539  1.0000
  H   H1075     1.0  0.83094  0.90028  0.85660  1.0000
  H   H1076     1.0  0.98918  0.85890  0.77317  1.0000
  C   C900      1.0  0.49986  0.55583  0.67932  1.0000
  H   H1077     1.0  0.59608  0.53668  0.68563  1.0000
  C   C901      1.0  0.56223  0.80399  0.70253  1.0000
  C   C902      1.0  0.58685  0.78581  0.70065  1.0000
  H   H1078     1.0  0.56856  0.79158  0.97115  1.0000
  H   H1079     1.0  0.74428  0.56648  0.74163  1.0000
  C   C903      1.0  0.72776  0.55574  0.75001  1.0000
  C   C904      1.0  0.62068  0.78640  0.70825  1.0000
  H   H1080     1.0  0.57092  0.54817  0.70431  1.0000
  H   H1081     1.0  0.74908  0.95121  0.86333  1.0000
  H   H1082     1.0  0.55352  0.48706  0.90741  1.0000
  H   H1083     1.0  0.59115  0.52013  0.70562  1.0000
  C   C905      1.0  0.53056  0.55293  0.66909  1.0000
  S   S249      1.0  0.56995  0.61495  0.67164  1.0000
  H   H1084     1.0  0.68106  0.53833  0.70967  1.0000
  H   H1085     1.0  0.82898  0.90334  0.69490  1.0000
  H   H1086     1.0  0.99291  0.62002  0.85280  1.0000
  C   C906      1.0  0.62979  0.56932  0.69952  1.0000
  C   C907      1.0  0.62328  0.54815  0.72857  1.0000
  H   H1087     1.0  0.55149  0.83747  0.71289  1.0000
  C   C908      1.0  0.95853  0.93945  0.70355  1.0000
  C   C909      1.0  0.51716  0.53961  0.90723  1.0000
  C   C910      1.0  0.55047  0.78793  0.95990  1.0000
  C   C911      1.0  0.94187  0.53145  0.68375  1.0000
  C   C912      1.0  0.63582  0.74810  0.69620  1.0000
  H   H1088     1.0  0.82019  0.85041  0.67160  1.0000
  N   N62       1.0  0.63194  0.91118  0.79009  1.0000
  C   C913      1.0  0.63495  0.93537  0.79419  1.0000
  C   C914      1.0  0.59485  0.90647  0.79204  1.0000
  C   C915      1.0  0.65177  0.89727  0.80397  1.0000
  C   C916      1.0  0.64623  0.90620  0.77175  1.0000
  C   C917      1.0  0.62589  0.89832  0.75725  1.0000
  C   C918      1.0  0.68172  0.90910  0.76797  1.0000
  C   C919      1.0  0.64057  0.89323  0.74024  1.0000
  C   C920      1.0  0.69608  0.90396  0.75093  1.0000
  C   C921      1.0  0.67557  0.89592  0.73713  1.0000
  H   H1089     1.0  0.61978  0.94642  0.78428  1.0000
  H   H1090     1.0  0.62494  0.93965  0.80804  1.0000
  H   H1091     1.0  0.66217  0.94019  0.79380  1.0000
  C   C922      1.0  0.53547  0.85545  0.67229  1.0000
  H   H1092     1.0  0.58507  0.91024  0.80601  1.0000
  H   H1093     1.0  0.59059  0.88844  0.78952  1.0000
  H   H1094     1.0  0.67950  0.90094  0.80444  1.0000
  H   H1095     1.0  0.64174  0.90046  0.81799  1.0000
  H   H1096     1.0  0.65065  0.87895  0.80123  1.0000
  H   H1097     1.0  0.59859  0.89593  0.75865  1.0000
  H   H1098     1.0  0.69879  0.91531  0.77819  1.0000
  H   H1099     1.0  0.62475  0.88712  0.72936  1.0000
  H   H1100     1.0  0.72335  0.90612  0.74848  1.0000
  H   H1101     1.0  0.68682  0.89168  0.72397  1.0000
  C   C923      1.0  0.70339  0.54855  0.79631  1.0000
  Fe  Fe126     1.0  0.64323  0.49319  0.85724  1.0000
  H   H1102     1.0  0.61719  0.51209  0.73258  1.0000
  H   H1103     1.0  0.61137  0.51354  0.76566  1.0000
  H   H1104     1.0  0.52215  0.90702  0.94970  1.0000
  H   H1105     1.0  0.88419  0.92030  0.69490  1.0000
  H   H1106     1.0  0.67975  0.74493  0.72311  1.0000
  H   H1107     1.0  0.77751  0.91416  0.87163  1.0000
  C   C924      1.0  0.55300  0.57059  0.66714  1.0000
  H   H1108     1.0  0.62355  0.58469  0.76457  1.0000
  H   H1109     1.0  0.71652  0.51030  0.76217  1.0000
  H   H1110     1.0  0.51209  0.49689  0.94171  1.0000
  C   C925      1.0  0.50666  0.94595  0.77867  1.0000
  C   C926      1.0  0.99087  0.91357  0.68334  1.0000
  H   H1111     1.0  0.57797  0.91731  0.78272  1.0000
  C   C927      1.0  0.62229  0.56893  0.75737  1.0000
  C   C928      1.0  0.52324  0.89588  0.67229  1.0000
  H   H1112     1.0  0.56441  0.83082  0.96412  1.0000
  H   H1113     1.0  0.56626  0.78245  0.94788  1.0000
  C   C929      1.0  0.50455  0.85287  0.68200  1.0000
  H   H1114     1.0  0.65207  0.50673  0.80913  1.0000
  S   S250      1.0  0.69523  0.50879  0.85112  1.0000
  C   C930      1.0  0.84297  0.90325  0.68219  1.0000
  H   H1115     1.0  0.67417  0.77285  0.73165  1.0000
  C   C931      1.0  0.61734  0.54915  0.76713  1.0000
  H   H1116     1.0  0.77414  0.97466  0.83939  1.0000
  S   S251      1.0  0.61224  0.94209  0.88438  1.0000
  C   C932      1.0  0.50439  0.81330  0.97121  1.0000
  C   C933      1.0  0.71623  0.94601  0.81778  1.0000
  H   H1117     1.0  0.78684  0.53362  0.78067  1.0000
  H   H1118     1.0  0.50727  0.61043  0.69170  1.0000
  S   S252      1.0  0.71020  0.67752  0.66784  1.0000
  H   H1119     1.0  0.56855  0.53297  0.91819  1.0000
  H   H1120     1.0  0.55459  0.55150  0.94783  1.0000
  C   C934      1.0  0.50124  0.56076  0.94091  1.0000
  C   C935      1.0  0.74050  0.94794  0.80353  1.0000
  C   C936      1.0  0.75137  0.57349  0.77600  1.0000
  C   C937      1.0  0.53462  0.55070  0.93756  1.0000
  N   N63       1.0  0.79641  0.88328  0.66512  1.0000
  H   H1121     1.0  0.77196  0.52071  0.76055  1.0000
  H   H1122     1.0  0.67566  0.49025  0.78065  1.0000
  H   H1123     1.0  0.65495  0.51444  0.70812  1.0000
  S   S253      1.0  0.53717  0.95695  0.86422  1.0000
  C   C938      1.0  0.62796  0.80616  0.71788  1.0000
  N   N64       1.0  0.62618  0.54703  0.70848  1.0000
  H   H1124     1.0  0.63149  0.56788  0.68444  1.0000
  H   H1125     1.0  0.53182  0.84315  0.94930  1.0000
  C   C939      1.0  0.59481  0.53758  0.70075  1.0000
  C   C940      1.0  0.62519  0.56858  0.73837  1.0000
  H   H1126     1.0  0.73222  0.72262  0.66934  1.0000
  H   H1127     1.0  0.66883  0.78216  0.68187  1.0000
  C   C941      1.0  0.61545  0.52888  0.75797  1.0000
  S   S254      1.0  0.52506  0.52732  0.88555  1.0000
  H   H1128     1.0  0.96507  0.97466  0.69808  1.0000
  C   C942      1.0  0.78237  0.49638  0.80794  1.0000
  H   H1129     1.0  0.62708  0.75284  0.68212  1.0000
  H   H1130     1.0  0.77012  0.90354  0.68574  1.0000
  C   C943      1.0  0.52239  0.49422  0.77666  1.0000
  Fe  Fe127     1.0  0.56494  0.95273  0.83753  1.0000
  H   H1131     1.0  0.74033  0.96346  0.79565  1.0000
  H   H1132     1.0  0.69785  0.95999  0.82079  1.0000
  C   C944      1.0  0.51411  0.59429  0.68553  1.0000
  H   H1133     1.0  0.62867  0.58455  0.73165  1.0000
  H   H1134     1.0  0.68902  0.79063  0.70245  1.0000
  H   H1135     1.0  0.57887  0.77174  0.69287  1.0000
  C   C945      1.0  0.57043  0.82322  0.71188  1.0000
  C   C946      1.0  0.66067  0.75975  0.72423  1.0000
  C   C947      1.0  0.70643  0.51836  0.77434  1.0000
  C   C948      1.0  0.54458  0.59147  0.67516  1.0000
  H   H1136     1.0  0.55153  0.84076  0.66828  1.0000
  C   C949      1.0  0.92936  0.54014  0.66670  1.0000
  H   H1137     1.0  0.71091  0.56421  0.80191  1.0000
  H   H1138     1.0  0.69862  0.76287  0.69394  1.0000
  C   C950      1.0  0.50480  0.80269  0.93949  1.0000
  S   S255      1.0  0.63119  0.82535  0.67212  1.0000
  H   H1139     1.0  0.93403  0.52931  0.71279  1.0000
  H   H1140     1.0  0.61419  0.74047  0.70349  1.0000
  C   C951      1.0  0.50180  0.48617  0.93088  1.0000
  H   H1141     1.0  0.63887  0.75466  0.73291  1.0000
  H   H1142     1.0  0.54616  0.49861  0.77019  1.0000
  H   H1143     1.0  0.72815  0.58549  0.77699  1.0000
  H   H1144     1.0  0.54720  0.91534  0.91936  1.0000
  S   S256      1.0  0.53655  0.89544  0.88357  1.0000
  C   C952      1.0  0.66948  0.51606  0.80077  1.0000
  H   H1145     1.0  0.96574  0.52096  0.68470  1.0000
  C   C953      1.0  0.77607  0.88552  0.68223  1.0000
  C   C954      1.0  0.52751  0.90330  0.92061  1.0000
  C   C955      1.0  0.50506  0.53831  0.82466  1.0000
  H   H1146     1.0  0.53030  0.91259  0.66844  1.0000
  H   H1147     1.0  0.65690  0.73451  0.69462  1.0000
  C   C956      1.0  0.98072  0.48914  0.71662  1.0000
  H   H1148     1.0  0.53623  0.77328  0.96462  1.0000
  C   C957      1.0  0.77532  0.53726  0.76698  1.0000
  H   H1149     1.0  0.56627  0.82430  0.94037  1.0000
  Fe  Fe128     1.0  0.69777  0.59352  0.66730  1.0000
  H   H1150     1.0  0.99319  0.50917  0.77716  1.0000
  C   C958      1.0  0.50809  0.94888  0.79765  1.0000
  H   H1151     1.0  0.98711  0.93006  0.76752  1.0000
  H   H1152     1.0  0.99565  0.94984  0.74010  1.0000
  C   C959      1.0  0.70703  0.72344  0.66282  1.0000
  C   C960      1.0  0.52340  0.48604  0.79476  1.0000
