data_image0
_chemical_formula_structural       HNHS2CHSH2FeSHFeS2FeCFeS2HC8H7CHC2HC6H4CH2CH7SHCH3C3H3CHC3SH2C2HCHC4HC2NFeSH6CHCH2SCH2CHCHCH2S2H2CHSCH2CHCHC3H3NC2H3C4HFeH2C2H3CSFeS2FeS2FeSFeS3FeS2HSFeSFeS3CHCHS2HSFe2S2FeC2HCH3CHCH3C6H4C6H4C6H5C5H2C6H5CHC2NC9H13CHCH6CHCFeCSHCH3C2NH2CH3FeH3CSHCH7C2HCHSH3CHC3HCNCHCHC3HCH5C3H2NCHCH2CH2C3HCHCSCHNCH5CHNSH3CFeHCHC2H3CSHSCHCHFe2C5H5C2NCH2CHC3H2SNFeS2FeS2FeSFeS4FeCH3CSFeS2FeSHFeSFeS3FeS2FeS2FeSFeS3HSHCH3FeS2FeS2FeSFeS3H2CH3C5H4C4HCHCH3CH2C7H4C6H4C6H4CHCH2C6H2C7H4C6H4C6H4C6H4CHCHCHC3H2C2H2CHCNC9H21SCNCHC2HCHSCH3CH2CH3NCHC2FeCHNH2C2HC2HCHCH2C2H2C4H3CHC6FeH2C2SNC2H2C2H2CH2CHCHC2H2CH5CNCHC2H3C2H2C2H2CHNSHCHCH2C3HNH2CH2CHC2H4NHCHCH3CH6CH4C2NH6CHSHCSFeSFeH2S2FeS2FeSFeS3FeS2FeS2FeSFeHS2FeH2FeS2CFeCHSH2C3HC3H3C7H4C6H5SHCHC6H4C6H4CH3CHCH4C4H6C3FeCH2C2HC2H2CH7C3H2NH3FeHC4SC2H2N2HC3SHNFeHSHSCSH4SH2CHCH2SHSNC6HC2H5CH3CH4CFeH2CH2CH3CHNCH2CH2CH2C2H2NC4HC2H4CH6SH2C2H2CFeS2FeS2FeSFeS3CH2S2NFeSFeS2FeS3FeS2FeS2FeSFeS3HC2H2C6H4C6H2CHC3H2C4HC6HSH2C6H4C6H5CHCHC3NC3HFeHC2H4C2SCHCH3C2HC2HNC5H10CH2C3H3CHC2HC2HCHCH3NC4SC2H11CH4CH3CH5CH2CH2NCH2C3H2CH2FeH4CH5NH7CNCH2CHCFeCH2CH6C3HCH2CHC3HCNCHCH2C3FeCS2CFeHSHFeC2FeS2FeSHS2FeS2FeSFeSFeS3CNHC2SHCHCHC4HCH2C6H4C6H4C6H4C5H5SCHCH2C2SFeCHNSHCHCHC2HCHSH2CNC9H14NC9H14CHFeCSC2HCHCNC2H3CH2SHCH2SHCHC3H3NHCHCHCSCHCH4CHC2H3C3H2FeH3CH4CHCSHSCSFeHCH2CHSH3CSFeS2FeHCFeS3HSFeS2FeSFeS3NSFeS2FeSFeS4CH3C6H4C6H4C6HCH6C6H4C6HCHC3H4C3H3CH4CHSC2H3C2HCHFeHFeH2NC6HCH13CHNC9H14NC6NHSH4CH4CHCHCNHC2HCFeSH6NCH3C5HCH4CHCHC3H2C3HC2H3CH2CHCH3CH2CHCFeH2CFeS2FeSCFeSFeS4FeSCHCH2FeCSH2SHFeS2FeS2FeSFeS3C2NH2C6H4CHCH5NCFeCH2C6H4C6H4C6HCH3C2HCHFeH2CNSHCH3CH3CH3C2H2CH3C2HCHCH4CSC3H5CHCH5CH2CH3CHCH3C4HNH4NC6HC3H9CH5CH2C3HNCHC2S3HSCSHFeH2CH2C2HC2HS2C3FeHCHFeSFeS2FeSFeS3FeS2FeS2FeSFeS3CSFeS2FeSFeSCSCHCH2NCHC6H2C7H4C6H3CSC6H4C6H4SCHC7H7C2H5SHC3HC3HCHC2HC2H2CHCH2CHCH8CHC4H3SC2HC2HCNC9H12C2NC4H3CH10CHSH3C2HFeHCNCH2CH3C3H2CHCNCH2C3H2C2HC3H4CH2CH3CH2C2H3C2HSHCNH3NFeS2FeS2FeSFeS3HFeSFeCFeS2FeSFeHS3HFeS2FeHS2Fe2HSH2S2FeS2FeS2FeSFeCS2HS2C2H7CH2C6H4C6H4C6H4NC2H2C2HCH4C6H4C6H4C6H4C6H4C2H3NCHC2FeCH2C5H4NHC2HNC8H12CHCHCHC2H2CH3CHC2HCH7NC6H17NC9H4CHCH6CSHFeSHCFeHC2HCH4CH2CHFeC2HCHCH4CNHCHC3NCH4NH2CH3NHCHCHCHC3HCSHCH3CHCH2C2HC2HC2H2C2HC5NCH5C2SCSFeHSFeHSFeC2S2HSC2FeHCSCHS2FeS2FeS2FeSFeS3FeSFeS2FeSFeS4CFeSCHC6H4C6H5C3H3C4H2C7H4SH3C2HCH2C2HCHC6H4C3H2C2HCHNCSHC2HC2SHCH3CHCHCH2CHCHC2NH4CSCFeHSCNC9H14C2HCH5CHC2HC2HCSH3CHCNCHCH3CNH5FeHC4NCH5CHCNHCHCHC2H7CH2C2HSH7CSCHCHFeS2FeSFeH4SCHCH2CH3C2H2C6H7FeH2C2H2C3HSC2HSCSH2CH3NCH5CHNCHC2H4CH3NSCSH3CHC2SHCHC4HCH2C4H3CHCH2C2HCSCH3NH2C3HC3H3FeS2FeS2FeSFeS3HCHFeS2FeC2FeSFeHS2H3SFeS2FeSFeSHSHSCFeSCFeS2FeS2FeSFeS3HC6H4C6H4C6H4CSHCH2CNHC4H5C2HC6H4C6H4C6H4C6H4NC9H14NC9H14C2NH3NC9H9CH2CHC2H7NHNH8CNC2H4CHCH2NCH4CHCH3CH2CH4C2SHCSHCHFeHCHC2HSC2S2HCH4CH6CHC4H3FeH5NCNC4H2C2H2C3SHC3H4CSHC2H2CHCSH3C4H2FeNHFeH2CHC2HCH2FeHSCH3SHFeS2FeSFeSFeS3FeS2FeS2FeSFeS4HFeS2FeCFeSCS2HCHCS2CHCH2C2H3C6H4C6H4C6H4C2H4C6H5C5HC2H3CHCH2C2HCH8CHSHCH5CHCNH2SC3NC4H2CH2C2HCHCH3CHCHCHC2SH10C2HC3H2CH3FeCHC3H3SHSC2H2C2NCH3CH4C3HCNCH2NCH2C2H2CHCH4NH2C2H6CH3NCH2C2H3SH2CHCH2C2FeHC2H3FeS2HNFeCFeS2H2CHCSH2SCH2CH3C2HCHC6H2C6H4CHCHC4H2C3HC2H4CHCHC2H4CHCNCHCHC2HSHCSHCH2CH2CFeH7CH2CH7C2HCSHSC2H2CNH2CSC3H2CHC5H3CHSCH5FeHSFeHSFeSCS2FeS2FeSHFeSFeS3FeSFeS2FeSFeS3CH2SHFeS2CHC3HCH2C6H4C6H4C6H4C6H4C7H3CHC3HCHNC9H17CHCHC3HCH4C2H6C2HC3H3SH2SH6NH2NCH2C2H3C6HSH2CH3CH2C2H4CH2S2HC2HC3H3CH5C2HFeC4H2NCH2CHFeS2FeS2FeSFeS2CH2SCSH2FeCSH2S2FeS2FeS2FeHFeS4H3C4H2C6H4C2HFeHCHC2HC6H4C6H4C6H4C2H2CHFeCH4C2S2HC2H5CHCHC3HC2NHSH5CHCHC3H2CH3CH2C2H5CHCH2NFeC3HC2HFeHNHCHC4H3CNC5HC2H2SHC2H2CH6CHNC9H13C2H5C2H3CH4C3NH2C2FeCHCSHCFeSCFeH4SFeSFeHSC2S2NCFeS2H3CSFeS2CH2FeSHSFeS2FeS2FeSFeS3C7H2FeC7H4SNHCHCHC3NHSNCH3C6H4C6H4C6H3FeNH2C2H9C2HCH6SCNC2HCH4NCH3CH3C2H2C2HSH2C2SHCHCFeHC2HCHCHCHCH2CH3CHC2H3CH2CHCH2CHCHNCHCH3C2H3CH4CHCHC3H3CH4SHCH3C2HC3HC5NH5FeHCH2C4H2CH4SCHC2H2C2H4C2FeHC2HFeSFeSCFeSFeSCSFeSH3CFeS2FeS2FeSFeS3FeSFeSCFeSFeS3HSHSCHCNCH3C6H5CH4CHC6H3C7HCH2C6H4C6H4CH2C4HC2SC2HC3H2C2HCHNH3CHCH3NH2C2HCH2CH3C4H4C3HCHC3H5CHCH2NH4NCHCH2SCH2CHCNC9H14C2SCSH11NCSC2HFeHNHCH3C2HCH2C4H2CFeH4C2NCH3SHSCH6SH2FeS2FeS2FeSFeS3HSHCSHNSFeSFeS2FeS2FeS2FeSFeS3C5HNHCHCH2C6H5C5H7NCHC6H5C6H4C6H5C2HCHCH2C2HCHSC2H3CHCHCH2NCH3CH2C2H6CFeH2C4H7C3NCHCH2CH2C4H3CH2C2H4FeHCHCHCHC2HCHSH2CHCHCH2NH4C3H3CHCSH5CH2CHCH2CHCH2NH2CHCH5CH3C2NCHCSH4NSC2HCFeS2FeS2Fe2S3FeS2CHCFeS2FeS2FeSFeSFeHS2HNHSCH4C7H4C6H2C6H4C4H4SCHCH2C7H4C7H5CHCH3CH3CH3CH5CHCHCHFeCH2C2NH2S2NC4HCHCH4FeHSH4CHC3H4C2H5CH2SCH2SH5CNHCHCH7CSCH4FeHC3S2CH2C2HC2HFeH4CHC2HCH6CSFeSFeSH2SFeCFeSNSCSCHC8H7C4HCH3C3H2CHCH3C2HC3HCSCNFeHC4SFeCHCHC2HC2H2CH3CHCFeC2HSHC2SHCH2NH3CHCH2CH4C2H5CHCHCHC2H4SHNH5C2SH2SH2FeSH2SFeH2FeSFeSFeS2FeS2FeSFeS3FeSHFeS2FeSFeS3C3SH3C7H5C4H2C7H4C2SCHCHC6H6CH2C6H2SH5NC9H14CHC2SHCNSHFeH2CH3C2H3CH4C4HCHC2H2CH4C2H2FeNC2H2CH4C3H2Fe2HC2SH4C2HSH5C3HC3H5SFeNCHC3SHCH5C4H5CHC2FeS2FeS2FeSFeS3CHSFeS2FeS2FeSFeS3CSHFeSFeS2FeS3CFeS2H2S2FeS2FeS2FeSFeS4H6C7H2C8HCH4C8H5C4H2C3H2C4H2C6HCH2C6H4C6H4C6H3NC8H14FeNC7HCH10CHCH3CHCFeHCH2NC9H15FeHC4H7CHNHCH3CHCH2NCHCHCH3C3NH2C2HC2HC3HC2HC2H5CH2CNH2CNCH3CH2SHC2SC2H2CH2SCH2CH2NH2CHCHCH3CHCHC2HCHCH2CHCHCHS2H2CHC2HC5FeHC
_chemical_formula_sum              "H2952 N164 S656 C2460 Fe328"
_cell_length_a       70.1945
_cell_length_b       70.7388
_cell_length_c       71.1293
_cell_angle_alpha    85.3841
_cell_angle_beta     84.4191
_cell_angle_gamma    84.0879

_space_group_name_H-M_alt    "P 1"
_space_group_IT_number       1

loop_
  _space_group_symop_operation_xyz
  'x, y, z'

loop_
  _atom_site_type_symbol
  _atom_site_label
  _atom_site_symmetry_multiplicity
  _atom_site_fract_x
  _atom_site_fract_y
  _atom_site_fract_z
  _atom_site_occupancy
  H   H1        1.0  0.45849  0.20915  0.31872  1.0000
  N   N1        1.0  0.42087  0.15240  0.21051  1.0000
  H   H2        1.0  0.42508  0.12791  0.19379  1.0000
  S   S1        1.0  0.02760  0.01654  0.01152  1.0000
  S   S2        1.0  0.41341  0.02829  0.22957  1.0000
  C   C1        1.0  0.03703  0.06684  0.01306  1.0000
  H   H3        1.0  0.48650  0.13062  0.32172  1.0000
  S   S3        1.0  0.36510  0.23363  0.01043  1.0000
  H   H4        1.0  0.45299  0.24269  0.03990  1.0000
  H   H5        1.0  0.39184  0.24149  0.05012  1.0000
  Fe  Fe1       1.0  0.47411  0.15099  0.25166  1.0000
  S   S4        1.0  0.48716  0.15009  0.27957  1.0000
  H   H6        1.0  0.43490  0.05704  0.28855  1.0000
  Fe  Fe2       1.0  0.44522  0.12245  0.26649  1.0000
  S   S5        1.0  0.45588  0.11930  0.29546  1.0000
  S   S6        1.0  0.41823  0.11021  0.25926  1.0000
  Fe  Fe3       1.0  0.45666  0.15112  0.29310  1.0000
  C   C2        1.0  0.02415  0.00608  0.29844  1.0000
  Fe  Fe4       1.0  0.48559  0.11836  0.28001  1.0000
  S   S7        1.0  0.44381  0.15446  0.26500  1.0000
  S   S8        1.0  0.47476  0.11904  0.25125  1.0000
  H   H7        1.0  0.48913  0.18449  0.18639  1.0000
  C   C3        1.0  0.49873  0.12715  0.33065  1.0000
  C   C4        1.0  0.47482  0.18816  0.21426  1.0000
  C   C5        1.0  0.47960  0.19388  0.19513  1.0000
  C   C6        1.0  0.47237  0.21182  0.18731  1.0000
  C   C7        1.0  0.46039  0.22422  0.19862  1.0000
  C   C8        1.0  0.45531  0.21832  0.21764  1.0000
  C   C9        1.0  0.46244  0.20036  0.22544  1.0000
  C   C10       1.0  0.30049  0.00832  0.30644  1.0000
  H   H8        1.0  0.47615  0.21612  0.17261  1.0000
  H   H9        1.0  0.44595  0.22781  0.22644  1.0000
  H   H10       1.0  0.45869  0.19614  0.24019  1.0000
  H   H11       1.0  0.39299  0.16156  0.22390  1.0000
  H   H12       1.0  0.41035  0.15054  0.17336  1.0000
  H   H13       1.0  0.45129  0.14637  0.20309  1.0000
  H   H14       1.0  0.26304  0.02824  0.02309  1.0000
  C   C11       1.0  0.41339  0.03833  0.28508  1.0000
  H   H15       1.0  0.41631  0.20851  0.15431  1.0000
  C   C12       1.0  0.35361  0.07319  0.00085  1.0000
  C   C13       1.0  0.44066  0.25118  0.06733  1.0000
  H   H16       1.0  0.41258  0.17105  0.23328  1.0000
  C   C14       1.0  0.41440  0.05114  0.23779  1.0000
  C   C15       1.0  0.43245  0.05741  0.23970  1.0000
  C   C16       1.0  0.43390  0.07545  0.24625  1.0000
  C   C17       1.0  0.41726  0.08747  0.25077  1.0000
  C   C18       1.0  0.39923  0.08132  0.24856  1.0000
  C   C19       1.0  0.39779  0.06321  0.24216  1.0000
  H   H17       1.0  0.44539  0.04823  0.23621  1.0000
  H   H18       1.0  0.44786  0.08005  0.24781  1.0000
  H   H19       1.0  0.38630  0.09057  0.25191  1.0000
  H   H20       1.0  0.38390  0.05868  0.24031  1.0000
  C   C20       1.0  0.07675  0.01661  0.31523  1.0000
  H   H21       1.0  0.01407  0.23630  0.31891  1.0000
  H   H22       1.0  0.44540  0.16207  0.22169  1.0000
  C   C21       1.0  0.41540  0.13373  0.20573  1.0000
  H   H23       1.0  0.02442  0.21751  0.30435  1.0000
  H   H24       1.0  0.49884  0.22114  0.23339  1.0000
  H   H25       1.0  0.35654  0.13605  0.02904  1.0000
  H   H26       1.0  0.29343  0.02108  0.29975  1.0000
  H   H27       1.0  0.08301  0.03025  0.31093  1.0000
  H   H28       1.0  0.00371  0.23408  0.27959  1.0000
  H   H29       1.0  0.37270  0.15518  0.00277  1.0000
  S   S9        1.0  0.47004  0.24968  0.13321  1.0000
  H   H30       1.0  0.47883  0.09793  0.32892  1.0000
  C   C22       1.0  0.41384  0.16428  0.17680  1.0000
  H   H31       1.0  0.02055  0.24875  0.04855  1.0000
  H   H32       1.0  0.41650  0.12279  0.21790  1.0000
  H   H33       1.0  0.02887  0.05726  0.02336  1.0000
  C   C23       1.0  0.37973  0.05083  0.29237  1.0000
  C   C24       1.0  0.01403  0.24822  0.03548  1.0000
  C   C25       1.0  0.34627  0.06387  0.30181  1.0000
  H   H34       1.0  0.37716  0.08009  0.30143  1.0000
  H   H35       1.0  0.04669  0.05770  0.00339  1.0000
  H   H36       1.0  0.34406  0.10618  0.02336  1.0000
  C   C26       1.0  0.31376  0.01129  0.00085  1.0000
  H   H37       1.0  0.47565  0.01514  0.21099  1.0000
  C   C27       1.0  0.01200  0.09283  0.01558  1.0000
  C   C28       1.0  0.35385  0.04796  0.27314  1.0000
  C   C29       1.0  0.40634  0.06990  0.29598  1.0000
  S   S10       1.0  0.32594  0.00911  0.27466  1.0000
  H   H38       1.0  0.45093  0.00606  0.23466  1.0000
  H   H39       1.0  0.02079  0.10043  0.02411  1.0000
  C   C30       1.0  0.42253  0.20081  0.18308  1.0000
  C   C31       1.0  0.35841  0.13094  0.01495  1.0000
  H   H40       1.0  0.42375  0.02714  0.27974  1.0000
  C   C32       1.0  0.40814  0.15827  0.22738  1.0000
  H   H41       1.0  0.33827  0.04641  0.27268  1.0000
  C   C33       1.0  0.44264  0.23523  0.30949  1.0000
  C   C34       1.0  0.43988  0.24487  0.04912  1.0000
  C   C35       1.0  0.27719  0.02338  0.01685  1.0000
  C   C36       1.0  0.44097  0.14939  0.21565  1.0000
  H   H42       1.0  0.49151  0.25087  0.21355  1.0000
  C   C37       1.0  0.39374  0.03620  0.28614  1.0000
  C   C38       1.0  0.50178  0.23969  0.20801  1.0000
  N   N2        1.0  0.35898  0.04837  0.29281  1.0000
  Fe  Fe5       1.0  0.38744  0.01098  0.23181  1.0000
  S   S11       1.0  0.35603  0.01878  0.22870  1.0000
  H   H43       1.0  0.40859  0.17622  0.14864  1.0000
  H   H44       1.0  0.41132  0.08328  0.29899  1.0000
  H   H45       1.0  0.06702  0.01416  0.30439  1.0000
  H   H46       1.0  0.04627  0.07408  0.02143  1.0000
  H   H47       1.0  0.50256  0.08796  0.33178  1.0000
  H   H48       1.0  0.42833  0.18978  0.21080  1.0000
  C   C39       1.0  0.42226  0.24156  0.04268  1.0000
  H   H49       1.0  0.40023  0.13482  0.20211  1.0000
  C   C40       1.0  0.41968  0.05515  0.29001  1.0000
  H   H50       1.0  0.33898  0.02874  0.30574  1.0000
  H   H51       1.0  0.44675  0.01258  0.20165  1.0000
  S   S12       1.0  0.42196  0.23451  0.01933  1.0000
  C   C41       1.0  0.28699  0.00670  0.02482  1.0000
  H   H52       1.0  0.35103  0.07470  0.01633  1.0000
  H   H53       1.0  0.28029  0.00847  0.33144  1.0000
  C   C42       1.0  0.45213  0.22307  0.32267  1.0000
  H   H54       1.0  0.44304  0.13729  0.22651  1.0000
  C   C43       1.0  0.42376  0.18626  0.19755  1.0000
  H   H55       1.0  0.38959  0.02318  0.28150  1.0000
  C   C44       1.0  0.41937  0.16754  0.19491  1.0000
  H   H56       1.0  0.40836  0.14688  0.23917  1.0000
  H   H57       1.0  0.42593  0.21502  0.18543  1.0000
  S   S13       1.0  0.45132  0.24715  0.18977  1.0000
  S   S14       1.0  0.48518  0.16601  0.22381  1.0000
  H   H58       1.0  0.36182  0.03580  0.26585  1.0000
  H   H59       1.0  0.02331  0.03528  0.28672  1.0000
  C   C45       1.0  0.01521  0.02466  0.29476  1.0000
  H   H60       1.0  0.34734  0.07782  0.29352  1.0000
  S   S15       1.0  0.44116  0.16947  0.31611  1.0000
  C   C46       1.0  0.41276  0.17896  0.16239  1.0000
  H   H61       1.0  0.01353  0.21219  0.32783  1.0000
  H   H62       1.0  0.36037  0.02888  0.31769  1.0000
  C   C47       1.0  0.41709  0.19717  0.16552  1.0000
  H   H63       1.0  0.35714  0.06126  0.26452  1.0000
  C   C48       1.0  0.38663  0.06789  0.29716  1.0000
  H   H64       1.0  0.44169  0.23074  0.29541  1.0000
  C   C49       1.0  0.36768  0.14167  0.00022  1.0000
  C   C50       1.0  0.35472  0.03013  0.30352  1.0000
  C   C51       1.0  0.01218  0.22177  0.31476  1.0000
  H   H65       1.0  0.08903  0.00530  0.31443  1.0000
  H   H66       1.0  0.30049  0.24835  0.01135  1.0000
  H   H67       1.0  0.36081  0.01742  0.29592  1.0000
  N   N3        1.0  0.02396  0.08046  0.00221  1.0000
  C   C52       1.0  0.35123  0.11393  0.01149  1.0000
  C   C53       1.0  0.02548  0.25150  0.01855  1.0000
  H   H68       1.0  0.06635  0.05501  0.32557  1.0000
  H   H69       1.0  0.32031  0.09297  0.01094  1.0000
  H   H70       1.0  0.33083  0.06117  0.30255  1.0000
  C   C54       1.0  0.05218  0.05047  0.32945  1.0000
  C   C55       1.0  0.40622  0.25056  0.07297  1.0000
  C   C56       1.0  0.01778  0.25159  0.00123  1.0000
  C   C57       1.0  0.28554  0.03389  0.00096  1.0000
  H   H71       1.0  0.05062  0.10435  0.00904  1.0000
  Fe  Fe6       1.0  0.39626  0.23656  0.00158  1.0000
  H   H72       1.0  0.34973  0.06519  0.31656  1.0000
  H   H73       1.0  0.00528  0.22769  0.06942  1.0000
  C   C58       1.0  0.40543  0.24432  0.05476  1.0000
  C   C59       1.0  0.03654  0.06441  0.32888  1.0000
  H   H74       1.0  0.03881  0.07910  0.32448  1.0000
  H   H75       1.0  0.00571  0.07011  0.33256  1.0000
  H   H76       1.0  0.39311  0.25263  0.08222  1.0000
  C   C60       1.0  0.23144  0.04048  0.48336  1.0000
  S   S16       1.0  0.23074  0.04774  0.39335  1.0000
  Fe  Fe7       1.0  0.26389  0.13443  0.50450  1.0000
  S   S17       1.0  0.24062  0.12901  0.48661  1.0000
  S   S18       1.0  0.26021  0.13171  0.53663  1.0000
  Fe  Fe8       1.0  0.29226  0.14458  0.47020  1.0000
  S   S19       1.0  0.27077  0.13994  0.44987  1.0000
  S   S20       1.0  0.32352  0.14676  0.45808  1.0000
  Fe  Fe9       1.0  0.24872  0.15583  0.46965  1.0000
  S   S21       1.0  0.22725  0.17784  0.45589  1.0000
  Fe  Fe10      1.0  0.26436  0.11371  0.46838  1.0000
  S   S22       1.0  0.26638  0.08303  0.46010  1.0000
  S   S23       1.0  0.27068  0.16236  0.48872  1.0000
  S   S24       1.0  0.28707  0.11735  0.48766  1.0000
  Fe  Fe11      1.0  0.41128  0.21462  0.44811  1.0000
  S   S25       1.0  0.43630  0.19217  0.45007  1.0000
  S   S26       1.0  0.38009  0.21190  0.46005  1.0000
  H   H77       1.0  0.36853  0.15803  0.55400  1.0000
  S   S27       1.0  0.46402  0.22477  0.43306  1.0000
  Fe  Fe12      1.0  0.44674  0.20430  0.42097  1.0000
  S   S28       1.0  0.46323  0.18703  0.39763  1.0000
  Fe  Fe13      1.0  0.45177  0.21450  0.46199  1.0000
  S   S29       1.0  0.46743  0.20476  0.48875  1.0000
  S   S30       1.0  0.42067  0.22534  0.41819  1.0000
  S   S31       1.0  0.42604  0.23635  0.46169  1.0000
  C   C61       1.0  0.46665  0.17153  0.34336  1.0000
  H   H78       1.0  0.21573  0.17987  0.53031  1.0000
  C   C62       1.0  0.08359  0.11278  0.65244  1.0000
  H   H79       1.0  0.32317  0.06489  0.40641  1.0000
  S   S32       1.0  0.01357  0.23554  0.62345  1.0000
  S   S33       1.0  0.22446  0.02330  0.62686  1.0000
  H   H80       1.0  0.44272  0.17489  0.49337  1.0000
  S   S34       1.0  0.24266  0.06107  0.64026  1.0000
  Fe  Fe14      1.0  0.22510  0.03779  0.65395  1.0000
  Fe  Fe15      1.0  0.24372  0.04544  0.61363  1.0000
  S   S35       1.0  0.23973  0.05431  0.58258  1.0000
  S   S36       1.0  0.27108  0.02774  0.61984  1.0000
  Fe  Fe16      1.0  0.26854  0.04109  0.64778  1.0000
  C   C63       1.0  0.44484  0.13789  0.38087  1.0000
  C   C64       1.0  0.44305  0.13288  0.36264  1.0000
  H   H81       1.0  0.22206  0.04790  0.44714  1.0000
  C   C65       1.0  0.07070  0.18233  0.63252  1.0000
  H   H82       1.0  0.08540  0.11240  0.63675  1.0000
  H   H83       1.0  0.02364  0.23381  0.54879  1.0000
  H   H84       1.0  0.40728  0.20088  0.48635  1.0000
  C   C66       1.0  0.48506  0.21398  0.50125  1.0000
  H   H85       1.0  0.03723  0.24166  0.56631  1.0000
  C   C67       1.0  0.19503  0.15934  0.55767  1.0000
  H   H86       1.0  0.44133  0.19076  0.52193  1.0000
  H   H87       1.0  0.04333  0.17514  0.64571  1.0000
  H   H88       1.0  0.28305  0.01765  0.55018  1.0000
  C   C68       1.0  0.20859  0.19293  0.46722  1.0000
  C   C69       1.0  0.19504  0.20357  0.45626  1.0000
  C   C70       1.0  0.17987  0.21556  0.46477  1.0000
  C   C71       1.0  0.17808  0.21693  0.48438  1.0000
  C   C72       1.0  0.19185  0.20656  0.49528  1.0000
  C   C73       1.0  0.20711  0.19475  0.48673  1.0000
  H   H89       1.0  0.19617  0.20237  0.44112  1.0000
  H   H90       1.0  0.16939  0.22343  0.45621  1.0000
  H   H91       1.0  0.19063  0.20761  0.51044  1.0000
  H   H92       1.0  0.21768  0.18695  0.49517  1.0000
  C   C74       1.0  0.24627  0.07572  0.57012  1.0000
  C   C75       1.0  0.25149  0.09085  0.57938  1.0000
  C   C76       1.0  0.25592  0.10787  0.56892  1.0000
  C   C77       1.0  0.25548  0.10978  0.54914  1.0000
  C   C78       1.0  0.25044  0.09457  0.53986  1.0000
  C   C79       1.0  0.24575  0.07768  0.55034  1.0000
  H   H93       1.0  0.25189  0.08954  0.59460  1.0000
  H   H94       1.0  0.25976  0.11959  0.57621  1.0000
  H   H95       1.0  0.24998  0.09591  0.52465  1.0000
  H   H96       1.0  0.24167  0.06610  0.54307  1.0000
  C   C80       1.0  0.33884  0.16525  0.45857  1.0000
  C   C81       1.0  0.33280  0.18211  0.46735  1.0000
  C   C82       1.0  0.34558  0.19625  0.46751  1.0000
  C   C83       1.0  0.36450  0.19378  0.45886  1.0000
  C   C84       1.0  0.37056  0.17690  0.45011  1.0000
  C   C85       1.0  0.35779  0.16274  0.44999  1.0000
  H   H97       1.0  0.31830  0.18425  0.47405  1.0000
  H   H98       1.0  0.34077  0.20920  0.47440  1.0000
  H   H99       1.0  0.38506  0.17476  0.44345  1.0000
  H   H100      1.0  0.36265  0.14976  0.44319  1.0000
  H   H101      1.0  0.44882  0.22505  0.38082  1.0000
  C   C86       1.0  0.47116  0.17562  0.36141  1.0000
  C   C87       1.0  0.45687  0.18328  0.37472  1.0000
  C   C88       1.0  0.43804  0.18720  0.36961  1.0000
  C   C89       1.0  0.43353  0.18299  0.35159  1.0000
  C   C90       1.0  0.18727  0.15993  0.52432  1.0000
  H   H102      1.0  0.48580  0.17270  0.36515  1.0000
  H   H103      1.0  0.42688  0.19311  0.37966  1.0000
  C   C91       1.0  0.24131  0.05788  0.41131  1.0000
  C   C92       1.0  0.23434  0.07625  0.41658  1.0000
  C   C93       1.0  0.24211  0.08444  0.43123  1.0000
  C   C94       1.0  0.25698  0.07431  0.44065  1.0000
  C   C95       1.0  0.26411  0.05610  0.43518  1.0000
  C   C96       1.0  0.25637  0.04794  0.42056  1.0000
  H   H104      1.0  0.22272  0.08408  0.40946  1.0000
  H   H105      1.0  0.23643  0.09845  0.43537  1.0000
  H   H106      1.0  0.27567  0.04821  0.44232  1.0000
  H   H107      1.0  0.26208  0.03397  0.41647  1.0000
  H   H108      1.0  0.05608  0.14491  0.66087  1.0000
  C   C97       1.0  0.45906  0.12489  0.35174  1.0000
  H   H109      1.0  0.27007  0.02424  0.57192  1.0000
  C   C98       1.0  0.11447  0.12371  0.65442  1.0000
  C   C99       1.0  0.17036  0.17233  0.52857  1.0000
  N   N4        1.0  0.31991  0.09944  0.42436  1.0000
  C   C100      1.0  0.31141  0.09843  0.44425  1.0000
  C   C101      1.0  0.33914  0.08842  0.42382  1.0000
  C   C102      1.0  0.32297  0.11961  0.41832  1.0000
  C   C103      1.0  0.30660  0.09223  0.41228  1.0000
  C   C104      1.0  0.31040  0.07433  0.40414  1.0000
  C   C105      1.0  0.28882  0.10287  0.40892  1.0000
  C   C106      1.0  0.29737  0.06788  0.39299  1.0000
  C   C107      1.0  0.27604  0.09639  0.39756  1.0000
  C   C108      1.0  0.28029  0.07894  0.38961  1.0000
  H   H110      1.0  0.30896  0.08354  0.44951  1.0000
  H   H111      1.0  0.32062  0.10421  0.45391  1.0000
  H   H112      1.0  0.29719  0.10682  0.44582  1.0000
  H   H113      1.0  0.33824  0.07356  0.43008  1.0000
  H   H114      1.0  0.34903  0.09477  0.43235  1.0000
  H   H115      1.0  0.34604  0.08810  0.40907  1.0000
  H   H116      1.0  0.33447  0.12482  0.42575  1.0000
  H   H117      1.0  0.32705  0.12148  0.40283  1.0000
  H   H118      1.0  0.31003  0.12961  0.42181  1.0000
  H   H119      1.0  0.28442  0.11608  0.41545  1.0000
  H   H120      1.0  0.26239  0.10462  0.39547  1.0000
  H   H121      1.0  0.27000  0.07368  0.38134  1.0000
  H   H122      1.0  0.42658  0.20861  0.49714  1.0000
  C   C109      1.0  0.04955  0.03102  0.33456  1.0000
  H   H123      1.0  0.45707  0.12205  0.33741  1.0000
  C   C110      1.0  0.46263  0.13489  0.38829  1.0000
  H   H124      1.0  0.31351  0.00573  0.64432  1.0000
  H   H125      1.0  0.43259  0.14483  0.38899  1.0000
  H   H126      1.0  0.24094  0.01044  0.58390  1.0000
  H   H127      1.0  0.20608  0.01401  0.52708  1.0000
  H   H128      1.0  0.24946  0.02276  0.45270  1.0000
  H   H129      1.0  0.46406  0.13962  0.40219  1.0000
  C   C111      1.0  0.45323  0.22858  0.34096  1.0000
  H   H130      1.0  0.11835  0.12266  0.63897  1.0000
  C   C112      1.0  0.08595  0.14693  0.64951  1.0000
  Fe  Fe17      1.0  0.43725  0.24520  0.43194  1.0000
  C   C113      1.0  0.01790  0.05944  0.33359  1.0000
  S   S37       1.0  0.15892  0.23114  0.49605  1.0000
  H   H131      1.0  0.23855  0.00854  0.43792  1.0000
  C   C114      1.0  0.21172  0.01567  0.49667  1.0000
  H   H132      1.0  0.14521  0.18838  0.51809  1.0000
  H   H133      1.0  0.27250  0.23495  0.45735  1.0000
  H   H134      1.0  0.19133  0.00921  0.46567  1.0000
  C   C115      1.0  0.47874  0.12680  0.37756  1.0000
  C   C116      1.0  0.17764  0.16006  0.49197  1.0000
  N   N5        1.0  0.20176  0.15431  0.53808  1.0000
  H   H135      1.0  0.41888  0.18586  0.34784  1.0000
  H   H136      1.0  0.06488  0.19592  0.62616  1.0000
  C   C117      1.0  0.01484  0.04061  0.33915  1.0000
  H   H137      1.0  0.38910  0.17613  0.48693  1.0000
  H   H138      1.0  0.17551  0.05471  0.64935  1.0000
  H   H139      1.0  0.20586  0.15408  0.56784  1.0000
  Fe  Fe18      1.0  0.23637  0.01619  0.38816  1.0000
  H   H140      1.0  0.15170  0.17746  0.48583  1.0000
  H   H141      1.0  0.35832  0.16319  0.49531  1.0000
  H   H142      1.0  0.20338  0.14537  0.50100  1.0000
  C   C118      1.0  0.15763  0.17833  0.51483  1.0000
  S   S38       1.0  0.06287  0.23883  0.59641  1.0000
  H   H143      1.0  0.39941  0.17075  0.54658  1.0000
  C   C119      1.0  0.37329  0.16200  0.53938  1.0000
  H   H144      1.0  0.21528  0.12862  0.52564  1.0000
  H   H145      1.0  0.26863  0.01751  0.52210  1.0000
  H   H146      1.0  0.23047  0.01658  0.56199  1.0000
  H   H147      1.0  0.05245  0.22728  0.44170  1.0000
  H   H148      1.0  0.09216  0.00978  0.34880  1.0000
  H   H149      1.0  0.48424  0.08535  0.35110  1.0000
  H   H150      1.0  0.19272  0.17505  0.55867  1.0000
  C   C120      1.0  0.09031  0.17667  0.62981  1.0000
  C   C121      1.0  0.22065  0.02524  0.48030  1.0000
  H   H151      1.0  0.30027  0.05403  0.38722  1.0000
  C   C122      1.0  0.41302  0.20160  0.50024  1.0000
  H   H152      1.0  0.16684  0.17804  0.54222  1.0000
  S   S39       1.0  0.29530  0.05070  0.65902  1.0000
  H   H153      1.0  0.23907  0.04817  0.47170  1.0000
  H   H154      1.0  0.43111  0.17088  0.53455  1.0000
  H   H155      1.0  0.48739  0.18911  0.52083  1.0000
  C   C123      1.0  0.36751  0.16486  0.50637  1.0000
  H   H156      1.0  0.42178  0.16833  0.48427  1.0000
  C   C124      1.0  0.49175  0.23187  0.49636  1.0000
  C   C125      1.0  0.44470  0.24661  0.34659  1.0000
  C   C126      1.0  0.42838  0.16964  0.49762  1.0000
  H   H157      1.0  0.21241  0.23472  0.47313  1.0000
  C   C127      1.0  0.47740  0.12148  0.35888  1.0000
  N   N6        1.0  0.41627  0.18254  0.51037  1.0000
  C   C128      1.0  0.42738  0.18480  0.52668  1.0000
  H   H158      1.0  0.18148  0.15291  0.56280  1.0000
  C   C129      1.0  0.45569  0.23865  0.37868  1.0000
  H   H159      1.0  0.45592  0.24384  0.39304  1.0000
  C   C130      1.0  0.49236  0.20297  0.51686  1.0000
  C   C131      1.0  0.22483  0.24267  0.47134  1.0000
  C   C132      1.0  0.21921  0.16415  0.53199  1.0000
  H   H160      1.0  0.23021  0.16117  0.54240  1.0000
  C   C133      1.0  0.16126  0.17222  0.49659  1.0000
  H   H161      1.0  0.11324  0.15581  0.63547  1.0000
  H   H162      1.0  0.43084  0.15506  0.50461  1.0000
  H   H163      1.0  0.41937  0.19485  0.53657  1.0000
  H   H164      1.0  0.19416  0.12539  0.54162  1.0000
  H   H165      1.0  0.22632  0.15948  0.51822  1.0000
  C   C134      1.0  0.26236  0.00414  0.52291  1.0000
  C   C135      1.0  0.39756  0.17474  0.51581  1.0000
  C   C136      1.0  0.19050  0.15405  0.50557  1.0000
  H   H166      1.0  0.22415  0.04137  0.53130  1.0000
  H   H167      1.0  0.01528  0.23180  0.57354  1.0000
  N   N7        1.0  0.21939  0.01965  0.46085  1.0000
  C   C137      1.0  0.09793  0.15923  0.63810  1.0000
  H   H168      1.0  0.08571  0.03463  0.34433  1.0000
  C   C138      1.0  0.20711  0.13339  0.53887  1.0000
  H   H169      1.0  0.21683  0.12863  0.55018  1.0000
  H   H170      1.0  0.18083  0.15592  0.47755  1.0000
  C   C139      1.0  0.25894  0.24249  0.46233  1.0000
  H   H171      1.0  0.48582  0.14790  0.65823  1.0000
  H   H172      1.0  0.42940  0.13604  0.35655  1.0000
  C   C140      1.0  0.05859  0.17059  0.64353  1.0000
  C   C141      1.0  0.39107  0.16936  0.53488  1.0000
  C   C142      1.0  0.24233  0.23305  0.46489  1.0000
  H   H173      1.0  0.21104  0.03260  0.43388  1.0000
  C   C143      1.0  0.38521  0.17225  0.50172  1.0000
  H   H174      1.0  0.19791  0.04264  0.45437  1.0000
  C   C144      1.0  0.02241  0.24109  0.56220  1.0000
  S   S40       1.0  0.24081  0.00447  0.35922  1.0000
  C   C145      1.0  0.36154  0.15977  0.52516  1.0000
  H   H175      1.0  0.09964  0.18597  0.62128  1.0000
  N   N8        1.0  0.06632  0.01648  0.33442  1.0000
  C   C146      1.0  0.05441  0.24111  0.43452  1.0000
  H   H176      1.0  0.25977  0.03147  0.55036  1.0000
  H   H177      1.0  0.34774  0.15412  0.52868  1.0000
  H   H178      1.0  0.02672  0.01212  0.34329  1.0000
  H   H179      1.0  0.29487  0.01032  0.66275  1.0000
  H   H180      1.0  0.11948  0.10962  0.66145  1.0000
  C   C147      1.0  0.23263  0.04621  0.50154  1.0000
  H   H181      1.0  0.24075  0.05811  0.50338  1.0000
  N   N9        1.0  0.09345  0.12845  0.65869  1.0000
  S   S41       1.0  0.04715  0.24019  0.65130  1.0000
  H   H182      1.0  0.40259  0.21126  0.50865  1.0000
  H   H183      1.0  0.12288  0.13435  0.65973  1.0000
  H   H184      1.0  0.07218  0.02137  0.36266  1.0000
  C   C148      1.0  0.06604  0.15323  0.65205  1.0000
  Fe  Fe19      1.0  0.01795  0.22969  0.65440  1.0000
  H   H185      1.0  0.14065  0.06599  0.65182  1.0000
  C   C149      1.0  0.22334  0.03681  0.51723  1.0000
  H   H186      1.0  0.49363  0.11263  0.65905  1.0000
  C   C150      1.0  0.23875  0.01227  0.45283  1.0000
  C   C151      1.0  0.21229  0.03640  0.44862  1.0000
  H   H187      1.0  0.08516  0.23252  0.56117  1.0000
  H   H188      1.0  0.47098  0.23550  0.37317  1.0000
  H   H189      1.0  0.46067  0.21832  0.35044  1.0000
  C   C152      1.0  0.26838  0.01947  0.55765  1.0000
  S   S42       1.0  0.02464  0.23423  0.41443  1.0000
  H   H190      1.0  0.08935  0.09859  0.65865  1.0000
  S   S43       1.0  0.25116  0.01867  0.66265  1.0000
  C   C153      1.0  0.02039  0.25126  0.49674  1.0000
  H   H191      1.0  0.24296  0.21816  0.46185  1.0000
  C   C154      1.0  0.03033  0.02650  0.33957  1.0000
  H   H192      1.0  0.48637  0.24056  0.48444  1.0000
  Fe  Fe20      1.0  0.04180  0.24824  0.62091  1.0000
  Fe  Fe21      1.0  0.25197  0.00644  0.63423  1.0000
  C   C155      1.0  0.16774  0.05631  0.66311  1.0000
  C   C156      1.0  0.07962  0.02081  0.34814  1.0000
  C   C157      1.0  0.21307  0.02147  0.51481  1.0000
  C   C158      1.0  0.08150  0.24772  0.56162  1.0000
  C   C159      1.0  0.04255  0.24824  0.42020  1.0000
  H   H193      1.0  0.07805  0.24586  0.45044  1.0000
  H   H194      1.0  0.06792  0.11408  0.65692  1.0000
  H   H195      1.0  0.19571  0.24711  0.49983  1.0000
  H   H196      1.0  0.41741  0.24332  0.37524  1.0000
  H   H197      1.0  0.26511  0.00419  0.49242  1.0000
  C   C160      1.0  0.23967  0.00536  0.56967  1.0000
  C   C161      1.0  0.48970  0.09540  0.33945  1.0000
  N   N10       1.0  0.49419  0.11333  0.34685  1.0000
  C   C162      1.0  0.44772  0.17482  0.33848  1.0000
  H   H198      1.0  0.49210  0.12533  0.38408  1.0000
  H   H199      1.0  0.02054  0.24293  0.51020  1.0000
  C   C163      1.0  0.20625  0.00464  0.45990  1.0000
  H   H200      1.0  0.20360  0.00364  0.49586  1.0000
  C   C164      1.0  0.00452  0.25187  0.48617  1.0000
  C   C165      1.0  0.14795  0.06272  0.66457  1.0000
  C   C166      1.0  0.06895  0.25162  0.43952  1.0000
  H   H201      1.0  0.50236  0.14076  0.33559  1.0000
  H   H202      1.0  0.47775  0.16590  0.33318  1.0000
  S   S44       1.0  0.00289  0.23123  0.36450  1.0000
  N   N11       1.0  0.44514  0.25283  0.36593  1.0000
  Fe  Fe22      1.0  0.13950  0.11548  0.89885  1.0000
  S   S45       1.0  0.12382  0.11880  0.92751  1.0000
  S   S46       1.0  0.17170  0.11397  0.89024  1.0000
  Fe  Fe23      1.0  0.10235  0.11826  0.87925  1.0000
  S   S47       1.0  0.08355  0.12199  0.90669  1.0000
  S   S48       1.0  0.09167  0.12278  0.84963  1.0000
  Fe  Fe24      1.0  0.10455  0.14196  0.91352  1.0000
  S   S49       1.0  0.09406  0.16717  0.93121  1.0000
  Fe  Fe25      1.0  0.10386  0.09867  0.91906  1.0000
  S   S50       1.0  0.09694  0.07638  0.94285  1.0000
  S   S51       1.0  0.12170  0.14021  0.88531  1.0000
  S   S52       1.0  0.12119  0.09338  0.89126  1.0000
  S   S53       1.0  0.02198  0.03183  0.95591  1.0000
  Fe  Fe26      1.0  0.36446  0.21785  0.98410  1.0000
  C   C167      1.0  0.21713  0.02837  0.97117  1.0000
  H   H203      1.0  0.30391  0.06676  0.75182  1.0000
  H   H204      1.0  0.22268  0.03835  0.93415  1.0000
  H   H205      1.0  0.02481  0.08391  0.96220  1.0000
  C   C168      1.0  0.37079  0.10177  0.81460  1.0000
  S   S54       1.0  0.39649  0.21847  0.97670  1.0000
  Fe  Fe27      1.0  0.37210  0.03072  0.79213  1.0000
  S   S55       1.0  0.35893  0.05509  0.77405  1.0000
  S   S56       1.0  0.36614  0.02545  0.82422  1.0000
  Fe  Fe28      1.0  0.39964  0.01614  0.75860  1.0000
  S   S57       1.0  0.38837  0.03992  0.73821  1.0000
  H   H206      1.0  0.16976  0.10559  0.93136  1.0000
  Fe  Fe29      1.0  0.38945  0.05887  0.76210  1.0000
  S   S58       1.0  0.40011  0.08827  0.76215  1.0000
  Fe  Fe30      1.0  0.35891  0.03399  0.75175  1.0000
  S   S59       1.0  0.33157  0.02882  0.73815  1.0000
  S   S60       1.0  0.40255  0.03565  0.78140  1.0000
  S   S61       1.0  0.37030  0.00905  0.77087  1.0000
  Fe  Fe31      1.0  0.26880  0.09083  0.93941  1.0000
  S   S62       1.0  0.28077  0.06136  0.93200  1.0000
  S   S63       1.0  0.23663  0.09657  0.94790  1.0000
  Fe  Fe32      1.0  0.30895  0.10548  0.93679  1.0000
  S   S64       1.0  0.32334  0.07681  0.92914  1.0000
  S   S65       1.0  0.32945  0.12899  0.93399  1.0000
  Fe  Fe33      1.0  0.30016  0.07622  0.90970  1.0000
  S   S66       1.0  0.30288  0.07190  0.87805  1.0000
  Fe  Fe34      1.0  0.30283  0.06436  0.95230  1.0000
  S   S67       1.0  0.31535  0.04082  0.97302  1.0000
  S   S68       1.0  0.28670  0.10562  0.91598  1.0000
  S   S69       1.0  0.28991  0.09310  0.96109  1.0000
  H   H207      1.0  0.47778  0.19686  0.90159  1.0000
  S   S70       1.0  0.48662  0.10655  0.73925  1.0000
  H   H208      1.0  0.19542  0.09875  0.95338  1.0000
  C   C169      1.0  0.27580  0.24560  0.98419  1.0000
  H   H209      1.0  0.21223  0.13391  0.96372  1.0000
  H   H210      1.0  0.00741  0.20870  0.71614  1.0000
  H   H211      1.0  0.24821  0.04841  0.74924  1.0000
  Fe  Fe35      1.0  0.07961  0.07921  0.75212  1.0000
  S   S71       1.0  0.09526  0.09848  0.73055  1.0000
  S   S72       1.0  0.08819  0.06928  0.78180  1.0000
  Fe  Fe36      1.0  0.04932  0.07289  0.72564  1.0000
  S   S73       1.0  0.06236  0.09214  0.70204  1.0000
  S   S74       1.0  0.01988  0.06122  0.72568  1.0000
  Fe  Fe37      1.0  0.09125  0.07772  0.70934  1.0000
  S   S75       1.0  0.11255  0.07285  0.68330  1.0000
  Fe  Fe38      1.0  0.06583  0.11197  0.72428  1.0000
  S   S76       1.0  0.06456  0.14436  0.72015  1.0000
  S   S77       1.0  0.07789  0.05692  0.73128  1.0000
  S   S78       1.0  0.05052  0.09417  0.74753  1.0000
  H   H212      1.0  0.45439  0.21094  0.86323  1.0000
  H   H213      1.0  0.34892  0.13327  0.88104  1.0000
  C   C170      1.0  0.46433  0.19043  0.84331  1.0000
  H   H214      1.0  0.25467  0.02772  0.92727  1.0000
  H   H215      1.0  0.03949  0.16843  0.75155  1.0000
  H   H216      1.0  0.26078  0.05603  0.68444  1.0000
  C   C171      1.0  0.29158  0.06589  0.74392  1.0000
  C   C172      1.0  0.06003  0.11488  0.98122  1.0000
  C   C173      1.0  0.13750  0.06474  0.68235  1.0000
  C   C174      1.0  0.14713  0.06037  0.69870  1.0000
  C   C175      1.0  0.16691  0.05395  0.69725  1.0000
  H   H217      1.0  0.01000  0.06003  0.79074  1.0000
  H   H218      1.0  0.25168  0.05909  0.96755  1.0000
  H   H219      1.0  0.13931  0.06181  0.71247  1.0000
  H   H220      1.0  0.17413  0.05047  0.71001  1.0000
  C   C176      1.0  0.05051  0.15906  0.70430  1.0000
  C   C177      1.0  0.03318  0.15379  0.69915  1.0000
  C   C178      1.0  0.02138  0.16675  0.68821  1.0000
  C   C179      1.0  0.02699  0.18489  0.68192  1.0000
  H   H221      1.0  0.22216  0.06493  0.73398  1.0000
  C   C180      1.0  0.02126  0.00861  0.76759  1.0000
  H   H222      1.0  0.02848  0.14005  0.70425  1.0000
  C   C181      1.0  0.27601  0.00737  0.93766  1.0000
  H   H223      1.0  0.48513  0.24661  0.88110  1.0000
  H   H224      1.0  0.23878  0.05636  0.93627  1.0000
  H   H225      1.0  0.36300  0.09246  0.88694  1.0000
  C   C182      1.0  0.36842  0.08097  0.84972  1.0000
  H   H226      1.0  0.16125  0.19321  0.92407  1.0000
  H   H227      1.0  0.38699  0.07674  0.80401  1.0000
  C   C183      1.0  0.44134  0.12779  0.71263  1.0000
  C   C184      1.0  0.32234  0.03467  0.71570  1.0000
  C   C185      1.0  0.30533  0.02715  0.71212  1.0000
  C   C186      1.0  0.29720  0.03149  0.69473  1.0000
  C   C187      1.0  0.30570  0.04382  0.68077  1.0000
  C   C188      1.0  0.32277  0.05127  0.68427  1.0000
  C   C189      1.0  0.33112  0.04665  0.70156  1.0000
  H   H228      1.0  0.29841  0.01788  0.72294  1.0000
  H   H229      1.0  0.28428  0.02544  0.69220  1.0000
  H   H230      1.0  0.14881  0.16017  0.96566  1.0000
  H   H231      1.0  0.34419  0.05256  0.70405  1.0000
  C   C190      1.0  0.42463  0.09237  0.75703  1.0000
  C   C191      1.0  0.43121  0.10878  0.76313  1.0000
  C   C192      1.0  0.45038  0.11300  0.75848  1.0000
  C   C193      1.0  0.46301  0.10103  0.74726  1.0000
  C   C194      1.0  0.45646  0.08458  0.74125  1.0000
  C   C195      1.0  0.43743  0.08016  0.74625  1.0000
  H   H232      1.0  0.42136  0.11837  0.77139  1.0000
  H   H233      1.0  0.45518  0.12579  0.76305  1.0000
  H   H234      1.0  0.46609  0.07525  0.73253  1.0000
  H   H235      1.0  0.43252  0.06754  0.74138  1.0000
  C   C196      1.0  0.34850  0.03856  0.83897  1.0000
  C   C197      1.0  0.33470  0.05202  0.83149  1.0000
  C   C198      1.0  0.32082  0.06194  0.84369  1.0000
  C   C199      1.0  0.32072  0.05879  0.86348  1.0000
  C   C200      1.0  0.33472  0.04558  0.87100  1.0000
  C   C201      1.0  0.34843  0.03543  0.85878  1.0000
  H   H236      1.0  0.33460  0.05461  0.81630  1.0000
  H   H237      1.0  0.31006  0.07211  0.83771  1.0000
  H   H238      1.0  0.33480  0.04294  0.88618  1.0000
  H   H239      1.0  0.35905  0.02505  0.86469  1.0000
  C   C202      1.0  0.01077  0.06919  0.99361  1.0000
  H   H240      1.0  0.31376  0.24502  0.97985  1.0000
  C   C203      1.0  0.02169  0.18764  0.73415  1.0000
  H   H241      1.0  0.37163  0.10960  0.80083  1.0000
  H   H242      1.0  0.31952  0.16369  0.99256  1.0000
  C   C204      1.0  0.34053  0.17591  0.97231  1.0000
  C   C205      1.0  0.35008  0.17464  0.95418  1.0000
  C   C206      1.0  0.34630  0.16036  0.94263  1.0000
  C   C207      1.0  0.33282  0.14726  0.94893  1.0000
  C   C208      1.0  0.32303  0.14872  0.96693  1.0000
  C   C209      1.0  0.32693  0.16291  0.97854  1.0000
  H   H243      1.0  0.33989  0.10366  0.89477  1.0000
  H   H244      1.0  0.31262  0.13882  0.97200  1.0000
  C   C210      1.0  0.04540  0.10372  0.95546  1.0000
  C   C211      1.0  0.07609  0.06401  0.94590  1.0000
  C   C212      1.0  0.06293  0.06535  0.93218  1.0000
  C   C213      1.0  0.04646  0.05529  0.93532  1.0000
  C   C214      1.0  0.04308  0.04382  0.95215  1.0000
  C   C215      1.0  0.05630  0.04239  0.96578  1.0000
  C   C216      1.0  0.07272  0.05246  0.96266  1.0000
  H   H245      1.0  0.06545  0.07414  0.91918  1.0000
  H   H246      1.0  0.03631  0.05645  0.92468  1.0000
  H   H247      1.0  0.05402  0.03337  0.97864  1.0000
  H   H248      1.0  0.08293  0.05124  0.97325  1.0000
  C   C217      1.0  0.09012  0.10729  0.83138  1.0000
  C   C218      1.0  0.09612  0.08778  0.83318  1.0000
  C   C219      1.0  0.09531  0.07634  0.81794  1.0000
  C   C220      1.0  0.08838  0.08419  0.80079  1.0000
  C   C221      1.0  0.08200  0.10360  0.79915  1.0000
  C   C222      1.0  0.08291  0.11505  0.81434  1.0000
  H   H249      1.0  0.10133  0.08147  0.84629  1.0000
  H   H250      1.0  0.10016  0.06133  0.81941  1.0000
  H   H251      1.0  0.07657  0.10985  0.78610  1.0000
  H   H252      1.0  0.07813  0.13008  0.81280  1.0000
  C   C223      1.0  0.09762  0.19173  0.92747  1.0000
  C   C224      1.0  0.08849  0.20434  0.94062  1.0000
  C   C225      1.0  0.09157  0.22381  0.93886  1.0000
  C   C226      1.0  0.10411  0.23083  0.92409  1.0000
  C   C227      1.0  0.11320  0.21825  0.91087  1.0000
  C   C228      1.0  0.10980  0.19885  0.91240  1.0000
  H   H253      1.0  0.07901  0.19899  0.95231  1.0000
  H   H254      1.0  0.08451  0.23329  0.94916  1.0000
  H   H255      1.0  0.12297  0.22353  0.89941  1.0000
  H   H256      1.0  0.11678  0.18939  0.90208  1.0000
  C   C229      1.0  0.18954  0.10852  0.90646  1.0000
  C   C230      1.0  0.20907  0.10776  0.89962  1.0000
  C   C231      1.0  0.22366  0.10374  0.91206  1.0000
  C   C232      1.0  0.21884  0.10058  0.93152  1.0000
  C   C233      1.0  0.19930  0.10114  0.93835  1.0000
  C   C234      1.0  0.18471  0.10511  0.92590  1.0000
  H   H257      1.0  0.21297  0.11035  0.88461  1.0000
  H   H258      1.0  0.23863  0.10337  0.90661  1.0000
  H   H259      1.0  0.38493  0.05830  0.83500  1.0000
  H   H260      1.0  0.04357  0.03817  0.75283  1.0000
  C   C235      1.0  0.48218  0.23607  0.87122  1.0000
  H   H261      1.0  0.44045  0.10109  0.70065  1.0000
  C   C236      1.0  0.19210  0.16454  0.92114  1.0000
  H   H262      1.0  0.27202  0.24613  0.96929  1.0000
  C   C237      1.0  0.01838  0.20618  0.72598  1.0000
  H   H263      1.0  0.07405  0.12992  0.68411  1.0000
  C   C238      1.0  0.03647  0.18304  0.74590  1.0000
  C   C239      1.0  0.27662  0.07084  0.71441  1.0000
  C   C240      1.0  0.14596  0.15542  0.95176  1.0000
  H   H264      1.0  0.33974  0.09660  0.96027  1.0000
  H   H265      1.0  0.22006  0.02179  0.98546  1.0000
  C   C241      1.0  0.03925  0.03543  0.80077  1.0000
  C   C242      1.0  0.05634  0.17701  0.69764  1.0000
  H   H266      1.0  0.23550  0.06113  0.68307  1.0000
  H   H267      1.0  0.02781  0.03794  0.81246  1.0000
  C   C243      1.0  0.50075  0.19105  0.85585  1.0000
  H   H268      1.0  0.05718  0.02226  0.76902  1.0000
  C   C244      1.0  0.01755  0.00482  0.71709  1.0000
  N   N12       1.0  0.15292  0.10912  0.83220  1.0000
  C   C245      1.0  0.17420  0.10589  0.82956  1.0000
  C   C246      1.0  0.14790  0.12827  0.83951  1.0000
  C   C247      1.0  0.14580  0.09498  0.84704  1.0000
  C   C248      1.0  0.14464  0.10685  0.81421  1.0000
  C   C249      1.0  0.14808  0.08927  0.80551  1.0000
  C   C250      1.0  0.13290  0.12164  0.80495  1.0000
  C   C251      1.0  0.14011  0.08662  0.78876  1.0000
  C   C252      1.0  0.12526  0.11889  0.78803  1.0000
  C   C253      1.0  0.12875  0.10141  0.78002  1.0000
  H   H269      1.0  0.18011  0.11581  0.81801  1.0000
  H   H270      1.0  0.18086  0.10813  0.84274  1.0000
  H   H271      1.0  0.17927  0.09111  0.82595  1.0000
  H   H272      1.0  0.15330  0.13970  0.82934  1.0000
  H   H273      1.0  0.15428  0.12941  0.85309  1.0000
  H   H274      1.0  0.13204  0.13130  0.84257  1.0000
  H   H275      1.0  0.14968  0.08004  0.84334  1.0000
  H   H276      1.0  0.15186  0.09623  0.86075  1.0000
  H   H277      1.0  0.12984  0.09709  0.84951  1.0000
  H   H278      1.0  0.15662  0.07729  0.81182  1.0000
  H   H279      1.0  0.12888  0.13527  0.81073  1.0000
  H   H280      1.0  0.14226  0.07287  0.78273  1.0000
  H   H281      1.0  0.11586  0.13013  0.78148  1.0000
  H   H282      1.0  0.12208  0.09909  0.76737  1.0000
  H   H283      1.0  0.22813  0.08481  0.71793  1.0000
  H   H284      1.0  0.27561  0.05167  0.76710  1.0000
  H   H285      1.0  0.04657  0.02088  0.80353  1.0000
  H   H286      1.0  0.32953  0.06080  0.67358  1.0000
  H   H287      1.0  0.47782  0.15595  0.70546  1.0000
  H   H288      1.0  0.21348  0.01687  0.96271  1.0000
  H   H289      1.0  0.05000  0.04582  0.80180  1.0000
  S   S79       1.0  0.20225  0.04358  0.67868  1.0000
  C   C254      1.0  0.47963  0.02320  0.75686  1.0000
  N   N13       1.0  0.03157  0.03748  0.78192  1.0000
  C   C255      1.0  0.21181  0.15901  0.92113  1.0000
  H   H290      1.0  0.06975  0.18118  0.70150  1.0000
  C   C256      1.0  0.18674  0.14799  0.95208  1.0000
  C   C257      1.0  0.49681  0.03147  0.75755  1.0000
  H   H291      1.0  0.18726  0.17310  0.90894  1.0000
  C   C258      1.0  0.17888  0.15885  0.93645  1.0000
  H   H292      1.0  0.28312  0.00543  0.92361  1.0000
  S   S80       1.0  0.01103  0.20112  0.66925  1.0000
  C   C259      1.0  0.46667  0.11382  0.69093  1.0000
  H   H293      1.0  0.47814  0.06971  0.78239  1.0000
  H   H294      1.0  0.01329  0.17657  0.73069  1.0000
  H   H295      1.0  0.06745  0.12303  0.95181  1.0000
  C   C260      1.0  0.02465  0.02253  0.71885  1.0000
  H   H296      1.0  0.05810  0.04733  0.76864  1.0000
  H   H297      1.0  0.21405  0.06719  0.71076  1.0000
  C   C261      1.0  0.02141  0.05684  0.77921  1.0000
  H   H298      1.0  0.03368  0.00759  0.75738  1.0000
  H   H299      1.0  0.15736  0.16723  0.90524  1.0000
  H   H300      1.0  0.23421  0.14333  0.93627  1.0000
  N   N14       1.0  0.23367  0.03789  0.96158  1.0000
  C   C262      1.0  0.29191  0.07293  0.72506  1.0000
  H   H301      1.0  0.30453  0.07930  0.71841  1.0000
  C   C263      1.0  0.47495  0.21198  0.89615  1.0000
  C   C264      1.0  0.01205  0.03816  0.72434  1.0000
  Fe  Fe39      1.0  0.01408  0.01621  0.98432  1.0000
  C   C265      1.0  0.04828  0.03615  0.76743  1.0000
  H   H302      1.0  0.02278  0.22912  0.69320  1.0000
  N   N15       1.0  0.24430  0.05827  0.71152  1.0000
  H   H303      1.0  0.45030  0.19038  0.83816  1.0000
  H   H304      1.0  0.25476  0.02875  0.70951  1.0000
  C   C266      1.0  0.22641  0.06928  0.71892  1.0000
  C   C267      1.0  0.36999  0.13535  0.98204  1.0000
  H   H305      1.0  0.44889  0.05464  0.78117  1.0000
  C   C268      1.0  0.35290  0.10730  0.99302  1.0000
  C   C269      1.0  0.32793  0.11367  0.86061  1.0000
  H   H306      1.0  0.04696  0.23351  0.69640  1.0000
  C   C270      1.0  0.32352  0.09161  0.99548  1.0000
  H   H307      1.0  0.47946  0.01051  0.74932  1.0000
  C   C271      1.0  0.25831  0.01277  0.97392  1.0000
  H   H308      1.0  0.23039  0.03440  0.70392  1.0000
  H   H309      1.0  0.21481  0.05898  0.94683  1.0000
  C   C272      1.0  0.03157  0.23881  0.69943  1.0000
  C   C273      1.0  0.49693  0.14780  0.66840  1.0000
  H   H310      1.0  0.46838  0.24459  0.94959  1.0000
  H   H311      1.0  0.49042  0.23939  0.85737  1.0000
  C   C274      1.0  0.34818  0.09645  0.88273  1.0000
  C   C275      1.0  0.47000  0.14392  0.70374  1.0000
  C   C276      1.0  0.37845  0.07291  0.83386  1.0000
  C   C277      1.0  0.37955  0.08323  0.81634  1.0000
  H   H312      1.0  0.36769  0.07187  0.86264  1.0000
  H   H313      1.0  0.03979  0.02416  0.71557  1.0000
  H   H314      1.0  0.24168  0.04615  0.98826  1.0000
  C   C278      1.0  0.04872  0.10388  0.99420  1.0000
  H   H315      1.0  0.13029  0.15928  0.95046  1.0000
  C   C279      1.0  0.26038  0.06158  0.72253  1.0000
  C   C280      1.0  0.05841  0.11476  0.96188  1.0000
  C   C281      1.0  0.08966  0.12889  0.67952  1.0000
  C   C282      1.0  0.21899  0.14807  0.93648  1.0000
  C   C283      1.0  0.47797  0.12925  0.69197  1.0000
  C   C284      1.0  0.17733  0.05181  0.67947  1.0000
  Fe  Fe40      1.0  0.38860  0.24633  0.96042  1.0000
  H   H316      1.0  0.36234  0.08273  0.96417  1.0000
  H   H317      1.0  0.46662  0.23879  0.86913  1.0000
  C   C285      1.0  0.15424  0.18539  0.93662  1.0000
  C   C286      1.0  0.22727  0.04821  0.94389  1.0000
  S   S81       1.0  0.35648  0.24466  0.96610  1.0000
  N   N16       1.0  0.15800  0.16444  0.93585  1.0000
  C   C287      1.0  0.27568  0.05724  0.75244  1.0000
  C   C288      1.0  0.45930  0.25026  0.93861  1.0000
  H   H318      1.0  0.32637  0.12497  0.84895  1.0000
  H   H319      1.0  0.37198  0.12358  0.87082  1.0000
  C   C289      1.0  0.49800  0.17919  0.84174  1.0000
  C   C290      1.0  0.04780  0.19704  0.74980  1.0000
  H   H320      1.0  0.04449  0.10343  0.94035  1.0000
  H   H321      1.0  0.34040  0.07174  0.96736  1.0000
  C   C291      1.0  0.35927  0.09988  0.84845  1.0000
  H   H322      1.0  0.17793  0.14300  0.96439  1.0000
  H   H323      1.0  0.34123  0.08323  0.88150  1.0000
  C   C292      1.0  0.02964  0.22084  0.72962  1.0000
  H   H324      1.0  0.37686  0.14400  0.97057  1.0000
  C   C293      1.0  0.36079  0.11004  0.83038  1.0000
  H   H325      1.0  0.05947  0.19325  0.75874  1.0000
  C   C294      1.0  0.46684  0.20217  0.85762  1.0000
  C   C295      1.0  0.47992  0.17906  0.83530  1.0000
  H   H326      1.0  0.32177  0.10097  0.85627  1.0000
  H   H327      1.0  0.35544  0.13753  0.85630  1.0000
  C   C296      1.0  0.20652  0.14276  0.95200  1.0000
  H   H328      1.0  0.13856  0.19010  0.93709  1.0000
  H   H329      1.0  0.20406  0.03861  0.97323  1.0000
  H   H330      1.0  0.47722  0.22109  0.90767  1.0000
  H   H331      1.0  0.35401  0.12436  0.82823  1.0000
  H   H332      1.0  0.35398  0.15941  0.92876  1.0000
  C   C297      1.0  0.44864  0.11321  0.70115  1.0000
  N   N17       1.0  0.34822  0.10883  0.86482  1.0000
  C   C298      1.0  0.48518  0.20298  0.86421  1.0000
  H   H333      1.0  0.04954  0.20342  0.68111  1.0000
  C   C299      1.0  0.23867  0.05231  0.97386  1.0000
  C   C300      1.0  0.35650  0.12657  0.86834  1.0000
  H   H334      1.0  0.01887  0.05885  0.98409  1.0000
  H   H335      1.0  0.45941  0.21468  0.89395  1.0000
  H   H336      1.0  0.15598  0.14356  0.91595  1.0000
  C   C301      1.0  0.25041  0.02360  0.95835  1.0000
  C   C302      1.0  0.04449  0.21571  0.74186  1.0000
  H   H337      1.0  0.22158  0.16300  0.90904  1.0000
  H   H338      1.0  0.31863  0.11874  0.87317  1.0000
  C   C303      1.0  0.24766  0.06401  0.69101  1.0000
  C   C304      1.0  0.01805  0.02291  0.78082  1.0000
  H   H339      1.0  0.44645  0.15418  0.72325  1.0000
  H   H340      1.0  0.23571  0.03278  0.72786  1.0000
  C   C305      1.0  0.24121  0.03771  0.71333  1.0000
  H   H341      1.0  0.43307  0.24364  0.95527  1.0000
  N   N18       1.0  0.48759  0.21627  0.87867  1.0000
  S   S82       1.0  0.34559  0.19280  0.98805  1.0000
  H   H342      1.0  0.13558  0.16115  0.91789  1.0000
  C   C306      1.0  0.04479  0.18975  0.68625  1.0000
  H   H343      1.0  0.47153  0.10185  0.68264  1.0000
  C   C307      1.0  0.26018  0.05527  0.74201  1.0000
  H   H344      1.0  0.22687  0.06399  0.97577  1.0000
  H   H345      1.0  0.15964  0.19023  0.94946  1.0000
  C   C308      1.0  0.03546  0.09227  0.98814  1.0000
  C   C309      1.0  0.43927  0.24967  0.94187  1.0000
  C   C310      1.0  0.46241  0.04801  0.77486  1.0000
  H   H346      1.0  0.36059  0.18448  0.94917  1.0000
  N   N19       1.0  0.34446  0.08964  0.98962  1.0000
  H   H347      1.0  0.07031  0.12340  0.98609  1.0000
  H   H348      1.0  0.14832  0.13958  0.95206  1.0000
  C   C311      1.0  0.15151  0.15888  0.91799  1.0000
  H   H349      1.0  0.27829  0.07599  0.69969  1.0000
  H   H350      1.0  0.03143  0.06815  0.77876  1.0000
  C   C312      1.0  0.03412  0.09253  0.96829  1.0000
  H   H351      1.0  0.24904  0.07955  0.68839  1.0000
  C   C313      1.0  0.45199  0.14311  0.71393  1.0000
  C   C314      1.0  0.46246  0.03146  0.76549  1.0000
  H   H352      1.0  0.01449  0.05856  0.76565  1.0000
  H   H353      1.0  0.09615  0.11574  0.68709  1.0000
  H   H354      1.0  0.28422  0.23162  0.98725  1.0000
  H   H355      1.0  0.44908  0.02523  0.76464  1.0000
  N   N20       1.0  0.02647  0.24010  0.71999  1.0000
  H   H356      1.0  0.09551  0.14132  0.68481  1.0000
  C   C315      1.0  0.30389  0.02788  0.99280  1.0000
  H   H357      1.0  0.25217  0.01447  0.98829  1.0000
  C   C316      1.0  0.25957  0.02023  0.94002  1.0000
  H   H358      1.0  0.36438  0.00773  0.67718  1.0000
  H   H359      1.0  0.42763  0.12689  0.72098  1.0000
  H   H360      1.0  0.47813  0.17041  0.82379  1.0000
  C   C317      1.0  0.34691  0.08506  0.96946  1.0000
  H   H361      1.0  0.05400  0.22576  0.74523  1.0000
  H   H362      1.0  0.36431  0.11499  0.96374  1.0000
  H   H363      1.0  0.49745  0.22072  0.80686  1.0000
  H   H364      1.0  0.00777  0.05939  0.67843  1.0000
  H   H365      1.0  0.27785  0.04672  0.99512  1.0000
  H   H366      1.0  0.31651  0.07894  0.99222  1.0000
  C   C318      1.0  0.47946  0.05654  0.77547  1.0000
  H   H367      1.0  0.49377  0.16102  0.67602  1.0000
  H   H368      1.0  0.32798  0.00651  0.99473  1.0000
  H   H369      1.0  0.00768  0.16282  0.68483  1.0000
  H   H370      1.0  0.01228  0.02426  0.67980  1.0000
  C   C319      1.0  0.36265  0.11851  0.97834  1.0000
  C   C320      1.0  0.00594  0.24764  0.72306  1.0000
  N   N21       1.0  0.49719  0.13038  0.68150  1.0000
  H   H371      1.0  0.36945  0.07152  0.99718  1.0000
  H   H372      1.0  0.05384  0.25057  0.72295  1.0000
  H   H373      1.0  0.49852  0.24591  0.98559  1.0000
  H   H374      1.0  0.31631  0.10446  0.98806  1.0000
  H   H375      1.0  0.10155  0.25074  0.86068  1.0000
  H   H376      1.0  0.34785  0.05960  0.99819  1.0000
  C   C321      1.0  0.49726  0.04849  0.76679  1.0000
  H   H377      1.0  0.26222  0.24551  0.99358  1.0000
  S   S83       1.0  0.02243  0.40411  0.26639  1.0000
  H   H378      1.0  0.03378  0.35270  0.04339  1.0000
  C   C322      1.0  0.49471  0.49753  0.22361  1.0000
  S   S84       1.0  0.22804  0.40811  0.03560  1.0000
  Fe  Fe41      1.0  0.45426  0.30344  0.14258  1.0000
  S   S85       1.0  0.44432  0.33513  0.14439  1.0000
  Fe  Fe42      1.0  0.44721  0.26980  0.11966  1.0000
  H   H379      1.0  0.43497  0.45630  0.31035  1.0000
  H   H380      1.0  0.06325  0.36715  0.03522  1.0000
  S   S86       1.0  0.43412  0.28055  0.14749  1.0000
  S   S87       1.0  0.46584  0.29415  0.11378  1.0000
  Fe  Fe43      1.0  0.27412  0.45886  0.11557  1.0000
  S   S88       1.0  0.24988  0.48230  0.11669  1.0000
  S   S89       1.0  0.28058  0.43587  0.09437  1.0000
  Fe  Fe44      1.0  0.29096  0.47099  0.15099  1.0000
  S   S90       1.0  0.31213  0.46503  0.17394  1.0000
  Fe  Fe45      1.0  0.24696  0.47439  0.14829  1.0000
  S   S91       1.0  0.21698  0.46920  0.16233  1.0000
  S   S92       1.0  0.27010  0.44988  0.14672  1.0000
  S   S93       1.0  0.29686  0.47808  0.11977  1.0000
  Fe  Fe46      1.0  0.42325  0.44353  0.24274  1.0000
  S   S94       1.0  0.45448  0.43343  0.23822  1.0000
  S   S95       1.0  0.40486  0.44457  0.27089  1.0000
  Fe  Fe47      1.0  0.42104  0.45612  0.20086  1.0000
  S   S96       1.0  0.45283  0.44759  0.19364  1.0000
  S   S97       1.0  0.40269  0.46748  0.17673  1.0000
  Fe  Fe48      1.0  0.44712  0.42094  0.21196  1.0000
  S   S98       1.0  0.46005  0.39061  0.20661  1.0000
  Fe  Fe49      1.0  0.45773  0.46109  0.22041  1.0000
  H   H381      1.0  0.49123  0.33347  0.10256  1.0000
  S   S99       1.0  0.41537  0.42889  0.21802  1.0000
  S   S100      1.0  0.42640  0.47167  0.22604  1.0000
  Fe  Fe50      1.0  0.14975  0.48528  0.25909  1.0000
  H   H382      1.0  0.44682  0.45297  0.27922  1.0000
  H   H383      1.0  0.23137  0.48783  0.19283  1.0000
  Fe  Fe51      1.0  0.11033  0.46944  0.26251  1.0000
  S   S101      1.0  0.10342  0.47754  0.29244  1.0000
  S   S102      1.0  0.08893  0.45936  0.24411  1.0000
  C   C323      1.0  0.42853  0.48769  0.28309  1.0000
  Fe  Fe52      1.0  0.13416  0.46696  0.29711  1.0000
  C   C324      1.0  0.20416  0.43272  0.32450  1.0000
  H   H384      1.0  0.42366  0.50020  0.29144  1.0000
  S   S103      1.0  0.14021  0.45616  0.26785  1.0000
  H   H385      1.0  0.42301  0.30331  0.03426  1.0000
  H   H386      1.0  0.41989  0.47585  0.28885  1.0000
  C   C325      1.0  0.48640  0.39022  0.14904  1.0000
  C   C326      1.0  0.20688  0.47515  0.18527  1.0000
  C   C327      1.0  0.21695  0.48423  0.19738  1.0000
  H   H387      1.0  0.21618  0.49595  0.22458  1.0000
  C   C328      1.0  0.18949  0.48436  0.22154  1.0000
  C   C329      1.0  0.17946  0.47515  0.20949  1.0000
  C   C330      1.0  0.18811  0.47060  0.19146  1.0000
  H   H388      1.0  0.00589  0.29516  0.29378  1.0000
  H   H389      1.0  0.42689  0.26250  0.30416  1.0000
  H   H390      1.0  0.16500  0.47165  0.21399  1.0000
  C   C331      1.0  0.22859  0.46119  0.32630  1.0000
  C   C332      1.0  0.33755  0.46470  0.17402  1.0000
  C   C333      1.0  0.34973  0.46778  0.15750  1.0000
  C   C334      1.0  0.36963  0.46841  0.15856  1.0000
  C   C335      1.0  0.37769  0.46554  0.17605  1.0000
  C   C336      1.0  0.36566  0.46169  0.19246  1.0000
  C   C337      1.0  0.34572  0.46138  0.19144  1.0000
  H   H391      1.0  0.34387  0.46973  0.14390  1.0000
  H   H392      1.0  0.37883  0.47125  0.14575  1.0000
  H   H393      1.0  0.37162  0.45952  0.20603  1.0000
  H   H394      1.0  0.33649  0.45888  0.20431  1.0000
  C   C338      1.0  0.44890  0.35030  0.16184  1.0000
  C   C339      1.0  0.45874  0.34346  0.17756  1.0000
  C   C340      1.0  0.46190  0.35599  0.19115  1.0000
  C   C341      1.0  0.45519  0.37543  0.18928  1.0000
  C   C342      1.0  0.44550  0.38229  0.17347  1.0000
  C   C343      1.0  0.44235  0.36978  0.15985  1.0000
  H   H395      1.0  0.46378  0.32851  0.17935  1.0000
  H   H396      1.0  0.46955  0.35057  0.20325  1.0000
  H   H397      1.0  0.44088  0.39729  0.17151  1.0000
  H   H398      1.0  0.43478  0.37521  0.14770  1.0000
  H   H399      1.0  0.04140  0.50199  0.22579  1.0000
  S   S104      1.0  0.17932  0.49057  0.24438  1.0000
  H   H400      1.0  0.06540  0.31737  0.02159  1.0000
  C   C344      1.0  0.39521  0.30478  0.00889  1.0000
  H   H401      1.0  0.24280  0.43435  0.11583  1.0000
  C   C345      1.0  0.24393  0.41737  0.04980  1.0000
  C   C346      1.0  0.26241  0.40848  0.05203  1.0000
  C   C347      1.0  0.27356  0.41458  0.06546  1.0000
  C   C348      1.0  0.26658  0.42984  0.07655  1.0000
  C   C349      1.0  0.24848  0.43928  0.07371  1.0000
  C   C350      1.0  0.23709  0.43287  0.06065  1.0000
  H   H402      1.0  0.26781  0.39645  0.04393  1.0000
  H   H403      1.0  0.28760  0.40724  0.06745  1.0000
  H   H404      1.0  0.24320  0.45135  0.08173  1.0000
  H   H405      1.0  0.22281  0.43980  0.05907  1.0000
  C   C351      1.0  0.07026  0.44427  0.25073  1.0000
  C   C352      1.0  0.06701  0.43612  0.26918  1.0000
  C   C353      1.0  0.05221  0.42400  0.27369  1.0000
  C   C354      1.0  0.04044  0.41996  0.25987  1.0000
  C   C355      1.0  0.04342  0.42843  0.24150  1.0000
  C   C356      1.0  0.05828  0.44049  0.23698  1.0000
  H   H406      1.0  0.07608  0.43889  0.27991  1.0000
  H   H407      1.0  0.05002  0.41754  0.28794  1.0000
  H   H408      1.0  0.03454  0.42542  0.23071  1.0000
  H   H409      1.0  0.06070  0.44668  0.22264  1.0000
  C   C357      1.0  0.06936  0.35252  0.03184  1.0000
  H   H410      1.0  0.04254  0.30051  0.00875  1.0000
  H   H411      1.0  0.01532  0.36772  0.28229  1.0000
  H   H412      1.0  0.36460  0.31423  0.00816  1.0000
  C   C358      1.0  0.44543  0.46438  0.31538  1.0000
  H   H413      1.0  0.37269  0.40960  0.15206  1.0000
  C   C359      1.0  0.48836  0.37578  0.13645  1.0000
  H   H414      1.0  0.29757  0.27384  0.01021  1.0000
  H   H415      1.0  0.20869  0.43909  0.26063  1.0000
  H   H416      1.0  0.27730  0.26066  0.01699  1.0000
  H   H417      1.0  0.04028  0.25453  0.01881  1.0000
  C   C360      1.0  0.43370  0.41441  0.31254  1.0000
  C   C361      1.0  0.42857  0.42187  0.29455  1.0000
  C   C362      1.0  0.41117  0.43318  0.29287  1.0000
  C   C363      1.0  0.39872  0.43639  0.30926  1.0000
  H   H418      1.0  0.38463  0.40308  0.21024  1.0000
  H   H419      1.0  0.44737  0.40602  0.31375  1.0000
  H   H420      1.0  0.43821  0.41911  0.28205  1.0000
  H   H421      1.0  0.38521  0.44508  0.30810  1.0000
  H   H422      1.0  0.40577  0.41030  0.16079  1.0000
  H   H423      1.0  0.37992  0.27843  0.04870  1.0000
  C   C364      1.0  0.42134  0.41779  0.32895  1.0000
  C   C365      1.0  0.40088  0.34288  0.17576  1.0000
  C   C366      1.0  0.49866  0.32485  0.13793  1.0000
  Fe  Fe53      1.0  0.23573  0.39272  0.00840  1.0000
  C   C367      1.0  0.42379  0.25408  0.07935  1.0000
  H   H424      1.0  0.40650  0.32817  0.17415  1.0000
  H   H425      1.0  0.18129  0.42648  0.27676  1.0000
  C   C368      1.0  0.29063  0.26107  0.00725  1.0000
  C   C369      1.0  0.20829  0.48880  0.21540  1.0000
  H   H426      1.0  0.41029  0.40890  0.18522  1.0000
  C   C370      1.0  0.40371  0.42866  0.32721  1.0000
  C   C371      1.0  0.02711  0.30083  0.01098  1.0000
  H   H427      1.0  0.41951  0.27920  0.02954  1.0000
  H   H428      1.0  0.03305  0.49906  0.25050  1.0000
  C   C372      1.0  0.02904  0.35127  0.02965  1.0000
  H   H429      1.0  0.22303  0.45367  0.27123  1.0000
  H   H430      1.0  0.36654  0.28739  0.02927  1.0000
  H   H431      1.0  0.45559  0.50052  0.25811  1.0000
  H   H432      1.0  0.02827  0.38463  0.30639  1.0000
  H   H433      1.0  0.08532  0.35221  0.03140  1.0000
  H   H434      1.0  0.38551  0.31157  0.05598  1.0000
  H   H435      1.0  0.48445  0.32650  0.14632  1.0000
  C   C373      1.0  0.41284  0.29211  0.03653  1.0000
  C   C374      1.0  0.40688  0.35284  0.18985  1.0000
  C   C375      1.0  0.50053  0.35870  0.13976  1.0000
  H   H436      1.0  0.37201  0.37749  0.15444  1.0000
  H   H437      1.0  0.36859  0.42166  0.20092  1.0000
  N   N22       1.0  0.44953  0.48245  0.28356  1.0000
  H   H438      1.0  0.47550  0.49449  0.27166  1.0000
  H   H439      1.0  0.19437  0.42184  0.32506  1.0000
  H   H440      1.0  0.41722  0.34583  0.19916  1.0000
  Fe  Fe54      1.0  0.48775  0.27500  0.12927  1.0000
  H   H441      1.0  0.47979  0.37818  0.12454  1.0000
  C   C376      1.0  0.40050  0.37208  0.19135  1.0000
  C   C377      1.0  0.22057  0.45921  0.30940  1.0000
  C   C378      1.0  0.38822  0.35204  0.16327  1.0000
  C   C379      1.0  0.45433  0.47860  0.30341  1.0000
  S   S105      1.0  0.26734  0.49492  0.15481  1.0000
  C   C380      1.0  0.01754  0.30351  0.02911  1.0000
  C   C381      1.0  0.18702  0.46111  0.28567  1.0000
  H   H442      1.0  0.00607  0.46325  0.28152  1.0000
  H   H443      1.0  0.02577  0.30569  0.04070  1.0000
  N   N23       1.0  0.00597  0.36553  0.31211  1.0000
  N   N24       1.0  0.06322  0.34743  0.01363  1.0000
  H   H444      1.0  0.01999  0.34445  0.29347  1.0000
  C   C382      1.0  0.48968  0.34586  0.11153  1.0000
  C   C383      1.0  0.00917  0.35152  0.02886  1.0000
  C   C384      1.0  0.38157  0.37126  0.16474  1.0000
  S   S106      1.0  0.14513  0.49528  0.28874  1.0000
  H   H445      1.0  0.22515  0.42840  0.27731  1.0000
  N   N25       1.0  0.39394  0.29892  0.02942  1.0000
  Fe  Fe55      1.0  0.27220  0.50105  0.12319  1.0000
  H   H446      1.0  0.19589  0.41336  0.29360  1.0000
  S   S107      1.0  0.24243  0.36107  0.00465  1.0000
  H   H447      1.0  0.17530  0.46344  0.29716  1.0000
  S   S108      1.0  0.12042  0.49801  0.25168  1.0000
  C   C385      1.0  0.38134  0.28322  0.03338  1.0000
  S   S109      1.0  0.48227  0.47671  0.22979  1.0000
  H   H448      1.0  0.49397  0.39894  0.17541  1.0000
  H   H449      1.0  0.36277  0.42586  0.16901  1.0000
  H   H450      1.0  0.41146  0.28785  0.05201  1.0000
  H   H451      1.0  0.38720  0.27061  0.02547  1.0000
  S   S110      1.0  0.14177  0.44891  0.32404  1.0000
  H   H452      1.0  0.06506  0.34222  0.04379  1.0000
  H   H453      1.0  0.45175  0.46754  0.25819  1.0000
  C   C386      1.0  0.00955  0.35734  0.29342  1.0000
  H   H454      1.0  0.18022  0.46047  0.27229  1.0000
  C   C387      1.0  0.02397  0.37273  0.31670  1.0000
  H   H455      1.0  0.03634  0.36160  0.31610  1.0000
  H   H456      1.0  0.08390  0.50070  0.22981  1.0000
  S   S111      1.0  0.42361  0.26244  0.10225  1.0000
  H   H457      1.0  0.16775  0.47873  0.32592  1.0000
  S   S112      1.0  0.47717  0.28578  0.15776  1.0000
  N   N26       1.0  0.21285  0.42993  0.12247  1.0000
  C   C388      1.0  0.20032  0.42498  0.13982  1.0000
  C   C389      1.0  0.23266  0.43002  0.12807  1.0000
  C   C390      1.0  0.20653  0.44959  0.11511  1.0000
  C   C391      1.0  0.21138  0.41633  0.10801  1.0000
  C   C392      1.0  0.19351  0.41512  0.10060  1.0000
  C   C393      1.0  0.22736  0.40415  0.10077  1.0000
  H   H458      1.0  0.32085  0.49621  0.14494  1.0000
  C   C394      1.0  0.22548  0.39186  0.08676  1.0000
  C   C395      1.0  0.20786  0.39139  0.07947  1.0000
  H   H459      1.0  0.18490  0.42605  0.13719  1.0000
  H   H460      1.0  0.20442  0.41019  0.14561  1.0000
  H   H461      1.0  0.20142  0.43476  0.15115  1.0000
  H   H462      1.0  0.23825  0.41587  0.13437  1.0000
  H   H463      1.0  0.23321  0.44028  0.13898  1.0000
  C   C396      1.0  0.04610  0.49944  0.24031  1.0000
  H   H464      1.0  0.21470  0.45338  0.10137  1.0000
  H   H465      1.0  0.19101  0.45154  0.11285  1.0000
  H   H466      1.0  0.39553  0.42867  0.17578  1.0000
  C   C397      1.0  0.18742  0.42726  0.29053  1.0000
  H   H467      1.0  0.24168  0.40432  0.10508  1.0000
  H   H468      1.0  0.30547  0.30751  0.02025  1.0000
  H   H469      1.0  0.23803  0.38337  0.08077  1.0000
  H   H470      1.0  0.20679  0.38252  0.06794  1.0000
  C   C398      1.0  0.07147  0.32767  0.01053  1.0000
  Fe  Fe56      1.0  0.45800  0.26200  0.16059  1.0000
  H   H471      1.0  0.47432  0.34748  0.11737  1.0000
  H   H472      1.0  0.36152  0.39781  0.20431  1.0000
  C   C399      1.0  0.45490  0.46506  0.27324  1.0000
  H   H473      1.0  0.05387  0.48486  0.24087  1.0000
  H   H474      1.0  0.45428  0.25381  0.07205  1.0000
  C   C400      1.0  0.49623  0.38806  0.16528  1.0000
  H   H475      1.0  0.47053  0.46037  0.27335  1.0000
  H   H476      1.0  0.20877  0.46036  0.12509  1.0000
  H   H477      1.0  0.35382  0.40301  0.16996  1.0000
  C   C401      1.0  0.38557  0.31521  0.04043  1.0000
  H   H478      1.0  0.25089  0.27516  0.00225  1.0000
  N   N27       1.0  0.19947  0.44342  0.28999  1.0000
  C   C402      1.0  0.21478  0.44100  0.27419  1.0000
  H   H479      1.0  0.17481  0.42885  0.30131  1.0000
  H   H480      1.0  0.19503  0.47399  0.28368  1.0000
  C   C403      1.0  0.20812  0.44489  0.30795  1.0000
  H   H481      1.0  0.18075  0.42391  0.10542  1.0000
  H   H482      1.0  0.17827  0.40267  0.08048  1.0000
  C   C404      1.0  0.45961  0.49806  0.27297  1.0000
  H   H483      1.0  0.22392  0.46924  0.29755  1.0000
  H   H484      1.0  0.39389  0.32779  0.03686  1.0000
  C   C405      1.0  0.04206  0.34863  0.01322  1.0000
  C   C406      1.0  0.19187  0.40290  0.08645  1.0000
  H   H485      1.0  0.38390  0.34424  0.15213  1.0000
  H   H486      1.0  0.40639  0.37935  0.20195  1.0000
  N   N28       1.0  0.38187  0.40254  0.18015  1.0000
  C   C407      1.0  0.36715  0.41045  0.16720  1.0000
  C   C408      1.0  0.37383  0.40636  0.19973  1.0000
  C   C409      1.0  0.39908  0.41304  0.17528  1.0000
  C   C410      1.0  0.38760  0.38191  0.17886  1.0000
  H   H487      1.0  0.47662  0.40289  0.14661  1.0000
  C   C411      1.0  0.43428  0.25306  0.31448  1.0000
  C   C412      1.0  0.46804  0.48835  0.31134  1.0000
  H   H488      1.0  0.07415  0.49284  0.26269  1.0000
  H   H489      1.0  0.37036  0.31967  0.03775  1.0000
  H   H490      1.0  0.18017  0.46361  0.18220  1.0000
  H   H491      1.0  0.42452  0.49113  0.26833  1.0000
  C   C413      1.0  0.01270  0.33420  0.33083  1.0000
  H   H492      1.0  0.08740  0.32604  0.01088  1.0000
  H   H493      1.0  0.28753  0.33634  0.00595  1.0000
  H   H494      1.0  0.47567  0.49930  0.30334  1.0000
  H   H495      1.0  0.02222  0.37810  0.33111  1.0000
  H   H496      1.0  0.13135  0.48828  0.33231  1.0000
  H   H497      1.0  0.23777  0.47245  0.32721  1.0000
  S   S113      1.0  0.33678  0.28185  0.00604  1.0000
  H   H498      1.0  0.49270  0.35856  0.10185  1.0000
  H   H499      1.0  0.49837  0.31307  0.12853  1.0000
  C   C414      1.0  0.30940  0.31241  0.00573  1.0000
  C   C415      1.0  0.47242  0.48402  0.33009  1.0000
  H   H500      1.0  0.02667  0.33197  0.32310  1.0000
  H   H501      1.0  0.42601  0.29618  0.00205  1.0000
  C   C416      1.0  0.37852  0.31261  0.00015  1.0000
  Fe  Fe57      1.0  0.37082  0.41843  0.40084  1.0000
  S   S114      1.0  0.37861  0.39987  0.42646  1.0000
  S   S115      1.0  0.34269  0.43731  0.39931  1.0000
  Fe  Fe58      1.0  0.40905  0.40748  0.37848  1.0000
  S   S116      1.0  0.41981  0.38794  0.40271  1.0000
  S   S117      1.0  0.42901  0.40922  0.35137  1.0000
  Fe  Fe59      1.0  0.39034  0.37791  0.40612  1.0000
  S   S118      1.0  0.38184  0.34793  0.41434  1.0000
  Fe  Fe60      1.0  0.40752  0.41141  0.42123  1.0000
  S   S119      1.0  0.42206  0.41612  0.44756  1.0000
  S   S120      1.0  0.38034  0.39573  0.38058  1.0000
  S   S121      1.0  0.39899  0.43172  0.39687  1.0000
  C   C417      1.0  0.08745  0.26002  0.54609  1.0000
  H   H502      1.0  0.18008  0.48689  0.56288  1.0000
  H   H503      1.0  0.09564  0.25430  0.53380  1.0000
  S   S122      1.0  0.44288  0.27483  0.41910  1.0000
  S   S123      1.0  0.02873  0.27769  0.62676  1.0000
  N   N29       1.0  0.50022  0.48570  0.58710  1.0000
  Fe  Fe61      1.0  0.10905  0.28577  0.50178  1.0000
  S   S124      1.0  0.08917  0.29559  0.52695  1.0000
  Fe  Fe62      1.0  0.14155  0.29914  0.47283  1.0000
  S   S125      1.0  0.14136  0.27322  0.45633  1.0000
  S   S126      1.0  0.16512  0.31837  0.46159  1.0000
  Fe  Fe63      1.0  0.10895  0.27804  0.46033  1.0000
  S   S127      1.0  0.09019  0.28306  0.43551  1.0000
  S   S128      1.0  0.10944  0.30502  0.47496  1.0000
  S   S129      1.0  0.14129  0.28221  0.50093  1.0000
  Fe  Fe64      1.0  0.20534  0.46574  0.45605  1.0000
  S   S130      1.0  0.21419  0.43588  0.46743  1.0000
  S   S131      1.0  0.19824  0.49313  0.47199  1.0000
  Fe  Fe65      1.0  0.20241  0.45235  0.41586  1.0000
  S   S132      1.0  0.21126  0.42155  0.42464  1.0000
  S   S133      1.0  0.19750  0.46518  0.38582  1.0000
  Fe  Fe66      1.0  0.19144  0.42635  0.45107  1.0000
  S   S134      1.0  0.16862  0.40800  0.46594  1.0000
  Fe  Fe67      1.0  0.23347  0.43327  0.44031  1.0000
  S   S135      1.0  0.26303  0.41721  0.44321  1.0000
  S   S136      1.0  0.18114  0.45649  0.44127  1.0000
  S   S137      1.0  0.22612  0.46373  0.42982  1.0000
  H   H504      1.0  0.01805  0.28755  0.54580  1.0000
  C   C418      1.0  0.11897  0.49889  0.33577  1.0000
  C   C419      1.0  0.14009  0.37850  0.42247  1.0000
  H   H505      1.0  0.23018  0.45095  0.35550  1.0000
  H   H506      1.0  0.44212  0.27997  0.46556  1.0000
  C   C420      1.0  0.16581  0.34327  0.46324  1.0000
  C   C421      1.0  0.15171  0.35416  0.47407  1.0000
  C   C422      1.0  0.15287  0.37390  0.47484  1.0000
  C   C423      1.0  0.16813  0.38298  0.46486  1.0000
  C   C424      1.0  0.18221  0.37208  0.45401  1.0000
  C   C425      1.0  0.18105  0.35235  0.45324  1.0000
  H   H507      1.0  0.13995  0.34740  0.48192  1.0000
  H   H508      1.0  0.14188  0.38218  0.48325  1.0000
  H   H509      1.0  0.19398  0.37884  0.44620  1.0000
  H   H510      1.0  0.19203  0.34410  0.44479  1.0000
  C   C426      1.0  0.19786  0.26230  0.50093  1.0000
  C   C427      1.0  0.15757  0.44230  0.35828  1.0000
  C   C428      1.0  0.16959  0.44565  0.37225  1.0000
  C   C429      1.0  0.18119  0.46076  0.36936  1.0000
  C   C430      1.0  0.18036  0.47257  0.35250  1.0000
  C   C431      1.0  0.42322  0.32567  0.47118  1.0000
  H   H511      1.0  0.14885  0.43043  0.36056  1.0000
  H   H512      1.0  0.17010  0.43641  0.38510  1.0000
  C   C432      1.0  0.44999  0.46007  0.33403  1.0000
  H   H513      1.0  0.37095  0.48755  0.41593  1.0000
  C   C433      1.0  0.08273  0.27969  0.54648  1.0000
  C   C434      1.0  0.07212  0.28693  0.56257  1.0000
  C   C435      1.0  0.06619  0.27462  0.57812  1.0000
  H   H514      1.0  0.06850  0.30214  0.56301  1.0000
  H   H515      1.0  0.05812  0.28038  0.59045  1.0000
  C   C436      1.0  0.45386  0.30491  0.45181  1.0000
  C   C437      1.0  0.39884  0.49641  0.47600  1.0000
  C   C438      1.0  0.05982  0.27662  0.41597  1.0000
  C   C439      1.0  0.21492  0.49106  0.50654  1.0000
  H   H516      1.0  0.06193  0.29033  0.40863  1.0000
  C   C440      1.0  0.43180  0.43708  0.45283  1.0000
  C   C441      1.0  0.42949  0.45414  0.44155  1.0000
  C   C442      1.0  0.43629  0.47078  0.44704  1.0000
  C   C443      1.0  0.44576  0.47047  0.46364  1.0000
  C   C444      1.0  0.44857  0.45326  0.47460  1.0000
  C   C445      1.0  0.44148  0.43671  0.46929  1.0000
  H   H517      1.0  0.42217  0.45463  0.42881  1.0000
  S   S138      1.0  0.45211  0.49219  0.47105  1.0000
  H   H518      1.0  0.45571  0.45284  0.48746  1.0000
  H   H519      1.0  0.44336  0.42360  0.47812  1.0000
  C   C446      1.0  0.39897  0.32770  0.41554  1.0000
  C   C447      1.0  0.41816  0.32867  0.40844  1.0000
  C   C448      1.0  0.43137  0.31232  0.40959  1.0000
  C   C449      1.0  0.42559  0.29489  0.41794  1.0000
  C   C450      1.0  0.40642  0.29390  0.42508  1.0000
  C   C451      1.0  0.39316  0.31024  0.42383  1.0000
  H   H520      1.0  0.42280  0.34195  0.40188  1.0000
  H   H521      1.0  0.44618  0.31320  0.40402  1.0000
  H   H522      1.0  0.40180  0.28058  0.43158  1.0000
  H   H523      1.0  0.37835  0.30935  0.42939  1.0000
  C   C452      1.0  0.28510  0.42400  0.43176  1.0000
  C   C453      1.0  0.28596  0.43956  0.41837  1.0000
  C   C454      1.0  0.30375  0.44363  0.40871  1.0000
  C   C455      1.0  0.32079  0.43224  0.41239  1.0000
  C   C456      1.0  0.32002  0.41709  0.42623  1.0000
  C   C457      1.0  0.30224  0.41295  0.43579  1.0000
  H   H524      1.0  0.27289  0.44822  0.41520  1.0000
  H   H525      1.0  0.30423  0.45549  0.39813  1.0000
  H   H526      1.0  0.33309  0.40853  0.42949  1.0000
  H   H527      1.0  0.30167  0.40107  0.44633  1.0000
  H   H528      1.0  0.04869  0.27857  0.46683  1.0000
  C   C458      1.0  0.22447  0.44900  0.34221  1.0000
  H   H529      1.0  0.25324  0.41071  0.39656  1.0000
  C   C459      1.0  0.42541  0.30578  0.47371  1.0000
  H   H530      1.0  0.15455  0.49533  0.49992  1.0000
  C   C460      1.0  0.43617  0.33580  0.45854  1.0000
  C   C461      1.0  0.45460  0.27075  0.36499  1.0000
  C   C462      1.0  0.32067  0.34979  0.39148  1.0000
  N   N30       1.0  0.32121  0.36778  0.40067  1.0000
  C   C463      1.0  0.32459  0.36307  0.42089  1.0000
  C   C464      1.0  0.02053  0.27175  0.46147  1.0000
  C   C465      1.0  0.00942  0.26863  0.57872  1.0000
  H   H531      1.0  0.30919  0.34122  0.39840  1.0000
  Fe  Fe68      1.0  0.03146  0.26887  0.65764  1.0000
  H   H532      1.0  0.38419  0.44045  0.44114  1.0000
  C   C466      1.0  0.41386  0.36272  0.44941  1.0000
  C   C467      1.0  0.15678  0.45412  0.34142  1.0000
  H   H533      1.0  0.16065  0.48861  0.40705  1.0000
  H   H534      1.0  0.20872  0.42578  0.35394  1.0000
  H   H535      1.0  0.50160  0.42673  0.62197  1.0000
  H   H536      1.0  0.46236  0.36224  0.44571  1.0000
  C   C468      1.0  0.44067  0.29542  0.46399  1.0000
  C   C469      1.0  0.44746  0.36516  0.44143  1.0000
  S   S139      1.0  0.47257  0.48628  0.52311  1.0000
  C   C470      1.0  0.00741  0.31995  0.34455  1.0000
  H   H537      1.0  0.44467  0.38097  0.43945  1.0000
  C   C471      1.0  0.34587  0.47376  0.44276  1.0000
  H   H538      1.0  0.14740  0.40003  0.40066  1.0000
  H   H539      1.0  0.33730  0.38007  0.37602  1.0000
  H   H540      1.0  0.18937  0.48420  0.35006  1.0000
  C   C472      1.0  0.37724  0.47711  0.45314  1.0000
  C   C473      1.0  0.38814  0.46709  0.46732  1.0000
  H   H541      1.0  0.02347  0.27021  0.58423  1.0000
  C   C474      1.0  0.33804  0.37720  0.39156  1.0000
  C   C475      1.0  0.14081  0.38682  0.40404  1.0000
  H   H542      1.0  0.46935  0.26893  0.35764  1.0000
  N   N31       1.0  0.11498  0.33400  0.41824  1.0000
  C   C476      1.0  0.12946  0.31953  0.42612  1.0000
  C   C477      1.0  0.09861  0.33718  0.43286  1.0000
  C   C478      1.0  0.10759  0.32584  0.40207  1.0000
  C   C479      1.0  0.12374  0.35210  0.41303  1.0000
  C   C480      1.0  0.13171  0.36142  0.42695  1.0000
  H   H543      1.0  0.13386  0.32338  0.43977  1.0000
  H   H544      1.0  0.12380  0.30534  0.42908  1.0000
  H   H545      1.0  0.14271  0.31773  0.41624  1.0000
  H   H546      1.0  0.10323  0.34154  0.44626  1.0000
  H   H547      1.0  0.09131  0.32396  0.43676  1.0000
  H   H548      1.0  0.08768  0.34846  0.42778  1.0000
  H   H549      1.0  0.11933  0.32243  0.39082  1.0000
  H   H550      1.0  0.10118  0.31221  0.40655  1.0000
  H   H551      1.0  0.09600  0.33562  0.39591  1.0000
  H   H552      1.0  0.13161  0.35550  0.44144  1.0000
  C   C481      1.0  0.26779  0.38442  0.40734  1.0000
  H   H553      1.0  0.44312  0.44891  0.34274  1.0000
  H   H554      1.0  0.44882  0.36084  0.47950  1.0000
  C   C482      1.0  0.45171  0.32479  0.44900  1.0000
  C   C483      1.0  0.28540  0.37336  0.40840  1.0000
  C   C484      1.0  0.12466  0.36100  0.39433  1.0000
  H   H555      1.0  0.32386  0.37620  0.42860  1.0000
  H   H556      1.0  0.10806  0.49128  0.34490  1.0000
  H   H557      1.0  0.33904  0.35523  0.42247  1.0000
  C   C485      1.0  0.26679  0.40185  0.39672  1.0000
  H   H558      1.0  0.14613  0.38530  0.43337  1.0000
  C   C486      1.0  0.30269  0.37966  0.39910  1.0000
  C   C487      1.0  0.30112  0.39744  0.38818  1.0000
  H   H559      1.0  0.42324  0.36126  0.48499  1.0000
  C   C488      1.0  0.15950  0.49251  0.51387  1.0000
  C   C489      1.0  0.13310  0.37811  0.39000  1.0000
  H   H560      1.0  0.41113  0.33305  0.47901  1.0000
  C   C490      1.0  0.25805  0.26160  0.46616  1.0000
  H   H561      1.0  0.19066  0.29909  0.49031  1.0000
  C   C491      1.0  0.00417  0.26198  0.46810  1.0000
  H   H562      1.0  0.41131  0.37845  0.44687  1.0000
  H   H563      1.0  0.40754  0.46876  0.48873  1.0000
  H   H564      1.0  0.38981  0.46857  0.41811  1.0000
  N   N32       1.0  0.16540  0.45664  0.51072  1.0000
  C   C492      1.0  0.15315  0.44311  0.52186  1.0000
  C   C493      1.0  0.15785  0.46072  0.49185  1.0000
  C   C494      1.0  0.18516  0.44716  0.50757  1.0000
  C   C495      1.0  0.16578  0.47385  0.52123  1.0000
  S   S140      1.0  0.10674  0.25909  0.48739  1.0000
  C   C496      1.0  0.17285  0.47224  0.53941  1.0000
  C   C497      1.0  0.22334  0.26211  0.47541  1.0000
  H   H565      1.0  0.47297  0.48521  0.60415  1.0000
  H   H566      1.0  0.41668  0.26810  0.36711  1.0000
  H   H567      1.0  0.13833  0.44998  0.52517  1.0000
  H   H568      1.0  0.15202  0.43029  0.51401  1.0000
  H   H569      1.0  0.15895  0.43778  0.53549  1.0000
  H   H570      1.0  0.14276  0.46734  0.49305  1.0000
  H   H571      1.0  0.15798  0.44749  0.48425  1.0000
  H   H572      1.0  0.16686  0.47033  0.48245  1.0000
  H   H573      1.0  0.19170  0.44245  0.52096  1.0000
  H   H574      1.0  0.18542  0.43420  0.49956  1.0000
  H   H575      1.0  0.19478  0.45704  0.49933  1.0000
  C   C498      1.0  0.20510  0.29231  0.48519  1.0000
  H   H576      1.0  0.18371  0.26913  0.50670  1.0000
  H   H577      1.0  0.36074  0.43947  0.43362  1.0000
  H   H578      1.0  0.33751  0.46633  0.43350  1.0000
  H   H579      1.0  0.44642  0.28285  0.35746  1.0000
  C   C499      1.0  0.16814  0.46942  0.33870  1.0000
  H   H580      1.0  0.46543  0.29668  0.44395  1.0000
  H   H581      1.0  0.43311  0.38126  0.47217  1.0000
  H   H582      1.0  0.24088  0.28614  0.47524  1.0000
  C   C500      1.0  0.19016  0.27042  0.46879  1.0000
  H   H583      1.0  0.03623  0.27178  0.39998  1.0000
  H   H584      1.0  0.28538  0.36000  0.41688  1.0000
  H   H585      1.0  0.35177  0.36810  0.39333  1.0000
  H   H586      1.0  0.41509  0.29829  0.48304  1.0000
  H   H587      1.0  0.31399  0.35387  0.42843  1.0000
  C   C501      1.0  0.02448  0.27250  0.54720  1.0000
  H   H588      1.0  0.40203  0.35842  0.45987  1.0000
  H   H589      1.0  0.21496  0.29452  0.49597  1.0000
  C   C502      1.0  0.24055  0.27137  0.47260  1.0000
  H   H590      1.0  0.39410  0.43143  0.33972  1.0000
  H   H591      1.0  0.19505  0.27646  0.45440  1.0000
  N   N33       1.0  0.43323  0.35685  0.45578  1.0000
  C   C503      1.0  0.28337  0.40824  0.38702  1.0000
  H   H592      1.0  0.33992  0.47078  0.45768  1.0000
  H   H593      1.0  0.33455  0.34061  0.39208  1.0000
  C   C504      1.0  0.03620  0.27129  0.47231  1.0000
  C   C505      1.0  0.15332  0.49443  0.39480  1.0000
  C   C506      1.0  0.43465  0.36536  0.47392  1.0000
  H   H594      1.0  0.18686  0.25556  0.46761  1.0000
  H   H595      1.0  0.43396  0.48405  0.43853  1.0000
  C   C507      1.0  0.36886  0.44631  0.44348  1.0000
  H   H596      1.0  0.45592  0.27538  0.37939  1.0000
  H   H597      1.0  0.46221  0.33107  0.43897  1.0000
  Fe  Fe69      1.0  0.47407  0.49548  0.49198  1.0000
  H   H598      1.0  0.03873  0.27297  0.55268  1.0000
  H   H599      1.0  0.04866  0.26034  0.49788  1.0000
  H   H600      1.0  0.17811  0.45860  0.54585  1.0000
  H   H601      1.0  0.22613  0.48973  0.53393  1.0000
  C   C508      1.0  0.50025  0.45407  0.60606  1.0000
  H   H602      1.0  0.20934  0.30046  0.47163  1.0000
  H   H603      1.0  0.42844  0.27263  0.33596  1.0000
  H   H604      1.0  0.12792  0.48034  0.40324  1.0000
  H   H605      1.0  0.44684  0.35966  0.42727  1.0000
  H   H606      1.0  0.42490  0.26052  0.38957  1.0000
  N   N34       1.0  0.20456  0.27176  0.48244  1.0000
  H   H607      1.0  0.33929  0.39088  0.39788  1.0000
  H   H608      1.0  0.31796  0.35272  0.37630  1.0000
  H   H609      1.0  0.31342  0.40369  0.38085  1.0000
  H   H610      1.0  0.38939  0.45175  0.46960  1.0000
  H   H611      1.0  0.02754  0.26695  0.53295  1.0000
  H   H612      1.0  0.11903  0.35503  0.38277  1.0000
  H   H613      1.0  0.22010  0.47651  0.50396  1.0000
  C   C509      1.0  0.04521  0.26614  0.41104  1.0000
  N   N35       1.0  0.36671  0.46739  0.44026  1.0000
  C   C510      1.0  0.37397  0.47220  0.42032  1.0000
  H   H614      1.0  0.34278  0.48926  0.43908  1.0000
  H   H615      1.0  0.48293  0.49158  0.33589  1.0000
  C   C511      1.0  0.17387  0.48829  0.54940  1.0000
  H   H616      1.0  0.36714  0.46433  0.41021  1.0000
  C   C512      1.0  0.07180  0.26939  0.43018  1.0000
  Fe  Fe70      1.0  0.13939  0.25653  0.48465  1.0000
  C   C513      1.0  0.03620  0.26098  0.48983  1.0000
  H   H617      1.0  0.02186  0.27947  0.44775  1.0000
  H   H618      1.0  0.13371  0.38468  0.37567  1.0000
  C   C514      1.0  0.21842  0.49866  0.52355  1.0000
  H   H619      1.0  0.41212  0.35636  0.43598  1.0000
  H   H620      1.0  0.36309  0.44156  0.45803  1.0000
  H   H621      1.0  0.25490  0.37983  0.41532  1.0000
  H   H622      1.0  0.28261  0.42207  0.37922  1.0000
  H   H623      1.0  0.17621  0.27844  0.47319  1.0000
  H   H624      1.0  0.11156  0.49265  0.37537  1.0000
  C   C515      1.0  0.13496  0.48969  0.39253  1.0000
  C   C516      1.0  0.12583  0.49667  0.37640  1.0000
  C   C517      1.0  0.46344  0.46989  0.34139  1.0000
  H   H625      1.0  0.46695  0.46645  0.35586  1.0000
  C   C518      1.0  0.42518  0.25634  0.37477  1.0000
  H   H626      1.0  0.48523  0.45356  0.60418  1.0000
  H   H627      1.0  0.01702  0.30712  0.34690  1.0000
  C   C519      1.0  0.37720  0.49726  0.45138  1.0000
  H   H628      1.0  0.27104  0.26888  0.46412  1.0000
  C   C520      1.0  0.39867  0.47672  0.47856  1.0000
  C   C521      1.0  0.21237  0.43477  0.34128  1.0000
  C   C522      1.0  0.20463  0.50228  0.49309  1.0000
  H   H629      1.0  0.48938  0.50019  0.61196  1.0000
  C   C523      1.0  0.07081  0.25495  0.57766  1.0000
  N   N36       1.0  0.01199  0.26039  0.56003  1.0000
  C   C524      1.0  0.49230  0.47837  0.57083  1.0000
  H   H630      1.0  0.48532  0.49008  0.56173  1.0000
  C   C525      1.0  0.48413  0.49499  0.59922  1.0000
  H   H631      1.0  0.20837  0.26277  0.51159  1.0000
  H   H632      1.0  0.48120  0.46842  0.57521  1.0000
  C   C526      1.0  0.43526  0.25872  0.33273  1.0000
  C   C527      1.0  0.09155  0.30609  0.84362  1.0000
  C   C528      1.0  0.32950  0.30887  0.97640  1.0000
  Fe  Fe71      1.0  0.23534  0.40323  0.96624  1.0000
  C   C529      1.0  0.28258  0.29381  0.96791  1.0000
  S   S141      1.0  0.23028  0.42490  0.94144  1.0000
  S   S142      1.0  0.39019  0.26433  0.98464  1.0000
  C   C530      1.0  0.32456  0.30239  0.99516  1.0000
  Fe  Fe72      1.0  0.22021  0.36523  0.98327  1.0000
  H   H633      1.0  0.02926  0.25293  0.69160  1.0000
  S   S143      1.0  0.24187  0.37281  0.95925  1.0000
  H   H634      1.0  0.00852  0.43673  0.80707  1.0000
  Fe  Fe73      1.0  0.02279  0.36527  0.75490  1.0000
  C   C531      1.0  0.03389  0.34618  0.99619  1.0000
  C   C532      1.0  0.27161  0.31100  0.96361  1.0000
  Fe  Fe74      1.0  0.04799  0.39668  0.76278  1.0000
  S   S144      1.0  0.03530  0.39839  0.79299  1.0000
  S   S145      1.0  0.06497  0.41942  0.74624  1.0000
  Fe  Fe75      1.0  0.03770  0.36628  0.79414  1.0000
  S   S146      1.0  0.04341  0.34393  0.81859  1.0000
  H   H635      1.0  0.02831  0.45586  0.75918  1.0000
  S   S147      1.0  0.05258  0.36435  0.76445  1.0000
  S   S148      1.0  0.01936  0.39727  0.75082  1.0000
  Fe  Fe76      1.0  0.09800  0.31440  0.95958  1.0000
  S   S149      1.0  0.06950  0.32910  0.95196  1.0000
  S   S150      1.0  0.11304  0.33275  0.97748  1.0000
  Fe  Fe77      1.0  0.09340  0.28026  0.93666  1.0000
  S   S151      1.0  0.06480  0.29309  0.92748  1.0000
  Fe  Fe78      1.0  0.07835  0.32069  0.92235  1.0000
  S   S152      1.0  0.07957  0.34342  0.89767  1.0000
  Fe  Fe79      1.0  0.05819  0.30041  0.95809  1.0000
  S   S153      1.0  0.02784  0.29643  0.97221  1.0000
  S   S154      1.0  0.10743  0.30763  0.92972  1.0000
  S   S155      1.0  0.08620  0.28593  0.96758  1.0000
  C   C533      1.0  0.30441  0.33553  0.97907  1.0000
  N   N37       1.0  0.14584  0.47572  0.70784  1.0000
  H   H636      1.0  0.06856  0.32319  0.99652  1.0000
  C   C534      1.0  0.31961  0.32552  0.96848  1.0000
  C   C535      1.0  0.11968  0.45813  0.69751  1.0000
  S   S156      1.0  0.12716  0.47057  0.76914  1.0000
  H   H637      1.0  0.06963  0.26116  0.87526  1.0000
  C   C536      1.0  0.29921  0.32877  0.99767  1.0000
  H   H638      1.0  0.01619  0.45548  0.81930  1.0000
  C   C537      1.0  0.01968  0.33044  0.71920  1.0000
  H   H639      1.0  0.03966  0.43782  0.77453  1.0000
  C   C538      1.0  0.01531  0.30803  0.69568  1.0000
  C   C539      1.0  0.03514  0.30284  0.69357  1.0000
  C   C540      1.0  0.04712  0.31136  0.70449  1.0000
  C   C541      1.0  0.03948  0.32511  0.71721  1.0000
  H   H640      1.0  0.30394  0.25887  0.96027  1.0000
  C   C542      1.0  0.13295  0.49297  0.71235  1.0000
  H   H641      1.0  0.06248  0.30743  0.70298  1.0000
  H   H642      1.0  0.04890  0.33164  0.72538  1.0000
  C   C543      1.0  0.08025  0.43445  0.75501  1.0000
  C   C544      1.0  0.08139  0.45295  0.74640  1.0000
  C   C545      1.0  0.09506  0.46455  0.75125  1.0000
  C   C546      1.0  0.10811  0.45751  0.76438  1.0000
  C   C547      1.0  0.10668  0.43917  0.77330  1.0000
  C   C548      1.0  0.09264  0.42777  0.76883  1.0000
  H   H643      1.0  0.07199  0.45816  0.73556  1.0000
  H   H644      1.0  0.09594  0.47861  0.74429  1.0000
  H   H645      1.0  0.11672  0.43361  0.78347  1.0000
  H   H646      1.0  0.09208  0.41347  0.77538  1.0000
  C   C549      1.0  0.05186  0.34534  0.84118  1.0000
  C   C550      1.0  0.06294  0.35973  0.84491  1.0000
  C   C551      1.0  0.07107  0.35908  0.86238  1.0000
  C   C552      1.0  0.06806  0.34419  0.87637  1.0000
  C   C553      1.0  0.05658  0.33007  0.87284  1.0000
  C   C554      1.0  0.04869  0.33058  0.85529  1.0000
  H   H647      1.0  0.06564  0.37108  0.83415  1.0000
  H   H648      1.0  0.07987  0.37012  0.86496  1.0000
  H   H649      1.0  0.05387  0.31873  0.88355  1.0000
  H   H650      1.0  0.04023  0.31933  0.85250  1.0000
  C   C555      1.0  0.24270  0.44561  0.93704  1.0000
  C   C556      1.0  0.25578  0.45017  0.94922  1.0000
  C   C557      1.0  0.26684  0.46564  0.94425  1.0000
  C   C558      1.0  0.26457  0.47699  0.92732  1.0000
  C   C559      1.0  0.25094  0.47291  0.91551  1.0000
  C   C560      1.0  0.24016  0.45721  0.92031  1.0000
  H   H651      1.0  0.25766  0.44156  0.96230  1.0000
  H   H652      1.0  0.27734  0.46873  0.95347  1.0000
  H   H653      1.0  0.24911  0.48151  0.90241  1.0000
  H   H654      1.0  0.23002  0.45386  0.91082  1.0000
  C   C561      1.0  0.17790  0.33956  0.97646  1.0000
  C   C562      1.0  0.17164  0.32416  0.96813  1.0000
  C   C563      1.0  0.15188  0.32211  0.96792  1.0000
  C   C564      1.0  0.13811  0.33527  0.97638  1.0000
  C   C565      1.0  0.14433  0.35079  0.98454  1.0000
  H   H655      1.0  0.05949  0.45081  0.79183  1.0000
  H   H656      1.0  0.09811  0.31567  0.85155  1.0000
  H   H657      1.0  0.14735  0.31007  0.96165  1.0000
  H   H658      1.0  0.18218  0.31367  0.96190  1.0000
  H   H659      1.0  0.07539  0.26212  0.84357  1.0000
  S   S157      1.0  0.04562  0.28541  0.67800  1.0000
  C   C566      1.0  0.08775  0.28738  0.85088  1.0000
  H   H660      1.0  0.06441  0.28486  0.88287  1.0000
  C   C567      1.0  0.07856  0.27651  0.83912  1.0000
  H   H661      1.0  0.14670  0.44392  0.73465  1.0000
  H   H662      1.0  0.34107  0.30121  0.96809  1.0000
  C   C568      1.0  0.45571  0.26525  0.90723  1.0000
  C   C569      1.0  0.46763  0.25800  0.92131  1.0000
  S   S158      1.0  0.20305  0.34101  0.97666  1.0000
  Fe  Fe80      1.0  0.26357  0.37042  0.98064  1.0000
  C   C570      1.0  0.41265  0.30246  0.99691  1.0000
  H   H663      1.0  0.00591  0.30158  0.68742  1.0000
  N   N38       1.0  0.09311  0.27914  0.86967  1.0000
  S   S159      1.0  0.25858  0.40170  0.98598  1.0000
  H   H664      1.0  0.27738  0.32152  0.95325  1.0000
  C   C571      1.0  0.24622  0.30195  0.98680  1.0000
  H   H665      1.0  0.12160  0.49632  0.70239  1.0000
  C   C572      1.0  0.08608  0.31343  0.82589  1.0000
  H   H666      1.0  0.39692  0.31898  0.95429  1.0000
  C   C573      1.0  0.13657  0.44409  0.72414  1.0000
  C   C574      1.0  0.00766  0.32176  0.70842  1.0000
  H   H667      1.0  0.29666  0.29188  0.96034  1.0000
  C   C575      1.0  0.01401  0.34658  0.99555  1.0000
  H   H668      1.0  0.16382  0.46542  0.68383  1.0000
  S   S160      1.0  0.21189  0.39601  0.98868  1.0000
  H   H669      1.0  0.16869  0.36497  0.99085  1.0000
  H   H670      1.0  0.08835  0.32801  0.82091  1.0000
  C   C576      1.0  0.39651  0.31534  0.96942  1.0000
  N   N39       1.0  0.29073  0.39993  0.92156  1.0000
  C   C577      1.0  0.28693  0.40346  0.94188  1.0000
  C   C578      1.0  0.27210  0.40150  0.91301  1.0000
  C   C579      1.0  0.29938  0.37993  0.92042  1.0000
  C   C580      1.0  0.30307  0.41426  0.91203  1.0000
  C   C581      1.0  0.29628  0.43389  0.91111  1.0000
  C   C582      1.0  0.32214  0.40942  0.90396  1.0000
  C   C583      1.0  0.30771  0.44779  0.90259  1.0000
  C   C584      1.0  0.33347  0.42347  0.89541  1.0000
  C   C585      1.0  0.32626  0.44261  0.89473  1.0000
  H   H671      1.0  0.30052  0.40278  0.94888  1.0000
  H   H672      1.0  0.27897  0.41759  0.94411  1.0000
  H   H673      1.0  0.27804  0.39273  0.94963  1.0000
  H   H674      1.0  0.26364  0.41549  0.91491  1.0000
  H   H675      1.0  0.26257  0.39072  0.91972  1.0000
  H   H676      1.0  0.27431  0.39967  0.89754  1.0000
  H   H677      1.0  0.28947  0.36961  0.92745  1.0000
  H   H678      1.0  0.30268  0.37622  0.90547  1.0000
  H   H679      1.0  0.31266  0.37724  0.92801  1.0000
  H   H680      1.0  0.28209  0.43872  0.91717  1.0000
  H   H681      1.0  0.32867  0.39492  0.90418  1.0000
  H   H682      1.0  0.30214  0.46273  0.90224  1.0000
  H   H683      1.0  0.34798  0.41954  0.88937  1.0000
  H   H684      1.0  0.33508  0.45350  0.88823  1.0000
  N   N40       1.0  0.12768  0.36863  0.91718  1.0000
  C   C586      1.0  0.11811  0.35818  0.93379  1.0000
  C   C587      1.0  0.11299  0.38301  0.90937  1.0000
  C   C588      1.0  0.13398  0.35504  0.90245  1.0000
  C   C589      1.0  0.14463  0.37695  0.92284  1.0000
  C   C590      1.0  0.14703  0.39676  0.92007  1.0000
  C   C591      1.0  0.15953  0.36508  0.93128  1.0000
  C   C592      1.0  0.16329  0.40406  0.92558  1.0000
  C   C593      1.0  0.17572  0.37255  0.93664  1.0000
  C   C594      1.0  0.17758  0.39200  0.93387  1.0000
  H   H685      1.0  0.11475  0.36731  0.94595  1.0000
  H   H686      1.0  0.10441  0.35303  0.93047  1.0000
  H   H687      1.0  0.12715  0.34530  0.93881  1.0000
  H   H688      1.0  0.10728  0.39345  0.91992  1.0000
  H   H689      1.0  0.10037  0.37625  0.90545  1.0000
  H   H690      1.0  0.11886  0.39077  0.89619  1.0000
  H   H691      1.0  0.14382  0.34286  0.90773  1.0000
  H   H692      1.0  0.12152  0.34880  0.89756  1.0000
  H   H693      1.0  0.14169  0.36221  0.88987  1.0000
  H   H694      1.0  0.13659  0.40696  0.91374  1.0000
  H   H695      1.0  0.15875  0.34991  0.93392  1.0000
  H   H696      1.0  0.16488  0.41921  0.92345  1.0000
  H   H697      1.0  0.18690  0.36323  0.94315  1.0000
  H   H698      1.0  0.19012  0.39774  0.93820  1.0000
  C   C595      1.0  0.07293  0.28411  0.82152  1.0000
  H   H699      1.0  0.42648  0.26994  0.89945  1.0000
  Fe  Fe81      1.0  0.35895  0.26041  0.99184  1.0000
  C   C596      1.0  0.03816  0.25429  0.72646  1.0000
  S   S161      1.0  0.00916  0.34782  0.73482  1.0000
  C   C597      1.0  0.30568  0.25888  0.97565  1.0000
  C   C598      1.0  0.07657  0.30259  0.81499  1.0000
  H   H700      1.0  0.00821  0.34396  0.98250  1.0000
  C   C599      1.0  0.01971  0.44687  0.80678  1.0000
  H   H701      1.0  0.00346  0.26259  0.71685  1.0000
  C   C600      1.0  0.01662  0.29880  0.99565  1.0000
  N   N41       1.0  0.02070  0.45924  0.78892  1.0000
  C   C601      1.0  0.05486  0.46589  0.79138  1.0000
  C   C602      1.0  0.25351  0.31506  0.97304  1.0000
  H   H702      1.0  0.12636  0.41809  0.73746  1.0000
  H   H703      1.0  0.11673  0.46930  0.68662  1.0000
  H   H704      1.0  0.09136  0.30550  0.88330  1.0000
  C   C603      1.0  0.41316  0.30763  0.97747  1.0000
  H   H705      1.0  0.15561  0.47340  0.73591  1.0000
  H   H706      1.0  0.13384  0.36111  0.99107  1.0000
  S   S162      1.0  0.28002  0.49511  0.92067  1.0000
  H   H707      1.0  0.46187  0.27152  0.89395  1.0000
  C   C604      1.0  0.10804  0.44306  0.69956  1.0000
  H   H708      1.0  0.32368  0.33062  0.95406  1.0000
  H   H709      1.0  0.01497  0.43735  0.77125  1.0000
  S   S163      1.0  0.29243  0.35641  0.96854  1.0000
  H   H710      1.0  0.07935  0.26721  0.89582  1.0000
  C   C605      1.0  0.11063  0.42856  0.71378  1.0000
  H   H711      1.0  0.12560  0.49102  0.72685  1.0000
  C   C606      1.0  0.13438  0.45910  0.70971  1.0000
  C   C607      1.0  0.12489  0.42905  0.72598  1.0000
  C   C608      1.0  0.16411  0.35303  0.98444  1.0000
  H   H712      1.0  0.06540  0.27581  0.81301  1.0000
  H   H713      1.0  0.48779  0.49282  0.81426  1.0000
  H   H714      1.0  0.02654  0.25472  0.98813  1.0000
  N   N42       1.0  0.28683  0.26179  0.98703  1.0000
  H   H715      1.0  0.10116  0.41722  0.71577  1.0000
  C   C609      1.0  0.03533  0.47279  0.78962  1.0000
  H   H716      1.0  0.42645  0.30520  0.96849  1.0000
  C   C610      1.0  0.27558  0.28007  0.98189  1.0000
  H   H717      1.0  0.01635  0.49954  0.78787  1.0000
  C   C611      1.0  0.25706  0.28471  0.99126  1.0000
  S   S164      1.0  0.00818  0.36561  0.78447  1.0000
  C   C612      1.0  0.16147  0.47392  0.72075  1.0000
  H   H718      1.0  0.36628  0.32375  0.97443  1.0000
  C   C613      1.0  0.43565  0.26442  0.91040  1.0000
  H   H719      1.0  0.04280  0.34321  0.98333  1.0000
  H   H720      1.0  0.09662  0.44279  0.69038  1.0000
  H   H721      1.0  0.10526  0.28619  0.89469  1.0000
  H   H722      1.0  0.07160  0.30879  0.80167  1.0000
  C   C614      1.0  0.03076  0.49290  0.78909  1.0000
  H   H723      1.0  0.31518  0.27003  0.97773  1.0000
  C   C615      1.0  0.15488  0.47854  0.68818  1.0000
  C   C616      1.0  0.06888  0.47829  0.79266  1.0000
  H   H724      1.0  0.08369  0.47272  0.79410  1.0000
  H   H725      1.0  0.03500  0.26872  0.71923  1.0000
  H   H726      1.0  0.07040  0.35599  0.98401  1.0000
  C   C617      1.0  0.07588  0.27284  0.88133  1.0000
  C   C618      1.0  0.37926  0.31794  0.98076  1.0000
  C   C619      1.0  0.10160  0.29272  0.88058  1.0000
  H   H727      1.0  0.11521  0.29737  0.87319  1.0000
  H   H728      1.0  0.24517  0.32851  0.96982  1.0000
  Fe  Fe82      1.0  0.00697  0.39746  0.78089  1.0000
  H   H729      1.0  0.26663  0.50135  0.98795  1.0000
  H   H730      1.0  0.16428  0.49046  0.68664  1.0000
  H   H731      1.0  0.03347  0.43799  0.80881  1.0000
  C   C620      1.0  0.02613  0.44711  0.77280  1.0000
  H   H732      1.0  0.17153  0.46095  0.71839  1.0000
  H   H733      1.0  0.23212  0.30537  0.99412  1.0000
  H   H734      1.0  0.17015  0.48638  0.71865  1.0000
  H   H735      1.0  0.12039  0.26641  0.85800  1.0000
  C   C621      1.0  0.10745  0.26240  0.86718  1.0000
  H   H736      1.0  0.11232  0.25619  0.88101  1.0000
  C   C622      1.0  0.42735  0.25662  0.92773  1.0000
  S   S165      1.0  0.40215  0.25543  0.93117  1.0000
  H   H737      1.0  0.14413  0.48240  0.67769  1.0000
  S   S166      1.0  0.49305  0.25723  0.91793  1.0000
  C   C623      1.0  0.06396  0.49787  0.79205  1.0000
  S   S167      1.0  0.10954  0.25493  0.92194  1.0000
  Fe  Fe83      1.0  0.12685  0.50275  0.76407  1.0000
  H   H738      1.0  0.03524  0.25582  0.74195  1.0000
  C   C624      1.0  0.07168  0.36051  0.99840  1.0000
  H   H739      1.0  0.08742  0.36091  0.99918  1.0000
  H   H740      1.0  0.06467  0.37530  0.99922  1.0000
  C   C625      1.0  0.11833  0.74730  0.07068  1.0000
  H   H741      1.0  0.29105  0.52921  0.15253  1.0000
  S   S168      1.0  0.33897  0.73172  0.02369  1.0000
  H   H742      1.0  0.02076  0.56469  0.21639  1.0000
  H   H743      1.0  0.03409  0.57064  0.27287  1.0000
  H   H744      1.0  0.04871  0.67470  0.30306  1.0000
  C   C626      1.0  0.45796  0.74576  0.10420  1.0000
  S   S169      1.0  0.27890  0.53115  0.11229  1.0000
  Fe  Fe84      1.0  0.04637  0.62571  0.24986  1.0000
  S   S170      1.0  0.02938  0.63152  0.22458  1.0000
  S   S171      1.0  0.07324  0.60599  0.24257  1.0000
  Fe  Fe85      1.0  0.01883  0.65337  0.27311  1.0000
  H   H745      1.0  0.29397  0.70273  0.07330  1.0000
  C   C627      1.0  0.00830  0.69743  0.32437  1.0000
  Fe  Fe86      1.0  0.02725  0.66229  0.23050  1.0000
  S   S172      1.0  0.03514  0.68786  0.21067  1.0000
  S   S173      1.0  0.02057  0.62139  0.27059  1.0000
  S   S174      1.0  0.04619  0.65684  0.25452  1.0000
  H   H746      1.0  0.15083  0.51653  0.32541  1.0000
  S   S175      1.0  0.26742  0.62668  0.03255  1.0000
  Fe  Fe87      1.0  0.21739  0.65559  0.02768  1.0000
  S   S176      1.0  0.22962  0.64843  0.05568  1.0000
  S   S177      1.0  0.18753  0.67004  0.02217  1.0000
  Fe  Fe88      1.0  0.25775  0.65680  0.04027  1.0000
  S   S178      1.0  0.27560  0.67522  0.05562  1.0000
  Fe  Fe89      1.0  0.23849  0.61911  0.04550  1.0000
  S   S179      1.0  0.22997  0.59050  0.05915  1.0000
  S   S180      1.0  0.24488  0.66562  0.01273  1.0000
  S   S181      1.0  0.22434  0.62583  0.01843  1.0000
  N   N43       1.0  0.05846  0.51396  0.24489  1.0000
  S   S182      1.0  0.07340  0.72424  0.09956  1.0000
  Fe  Fe90      1.0  0.04875  0.71686  0.05369  1.0000
  S   S183      1.0  0.05894  0.69232  0.07393  1.0000
  S   S184      1.0  0.03718  0.71438  0.02477  1.0000
  Fe  Fe91      1.0  0.04624  0.71083  0.09727  1.0000
  S   S185      1.0  0.02695  0.69841  0.12185  1.0000
  Fe  Fe92      1.0  0.08561  0.70730  0.07487  1.0000
  S   S186      1.0  0.11525  0.69263  0.08036  1.0000
  S   S187      1.0  0.03434  0.73431  0.07704  1.0000
  S   S188      1.0  0.07676  0.73043  0.05294  1.0000
  S   S189      1.0  0.09792  0.53133  0.29399  1.0000
  C   C628      1.0  0.11558  0.64669  0.05629  1.0000
  H   H747      1.0  0.34719  0.50490  0.21002  1.0000
  H   H748      1.0  0.04692  0.72004  0.28499  1.0000
  H   H749      1.0  0.33631  0.66250  0.02770  1.0000
  C   C629      1.0  0.16773  0.67671  0.03860  1.0000
  C   C630      1.0  0.16938  0.67598  0.05809  1.0000
  C   C631      1.0  0.15319  0.68107  0.07061  1.0000
  C   C632      1.0  0.13527  0.68723  0.06381  1.0000
  C   C633      1.0  0.13370  0.68843  0.04430  1.0000
  C   C634      1.0  0.14987  0.68316  0.03178  1.0000
  H   H750      1.0  0.18313  0.67159  0.06353  1.0000
  H   H751      1.0  0.15457  0.68023  0.08568  1.0000
  H   H752      1.0  0.11999  0.69304  0.03886  1.0000
  H   H753      1.0  0.14849  0.68390  0.01671  1.0000
  C   C635      1.0  0.07932  0.58500  0.25686  1.0000
  C   C636      1.0  0.07214  0.58277  0.27586  1.0000
  C   C637      1.0  0.07800  0.56627  0.28708  1.0000
  C   C638      1.0  0.09089  0.55179  0.27935  1.0000
  C   C639      1.0  0.09783  0.55386  0.26027  1.0000
  C   C640      1.0  0.09217  0.57048  0.24912  1.0000
  H   H754      1.0  0.06236  0.59393  0.28201  1.0000
  H   H755      1.0  0.07256  0.56479  0.30183  1.0000
  H   H756      1.0  0.10789  0.54289  0.25419  1.0000
  H   H757      1.0  0.09790  0.57216  0.23447  1.0000
  C   C641      1.0  0.03367  0.68969  0.18581  1.0000
  C   C642      1.0  0.02096  0.67966  0.17748  1.0000
  C   C643      1.0  0.01922  0.68244  0.15786  1.0000
  C   C644      1.0  0.03051  0.69485  0.14628  1.0000
  C   C645      1.0  0.04376  0.70437  0.15451  1.0000
  C   C646      1.0  0.04513  0.70198  0.17423  1.0000
  H   H758      1.0  0.11860  0.64635  0.02601  1.0000
  C   C647      1.0  0.46225  0.74631  0.04777  1.0000
  H   H759      1.0  0.05272  0.71374  0.14574  1.0000
  H   H760      1.0  0.05511  0.70970  0.18054  1.0000
  H   H761      1.0  0.26817  0.52361  0.01194  1.0000
  H   H762      1.0  0.33676  0.54423  0.13166  1.0000
  H   H763      1.0  0.28187  0.58641  0.01049  1.0000
  H   H764      1.0  0.49108  0.60884  0.20424  1.0000
  C   C648      1.0  0.26531  0.54716  0.09703  1.0000
  C   C649      1.0  0.27219  0.56479  0.09077  1.0000
  C   C650      1.0  0.26167  0.57815  0.07901  1.0000
  C   C651      1.0  0.24406  0.57402  0.07350  1.0000
  C   C652      1.0  0.23727  0.55631  0.07957  1.0000
  C   C653      1.0  0.24785  0.54291  0.09125  1.0000
  H   H765      1.0  0.28569  0.56821  0.09516  1.0000
  H   H766      1.0  0.26706  0.59172  0.07444  1.0000
  H   H767      1.0  0.22369  0.55296  0.07534  1.0000
  H   H768      1.0  0.24240  0.52940  0.09595  1.0000
  C   C654      1.0  0.32042  0.71708  0.03281  1.0000
  C   C655      1.0  0.31317  0.71616  0.05187  1.0000
  C   C656      1.0  0.29922  0.70356  0.05848  1.0000
  C   C657      1.0  0.29209  0.69190  0.04614  1.0000
  C   C658      1.0  0.29902  0.69316  0.02700  1.0000
  C   C659      1.0  0.31315  0.70558  0.02044  1.0000
  H   H769      1.0  0.31831  0.72505  0.06157  1.0000
  C   C660      1.0  0.32367  0.54392  0.14174  1.0000
  H   H770      1.0  0.29376  0.68428  0.01733  1.0000
  C   C661      1.0  0.12512  0.64175  0.03903  1.0000
  C   C662      1.0  0.32979  0.66472  0.07531  1.0000
  C   C663      1.0  0.44455  0.73831  0.09394  1.0000
  H   H771      1.0  0.46888  0.73630  0.11080  1.0000
  H   H772      1.0  0.44536  0.72312  0.09262  1.0000
  H   H773      1.0  0.31216  0.51396  0.12763  1.0000
  H   H774      1.0  0.39682  0.69415  0.08084  1.0000
  C   C664      1.0  0.03972  0.68444  0.31189  1.0000
  C   C665      1.0  0.34995  0.50971  0.19523  1.0000
  C   C666      1.0  0.49117  0.50987  0.20767  1.0000
  H   H775      1.0  0.28094  0.54622  0.02689  1.0000
  H   H776      1.0  0.00985  0.72335  0.23434  1.0000
  H   H777      1.0  0.20312  0.73512  0.04570  1.0000
  C   C667      1.0  0.33462  0.51453  0.18403  1.0000
  H   H778      1.0  0.36095  0.52395  0.14193  1.0000
  H   H779      1.0  0.04741  0.75078  0.13880  1.0000
  H   H780      1.0  0.07685  0.51678  0.26689  1.0000
  H   H781      1.0  0.31130  0.54816  0.13303  1.0000
  C   C668      1.0  0.35732  0.52047  0.15682  1.0000
  H   H782      1.0  0.38071  0.50568  0.19586  1.0000
  S   S190      1.0  0.38769  0.74849  0.02749  1.0000
  C   C669      1.0  0.03503  0.56212  0.26074  1.0000
  C   C670      1.0  0.01970  0.68476  0.31262  1.0000
  H   H783      1.0  0.03084  0.69650  0.27430  1.0000
  H   H784      1.0  0.39507  0.70980  0.05044  1.0000
  H   H785      1.0  0.02612  0.73943  0.24038  1.0000
  C   C671      1.0  0.32324  0.51046  0.13785  1.0000
  C   C672      1.0  0.01912  0.73491  0.27801  1.0000
  H   H786      1.0  0.35405  0.71066  0.08675  1.0000
  C   C673      1.0  0.17425  0.72843  0.04375  1.0000
  H   H787      1.0  0.36160  0.68242  0.03121  1.0000
  Fe  Fe93      1.0  0.25258  0.63497  0.00598  1.0000
  H   H788      1.0  0.01200  0.67021  0.18622  1.0000
  Fe  Fe94      1.0  0.06279  0.74632  0.07759  1.0000
  H   H789      1.0  0.11701  0.64612  0.08628  1.0000
  H   H790      1.0  0.32007  0.66025  0.08726  1.0000
  N   N44       1.0  0.17174  0.61511  0.05513  1.0000
  C   C674      1.0  0.17964  0.60918  0.03613  1.0000
  C   C675      1.0  0.18540  0.62720  0.06174  1.0000
  C   C676      1.0  0.17106  0.59757  0.06806  1.0000
  C   C677      1.0  0.15243  0.62580  0.05522  1.0000
  C   C678      1.0  0.14332  0.63156  0.03838  1.0000
  C   C679      1.0  0.14234  0.63126  0.07254  1.0000
  H   H791      1.0  0.12511  0.74820  0.08406  1.0000
  C   C680      1.0  0.12420  0.64152  0.07300  1.0000
  H   H792      1.0  0.18731  0.63985  0.05169  1.0000
  H   H793      1.0  0.19398  0.60083  0.03667  1.0000
  H   H794      1.0  0.17003  0.60004  0.03024  1.0000
  H   H795      1.0  0.18192  0.62175  0.02594  1.0000
  H   H796      1.0  0.19986  0.61937  0.06281  1.0000
  H   H797      1.0  0.18062  0.63244  0.07589  1.0000
  H   H798      1.0  0.11823  0.74183  0.03433  1.0000
  H   H799      1.0  0.16009  0.58858  0.06428  1.0000
  H   H800      1.0  0.18523  0.58876  0.06745  1.0000
  H   H801      1.0  0.16772  0.60073  0.08312  1.0000
  H   H802      1.0  0.15009  0.62876  0.02446  1.0000
  H   H803      1.0  0.14863  0.62806  0.08582  1.0000
  H   H804      1.0  0.06365  0.69586  0.32247  1.0000
  C   C681      1.0  0.24617  0.57695  0.00847  1.0000
  H   H805      1.0  0.13001  0.53003  0.31704  1.0000
  N   N45       1.0  0.08230  0.63866  0.18663  1.0000
  C   C682      1.0  0.07279  0.62090  0.18635  1.0000
  C   C683      1.0  0.10059  0.63352  0.19556  1.0000
  C   C684      1.0  0.06996  0.65176  0.19896  1.0000
  C   C685      1.0  0.08487  0.64787  0.16719  1.0000
  C   C686      1.0  0.06868  0.65342  0.15678  1.0000
  C   C687      1.0  0.10316  0.65187  0.15813  1.0000
  C   C688      1.0  0.07068  0.66221  0.13845  1.0000
  C   C689      1.0  0.10495  0.66084  0.13983  1.0000
  C   C690      1.0  0.08876  0.66600  0.13002  1.0000
  H   H806      1.0  0.08124  0.61089  0.17668  1.0000
  H   H807      1.0  0.07115  0.61335  0.20073  1.0000
  H   H808      1.0  0.05805  0.62366  0.18167  1.0000
  H   H809      1.0  0.09804  0.62645  0.21009  1.0000
  H   H810      1.0  0.10803  0.64636  0.19722  1.0000
  H   H811      1.0  0.11046  0.62328  0.18727  1.0000
  H   H812      1.0  0.05504  0.65424  0.19475  1.0000
  H   H813      1.0  0.06879  0.64602  0.21405  1.0000
  H   H814      1.0  0.07563  0.66596  0.19842  1.0000
  H   H815      1.0  0.05426  0.65123  0.16281  1.0000
  H   H816      1.0  0.11630  0.64837  0.16491  1.0000
  H   H817      1.0  0.05808  0.66635  0.13078  1.0000
  H   H818      1.0  0.11896  0.66398  0.13319  1.0000
  H   H819      1.0  0.09020  0.67308  0.11589  1.0000
  N   N46       1.0  0.37178  0.69525  0.06523  1.0000
  C   C691      1.0  0.38485  0.68545  0.07891  1.0000
  C   C692      1.0  0.38382  0.70058  0.04764  1.0000
  C   C693      1.0  0.36268  0.71315  0.07301  1.0000
  C   C694      1.0  0.35669  0.68288  0.06222  1.0000
  C   C695      1.0  0.35349  0.67749  0.04402  1.0000
  C   C696      1.0  0.34435  0.67613  0.07780  1.0000
  N   N47       1.0  0.01443  0.72206  0.26402  1.0000
  H   H820      1.0  0.24639  0.58728  0.01944  1.0000
  S   S191      1.0  0.00819  0.66959  0.29937  1.0000
  H   H821      1.0  0.39132  0.67146  0.07399  1.0000
  H   H822      1.0  0.07036  0.51824  0.21578  1.0000
  H   H823      1.0  0.37736  0.68281  0.09323  1.0000
  H   H824      1.0  0.39141  0.68780  0.04110  1.0000
  C   C697      1.0  0.13755  0.52562  0.33001  1.0000
  H   H825      1.0  0.37499  0.70893  0.03705  1.0000
  H   H826      1.0  0.11971  0.73199  0.06769  1.0000
  H   H827      1.0  0.37366  0.72277  0.07555  1.0000
  H   H828      1.0  0.35286  0.72099  0.06303  1.0000
  C   C698      1.0  0.49016  0.63448  0.17309  1.0000
  H   H829      1.0  0.34557  0.67999  0.09199  1.0000
  C   C699      1.0  0.03630  0.73196  0.28738  1.0000
  H   H830      1.0  0.32396  0.55509  0.15185  1.0000
  C   C700      1.0  0.48600  0.65306  0.16526  1.0000
  N   N48       1.0  0.32204  0.52493  0.15196  1.0000
  H   H831      1.0  0.05470  0.50643  0.27498  1.0000
  C   C701      1.0  0.02613  0.56941  0.24469  1.0000
  C   C702      1.0  0.04733  0.53293  0.24517  1.0000
  H   H832      1.0  0.01822  0.58343  0.24446  1.0000
  C   C703      1.0  0.02916  0.70569  0.26101  1.0000
  Fe  Fe95      1.0  0.11500  0.50531  0.28194  1.0000
  S   S192      1.0  0.41352  0.74043  0.07255  1.0000
  H   H833      1.0  0.03426  0.74105  0.12230  1.0000
  H   H834      1.0  0.23336  0.56891  0.01224  1.0000
  H   H835      1.0  0.31538  0.65134  0.05535  1.0000
  H   H836      1.0  0.33737  0.50911  0.12936  1.0000
  H   H837      1.0  0.05242  0.53970  0.27384  1.0000
  H   H838      1.0  0.00546  0.75087  0.14140  1.0000
  N   N49       1.0  0.26412  0.56390  0.00710  1.0000
  C   C704      1.0  0.48063  0.74213  0.05399  1.0000
  H   H839      1.0  0.38729  0.51506  0.16193  1.0000
  H   H840      1.0  0.26783  0.56670  0.03657  1.0000
  H   H841      1.0  0.02512  0.69631  0.25050  1.0000
  C   C705      1.0  0.33786  0.52021  0.16442  1.0000
  C   C706      1.0  0.02762  0.55880  0.22887  1.0000
  C   C707      1.0  0.33896  0.66596  0.04174  1.0000
  C   C708      1.0  0.36885  0.51019  0.18731  1.0000
  C   C709      1.0  0.32714  0.65961  0.05732  1.0000
  H   H842      1.0  0.49877  0.53529  0.19091  1.0000
  C   C710      1.0  0.01385  0.71399  0.01654  1.0000
  H   H843      1.0  0.17881  0.71436  0.03890  1.0000
  H   H844      1.0  0.48492  0.72732  0.05768  1.0000
  H   H845      1.0  0.30062  0.53597  0.17319  1.0000
  H   H846      1.0  0.04338  0.71043  0.25540  1.0000
  C   C711      1.0  0.50159  0.52600  0.20336  1.0000
  H   H847      1.0  0.10176  0.65515  0.05666  1.0000
  C   C712      1.0  0.15468  0.73470  0.04623  1.0000
  H   H848      1.0  0.45604  0.51178  0.27972  1.0000
  C   C713      1.0  0.00616  0.75095  0.28279  1.0000
  C   C714      1.0  0.03810  0.54085  0.22902  1.0000
  C   C715      1.0  0.04816  0.69642  0.32299  1.0000
  H   H849      1.0  0.25509  0.54710  0.03250  1.0000
  H   H850      1.0  0.47840  0.62743  0.18049  1.0000
  C   C716      1.0  0.30258  0.52534  0.16230  1.0000
  C   C717      1.0  0.07497  0.51469  0.23024  1.0000
  C   C718      1.0  0.04555  0.54420  0.26107  1.0000
  H   H851      1.0  0.31857  0.70614  0.00566  1.0000
  C   C719      1.0  0.06629  0.50731  0.26321  1.0000
  C   C720      1.0  0.26715  0.55549  0.02655  1.0000
  H   H852      1.0  0.48051  0.50691  0.19858  1.0000
  H   H853      1.0  0.45306  0.73500  0.04708  1.0000
  H   H854      1.0  0.03912  0.53331  0.21629  1.0000
  C   C721      1.0  0.04004  0.74423  0.30077  1.0000
  H   H855      1.0  0.00894  0.67502  0.15161  1.0000
  H   H856      1.0  0.32041  0.51316  0.19099  1.0000
  C   C722      1.0  0.37253  0.51550  0.16814  1.0000
  H   H857      1.0  0.48710  0.59558  0.17425  1.0000
  C   C723      1.0  0.18797  0.74012  0.04757  1.0000
  H   H858      1.0  0.14463  0.72493  0.04345  1.0000
  H   H859      1.0  0.05299  0.74145  0.30814  1.0000
  H   H860      1.0  0.08452  0.52559  0.23309  1.0000
  C   C724      1.0  0.43008  0.75037  0.08544  1.0000
  H   H861      1.0  0.29979  0.51108  0.16926  1.0000
  H   H862      1.0  0.47151  0.66002  0.16698  1.0000
  C   C725      1.0  0.01263  0.73282  0.24539  1.0000
  H   H863      1.0  0.11227  0.50352  0.32241  1.0000
  C   C726      1.0  0.28046  0.57527  0.00062  1.0000
  Fe  Fe96      1.0  0.00341  0.62870  0.24545  1.0000
  H   H864      1.0  0.49749  0.67763  0.15019  1.0000
  H   H865      1.0  0.10268  0.75173  0.07338  1.0000
  C   C727      1.0  0.50056  0.66296  0.15563  1.0000
  Fe  Fe97      1.0  0.39790  0.60967  0.59666  1.0000
  S   S193      1.0  0.36941  0.62756  0.59761  1.0000
  S   S194      1.0  0.40927  0.60069  0.56736  1.0000
  Fe  Fe98      1.0  0.40066  0.61145  0.63924  1.0000
  S   S195      1.0  0.37218  0.62903  0.64329  1.0000
  C   C728      1.0  0.16255  0.50631  0.38107  1.0000
  Fe  Fe99      1.0  0.36156  0.60940  0.62388  1.0000
  S   S196      1.0  0.33390  0.59481  0.63009  1.0000
  Fe  Fe100     1.0  0.38253  0.64570  0.61653  1.0000
  S   S197      1.0  0.37693  0.67800  0.61284  1.0000
  S   S198      1.0  0.38942  0.59035  0.62196  1.0000
  S   S199      1.0  0.41160  0.62933  0.61346  1.0000
  S   S200      1.0  0.48105  0.52544  0.49594  1.0000
  Fe  Fe101     1.0  0.48138  0.51541  0.52687  1.0000
  S   S201      1.0  0.47045  0.52880  0.55451  1.0000
  C   C729      1.0  0.43671  0.64694  0.56644  1.0000
  H   H866      1.0  0.14162  0.53898  0.33511  1.0000
  C   C730      1.0  0.15364  0.51324  0.36479  1.0000
  H   H867      1.0  0.30203  0.54467  0.54198  1.0000
  H   H868      1.0  0.07073  0.72111  0.54580  1.0000
  Fe  Fe102     1.0  0.14617  0.72445  0.53597  1.0000
  C   C731      1.0  0.31026  0.55851  0.56530  1.0000
  S   S202      1.0  0.16610  0.69724  0.53094  1.0000
  H   H869      1.0  0.23982  0.63465  0.56091  1.0000
  H   H870      1.0  0.39693  0.74253  0.59836  1.0000
  S   S203      1.0  0.11398  0.72553  0.54015  1.0000
  H   H871      1.0  0.10045  0.53405  0.33734  1.0000
  Fe  Fe103     1.0  0.20681  0.55938  0.60987  1.0000
  S   S204      1.0  0.18632  0.56076  0.58724  1.0000
  S   S205      1.0  0.20412  0.54416  0.63963  1.0000
  Fe  Fe104     1.0  0.23658  0.58077  0.58355  1.0000
  S   S206      1.0  0.21816  0.58325  0.55890  1.0000
  S   S207      1.0  0.26382  0.59649  0.57882  1.0000
  Fe  Fe105     1.0  0.19367  0.59127  0.58058  1.0000
  S   S208      1.0  0.17126  0.61730  0.58024  1.0000
  Fe  Fe106     1.0  0.21240  0.55259  0.56709  1.0000
  S   S209      1.0  0.21601  0.52594  0.54966  1.0000
  S   S210      1.0  0.21237  0.59016  0.60475  1.0000
  S   S211      1.0  0.23267  0.54978  0.59027  1.0000
  C   C732      1.0  0.21198  0.51765  0.52734  1.0000
  C   C733      1.0  0.20213  0.52902  0.51367  1.0000
  N   N50       1.0  0.12522  0.51522  0.34467  1.0000
  H   H872      1.0  0.19708  0.54362  0.51627  1.0000
  H   H873      1.0  0.06473  0.73799  0.61536  1.0000
  C   C734      1.0  0.16636  0.67481  0.54429  1.0000
  C   C735      1.0  0.17840  0.65919  0.53747  1.0000
  C   C736      1.0  0.17981  0.64139  0.54804  1.0000
  C   C737      1.0  0.16932  0.63903  0.56569  1.0000
  C   C738      1.0  0.15704  0.65456  0.57235  1.0000
  C   C739      1.0  0.15558  0.67234  0.56177  1.0000
  H   H874      1.0  0.18676  0.66090  0.52395  1.0000
  H   H875      1.0  0.18904  0.62951  0.54253  1.0000
  H   H876      1.0  0.14872  0.65290  0.58591  1.0000
  H   H877      1.0  0.14626  0.68418  0.56723  1.0000
  C   C740      1.0  0.16649  0.55508  0.65383  1.0000
  H   H878      1.0  0.17703  0.50954  0.38281  1.0000
  C   C741      1.0  0.49592  0.73093  0.52091  1.0000
  H   H879      1.0  0.16485  0.56321  0.64044  1.0000
  H   H880      1.0  0.45279  0.67693  0.56969  1.0000
  H   H881      1.0  0.37250  0.58790  0.58523  1.0000
  H   H882      1.0  0.05780  0.70846  0.38609  1.0000
  H   H883      1.0  0.21409  0.63791  0.56213  1.0000
  N   N51       1.0  0.22636  0.64704  0.58617  1.0000
  C   C742      1.0  0.08026  0.71084  0.45290  1.0000
  Fe  Fe107     1.0  0.03814  0.74870  0.36680  1.0000
  C   C743      1.0  0.02569  0.72952  0.47967  1.0000
  H   H884      1.0  0.20817  0.63113  0.60664  1.0000
  H   H885      1.0  0.24387  0.64932  0.60907  1.0000
  C   C744      1.0  0.42599  0.58045  0.56399  1.0000
  C   C745      1.0  0.43152  0.57496  0.54553  1.0000
  C   C746      1.0  0.44497  0.55906  0.54234  1.0000
  C   C747      1.0  0.45304  0.54857  0.55762  1.0000
  C   C748      1.0  0.44735  0.55399  0.57608  1.0000
  C   C749      1.0  0.43385  0.56981  0.57928  1.0000
  H   H886      1.0  0.42549  0.58309  0.53361  1.0000
  H   H887      1.0  0.44924  0.55505  0.52806  1.0000
  H   H888      1.0  0.45353  0.54598  0.58799  1.0000
  H   H889      1.0  0.42973  0.57389  0.59356  1.0000
  C   C750      1.0  0.31385  0.59651  0.61636  1.0000
  C   C751      1.0  0.29917  0.58446  0.62156  1.0000
  C   C752      1.0  0.28356  0.58449  0.61046  1.0000
  C   C753      1.0  0.28250  0.59657  0.59396  1.0000
  C   C754      1.0  0.29703  0.60882  0.58890  1.0000
  C   C755      1.0  0.31256  0.60889  0.60007  1.0000
  H   H890      1.0  0.29999  0.57485  0.63415  1.0000
  H   H891      1.0  0.27252  0.57496  0.61452  1.0000
  H   H892      1.0  0.29635  0.61820  0.57614  1.0000
  H   H893      1.0  0.32362  0.61837  0.59595  1.0000
  C   C756      1.0  0.39443  0.69462  0.60877  1.0000
  C   C757      1.0  0.38841  0.71392  0.60439  1.0000
  C   C758      1.0  0.40173  0.72772  0.60176  1.0000
  C   C759      1.0  0.42118  0.72238  0.60388  1.0000
  C   C760      1.0  0.42720  0.70307  0.60829  1.0000
  C   C761      1.0  0.41397  0.68919  0.61041  1.0000
  H   H894      1.0  0.37334  0.71825  0.60306  1.0000
  C   C762      1.0  0.01749  0.71808  0.49452  1.0000
  H   H895      1.0  0.44224  0.69883  0.60987  1.0000
  H   H896      1.0  0.41889  0.67441  0.61360  1.0000
  H   H897      1.0  0.15611  0.52259  0.51801  1.0000
  C   C763      1.0  0.36028  0.58341  0.57842  1.0000
  C   C764      1.0  0.21155  0.69467  0.56023  1.0000
  H   H898      1.0  0.31525  0.75276  0.59437  1.0000
  C   C765      1.0  0.32547  0.56296  0.57492  1.0000
  H   H899      1.0  0.09733  0.52108  0.35991  1.0000
  Fe  Fe108     1.0  0.11330  0.74983  0.51776  1.0000
  H   H900      1.0  0.19927  0.70130  0.55313  1.0000
  H   H901      1.0  0.05123  0.70434  0.45153  1.0000
  C   C766      1.0  0.19843  0.52135  0.49674  1.0000
  N   N52       1.0  0.04769  0.74362  0.54903  1.0000
  S   S212      1.0  0.03755  0.74614  0.39877  1.0000
  H   H902      1.0  0.34471  0.56169  0.60695  1.0000
  C   C767      1.0  0.35802  0.55501  0.59936  1.0000
  H   H903      1.0  0.47662  0.50746  0.59142  1.0000
  H   H904      1.0  0.42514  0.65373  0.65303  1.0000
  H   H905      1.0  0.19052  0.53024  0.48648  1.0000
  C   C768      1.0  0.34817  0.54656  0.55245  1.0000
  H   H906      1.0  0.37687  0.67817  0.65591  1.0000
  H   H907      1.0  0.36242  0.54161  0.54665  1.0000
  H   H908      1.0  0.33555  0.53401  0.53050  1.0000
  C   C769      1.0  0.21128  0.67610  0.56849  1.0000
  H   H909      1.0  0.10277  0.73147  0.38676  1.0000
  H   H910      1.0  0.40342  0.72488  0.54447  1.0000
  H   H911      1.0  0.40523  0.69419  0.64941  1.0000
  C   C770      1.0  0.16030  0.50842  0.52415  1.0000
  C   C771      1.0  0.33282  0.54210  0.54295  1.0000
  H   H912      1.0  0.19639  0.58931  0.65211  1.0000
  H   H913      1.0  0.32184  0.57111  0.58717  1.0000
  C   C772      1.0  0.40928  0.65560  0.65614  1.0000
  H   H914      1.0  0.36918  0.50584  0.44102  1.0000
  H   H915      1.0  0.19862  0.66896  0.56734  1.0000
  H   H916      1.0  0.05847  0.73180  0.57538  1.0000
  C   C773      1.0  0.38017  0.55483  0.57147  1.0000
  C   C774      1.0  0.31392  0.54807  0.54936  1.0000
  H   H917      1.0  0.22570  0.61914  0.57627  1.0000
  C   C775      1.0  0.20849  0.64545  0.59899  1.0000
  H   H918      1.0  0.00774  0.71933  0.34412  1.0000
  C   C776      1.0  0.22647  0.63419  0.57070  1.0000
  H   H919      1.0  0.25604  0.67135  0.58458  1.0000
  H   H920      1.0  0.20691  0.65623  0.60973  1.0000
  H   H921      1.0  0.10436  0.67914  0.39542  1.0000
  H   H922      1.0  0.43230  0.73474  0.55682  1.0000
  C   C777      1.0  0.13503  0.50838  0.36183  1.0000
  S   S213      1.0  0.42224  0.60314  0.66113  1.0000
  C   C778      1.0  0.22703  0.66685  0.57783  1.0000
  C   C779      1.0  0.43054  0.71973  0.55638  1.0000
  C   C780      1.0  0.44433  0.70604  0.56327  1.0000
  H   H923      1.0  0.35713  0.53934  0.60058  1.0000
  H   H924      1.0  0.40308  0.66188  0.58356  1.0000
  H   H925      1.0  0.39047  0.66514  0.56274  1.0000
  H   H926      1.0  0.39855  0.69118  0.54451  1.0000
  H   H927      1.0  0.40821  0.66236  0.53138  1.0000
  C   C781      1.0  0.44176  0.68665  0.56368  1.0000
  H   H928      1.0  0.40020  0.64190  0.57031  1.0000
  C   C782      1.0  0.34490  0.55715  0.56884  1.0000
  H   H929      1.0  0.36126  0.58966  0.56352  1.0000
  H   H930      1.0  0.10950  0.71778  0.44989  1.0000
  H   H931      1.0  0.42683  0.68643  0.66022  1.0000
  H   H932      1.0  0.25673  0.63915  0.58823  1.0000
  H   H933      1.0  0.03844  0.74928  0.57803  1.0000
  C   C783      1.0  0.16760  0.50633  0.54179  1.0000
  H   H934      1.0  0.43385  0.65685  0.52916  1.0000
  H   H935      1.0  0.24156  0.62534  0.60378  1.0000
  C   C784      1.0  0.49783  0.75034  0.51761  1.0000
  H   H936      1.0  0.02664  0.70985  0.50425  1.0000
  H   H937      1.0  0.04113  0.73010  0.47782  1.0000
  H   H938      1.0  0.41825  0.63894  0.53835  1.0000
  C   C785      1.0  0.03675  0.70911  0.33471  1.0000
  H   H939      1.0  0.11337  0.71624  0.41562  1.0000
  C   C786      1.0  0.40305  0.65716  0.56903  1.0000
  H   H940      1.0  0.43794  0.65007  0.58135  1.0000
  H   H941      1.0  0.45096  0.64765  0.55820  1.0000
  H   H942      1.0  0.05440  0.70181  0.41763  1.0000
  C   C787      1.0  0.41422  0.71412  0.54957  1.0000
  C   C788      1.0  0.42512  0.68043  0.55706  1.0000
  C   C789      1.0  0.06489  0.70647  0.44357  1.0000
  C   C790      1.0  0.42042  0.65437  0.53831  1.0000
  H   H943      1.0  0.45666  0.71064  0.56913  1.0000
  N   N53       1.0  0.42155  0.66008  0.55775  1.0000
  H   H944      1.0  0.43348  0.63178  0.56695  1.0000
  H   H945      1.0  0.16910  0.51880  0.54928  1.0000
  H   H946      1.0  0.16186  0.52204  0.35462  1.0000
  H   H947      1.0  0.22767  0.71900  0.55443  1.0000
  N   N54       1.0  0.08752  0.70620  0.39233  1.0000
  C   C791      1.0  0.08994  0.72529  0.38271  1.0000
  C   C792      1.0  0.10502  0.69327  0.38738  1.0000
  C   C793      1.0  0.07118  0.69858  0.38457  1.0000
  C   C794      1.0  0.08470  0.70782  0.41309  1.0000
  C   C795      1.0  0.06697  0.70497  0.42396  1.0000
  C   C796      1.0  0.09985  0.71279  0.42301  1.0000
  H   H948      1.0  0.40317  0.65938  0.64232  1.0000
  C   C797      1.0  0.18395  0.54437  0.65686  1.0000
  C   C798      1.0  0.09771  0.71393  0.44264  1.0000
  C   C799      1.0  0.22755  0.70460  0.56092  1.0000
  H   H949      1.0  0.09125  0.72500  0.36699  1.0000
  H   H950      1.0  0.07738  0.73554  0.38657  1.0000
  H   H951      1.0  0.04791  0.71557  0.53929  1.0000
  H   H952      1.0  0.10680  0.69087  0.37199  1.0000
  H   H953      1.0  0.38829  0.52202  0.46055  1.0000
  H   H954      1.0  0.29552  0.56328  0.57022  1.0000
  H   H955      1.0  0.11200  0.54064  0.35705  1.0000
  H   H956      1.0  0.39161  0.55892  0.57976  1.0000
  H   H957      1.0  0.37000  0.55806  0.60747  1.0000
  C   C800      1.0  0.04465  0.73728  0.56943  1.0000
  H   H958      1.0  0.07397  0.69686  0.36907  1.0000
  H   H959      1.0  0.07863  0.71222  0.46806  1.0000
  H   H960      1.0  0.38366  0.56076  0.55669  1.0000
  H   H961      1.0  0.19532  0.64733  0.59129  1.0000
  H   H962      1.0  0.11842  0.69910  0.39039  1.0000
  C   C801      1.0  0.01673  0.70967  0.33521  1.0000
  H   H963      1.0  0.38167  0.53899  0.57188  1.0000
  H   H964      1.0  0.25587  0.70367  0.57017  1.0000
  C   C802      1.0  0.10800  0.52830  0.35001  1.0000
  C   C803      1.0  0.24338  0.69593  0.56982  1.0000
  C   C804      1.0  0.41091  0.68823  0.66298  1.0000
  H   H965      1.0  0.34700  0.59013  0.58591  1.0000
  N   N55       1.0  0.36067  0.56237  0.57922  1.0000
  C   C805      1.0  0.41154  0.69478  0.54978  1.0000
  H   H966      1.0  0.06830  0.68437  0.39150  1.0000
  C   C806      1.0  0.24325  0.67730  0.57812  1.0000
  C   C807      1.0  0.24287  0.64011  0.59732  1.0000
  S   S214      1.0  0.14846  0.74523  0.55799  1.0000
  S   S215      1.0  0.04840  0.72373  0.34841  1.0000
  S   S216      1.0  0.09682  0.74390  0.58815  1.0000
  H   H967      1.0  0.06242  0.73113  0.52410  1.0000
  S   S217      1.0  0.14547  0.74728  0.51176  1.0000
  C   C808      1.0  0.01398  0.74034  0.46730  1.0000
  S   S218      1.0  0.43855  0.73917  0.60125  1.0000
  H   H968      1.0  0.03511  0.72554  0.57185  1.0000
  Fe  Fe109     1.0  0.11590  0.74773  0.56062  1.0000
  H   H969      1.0  0.48795  0.72570  0.53376  1.0000
  H   H970      1.0  0.40473  0.64143  0.66164  1.0000
  C   C809      1.0  0.05751  0.72716  0.53908  1.0000
  H   H971      1.0  0.00957  0.74880  0.56611  1.0000
  H   H972      1.0  0.02027  0.74941  0.45576  1.0000
  C   C810      1.0  0.02969  0.75070  0.54041  1.0000
  C   C811      1.0  0.06215  0.75215  0.60856  1.0000
  H   H973      1.0  0.13788  0.56409  0.66583  1.0000
  C   C812      1.0  0.38798  0.50670  0.46256  1.0000
  C   C813      1.0  0.01141  0.75249  0.55105  1.0000
  H   H974      1.0  0.40781  0.50363  0.48415  1.0000
  S   S219      1.0  0.26813  0.62392  0.97892  1.0000
  S   S220      1.0  0.02167  0.62654  0.77088  1.0000
  C   C814      1.0  0.25914  0.55554  0.97433  1.0000
  C   C815      1.0  0.49172  0.52757  0.74867  1.0000
  C   C816      1.0  0.42381  0.64972  0.72373  1.0000
  Fe  Fe110     1.0  0.48793  0.72131  0.86921  1.0000
  H   H975      1.0  0.37904  0.59619  0.77865  1.0000
  C   C817      1.0  0.48412  0.74709  0.97237  1.0000
  H   H976      1.0  0.46866  0.74394  0.83353  1.0000
  Fe  Fe111     1.0  0.27152  0.51944  0.89932  1.0000
  S   S221      1.0  0.24060  0.53028  0.89887  1.0000
  Fe  Fe112     1.0  0.28467  0.55108  0.87061  1.0000
  S   S222      1.0  0.25408  0.56413  0.86814  1.0000
  S   S223      1.0  0.30709  0.56852  0.85361  1.0000
  Fe  Fe113     1.0  0.25042  0.55932  0.89991  1.0000
  S   S224      1.0  0.23137  0.57877  0.91949  1.0000
  Fe  Fe114     1.0  0.24644  0.53415  0.86719  1.0000
  S   S225      1.0  0.22419  0.52202  0.85107  1.0000
  S   S226      1.0  0.28121  0.54836  0.90256  1.0000
  S   S227      1.0  0.27729  0.52117  0.86746  1.0000
  Fe  Fe115     1.0  0.43874  0.61091  0.81165  1.0000
  S   S228      1.0  0.44528  0.58070  0.82377  1.0000
  S   S229      1.0  0.43789  0.63751  0.82845  1.0000
  Fe  Fe116     1.0  0.42541  0.59717  0.77510  1.0000
  S   S230      1.0  0.43169  0.56624  0.78464  1.0000
  S   S231      1.0  0.40703  0.60744  0.75069  1.0000
  Fe  Fe117     1.0  0.41751  0.57441  0.81309  1.0000
  S   S232      1.0  0.39712  0.55403  0.82885  1.0000
  Fe  Fe118     1.0  0.45890  0.57477  0.79454  1.0000
  S   S233      1.0  0.48947  0.56004  0.78882  1.0000
  S   S234      1.0  0.40998  0.60479  0.80315  1.0000
  S   S235      1.0  0.45368  0.60556  0.78281  1.0000
  C   C818      1.0  0.40419  0.65451  0.72265  1.0000
  S   S236      1.0  0.12265  0.52124  0.78875  1.0000
  Fe  Fe119     1.0  0.13092  0.53642  0.73498  1.0000
  S   S237      1.0  0.12592  0.55756  0.75741  1.0000
  S   S238      1.0  0.13351  0.54699  0.70373  1.0000
  Fe  Fe120     1.0  0.14644  0.53725  0.77370  1.0000
  S   S239      1.0  0.16941  0.55231  0.78589  1.0000
  Fe  Fe121     1.0  0.10263  0.54008  0.77080  1.0000
  S   S240      1.0  0.07252  0.54781  0.78441  1.0000
  C   C819      1.0  0.43654  0.65188  0.70761  1.0000
  S   S241      1.0  0.10561  0.52066  0.74704  1.0000
  C   C820      1.0  0.15317  0.54538  0.68593  1.0000
  H   H977      1.0  0.49267  0.72253  0.78986  1.0000
  C   C821      1.0  0.17047  0.53428  0.68882  1.0000
  H   H978      1.0  0.46775  0.56541  0.86069  1.0000
  H   H979      1.0  0.17215  0.52608  0.70214  1.0000
  N   N56       1.0  0.49986  0.58089  0.84024  1.0000
  C   C822      1.0  0.48823  0.52232  0.80372  1.0000
  H   H980      1.0  0.47307  0.52592  0.80759  1.0000
  C   C823      1.0  0.20953  0.53078  0.83256  1.0000
  C   C824      1.0  0.20944  0.54943  0.82431  1.0000
  C   C825      1.0  0.19715  0.55572  0.81000  1.0000
  C   C826      1.0  0.18485  0.54349  0.80373  1.0000
  C   C827      1.0  0.18506  0.52481  0.81186  1.0000
  C   C828      1.0  0.19732  0.51854  0.82618  1.0000
  H   H981      1.0  0.40724  0.69921  0.67345  1.0000
  H   H982      1.0  0.36513  0.73479  0.98753  1.0000
  C   C829      1.0  0.37473  0.74557  0.95059  1.0000
  C   C830      1.0  0.33251  0.56436  0.84898  1.0000
  C   C831      1.0  0.34239  0.54622  0.85120  1.0000
  C   C832      1.0  0.36223  0.54339  0.84533  1.0000
  C   C833      1.0  0.37249  0.55868  0.83753  1.0000
  C   C834      1.0  0.36280  0.57699  0.83633  1.0000
  C   C835      1.0  0.34289  0.57972  0.84166  1.0000
  H   H983      1.0  0.33462  0.53427  0.85683  1.0000
  H   H984      1.0  0.36959  0.52921  0.84658  1.0000
  H   H985      1.0  0.37057  0.58906  0.83116  1.0000
  H   H986      1.0  0.33544  0.59384  0.84012  1.0000
  C   C836      1.0  0.47903  0.67870  0.84614  1.0000
  C   C837      1.0  0.45959  0.67995  0.85294  1.0000
  C   C838      1.0  0.44735  0.66718  0.84738  1.0000
  C   C839      1.0  0.45430  0.65293  0.83503  1.0000
  C   C840      1.0  0.47376  0.65162  0.82826  1.0000
  C   C841      1.0  0.48603  0.66440  0.83383  1.0000
  H   H987      1.0  0.45393  0.69082  0.86240  1.0000
  H   H988      1.0  0.43232  0.66836  0.85270  1.0000
  H   H989      1.0  0.47931  0.64083  0.81869  1.0000
  C   C842      1.0  0.26537  0.52958  0.99792  1.0000
  S   S242      1.0  0.45801  0.73544  0.87487  1.0000
  C   C843      1.0  0.03586  0.60484  0.77552  1.0000
  C   C844      1.0  0.05461  0.60232  0.76656  1.0000
  C   C845      1.0  0.06608  0.58495  0.76918  1.0000
  C   C846      1.0  0.05889  0.57001  0.78090  1.0000
  C   C847      1.0  0.04018  0.57257  0.78994  1.0000
  C   C848      1.0  0.02872  0.58993  0.78731  1.0000
  H   H990      1.0  0.06023  0.61384  0.75745  1.0000
  H   H991      1.0  0.08047  0.58314  0.76218  1.0000
  H   H992      1.0  0.03459  0.56110  0.79913  1.0000
  H   H993      1.0  0.01445  0.59186  0.79455  1.0000
  C   C849      1.0  0.25742  0.61208  0.96218  1.0000
  C   C850      1.0  0.26931  0.60324  0.94771  1.0000
  C   C851      1.0  0.26153  0.59299  0.93458  1.0000
  C   C852      1.0  0.24170  0.59165  0.93567  1.0000
  C   C853      1.0  0.22977  0.60066  0.95002  1.0000
  C   C854      1.0  0.23758  0.61078  0.96327  1.0000
  H   H994      1.0  0.28467  0.60421  0.94669  1.0000
  H   H995      1.0  0.27088  0.58624  0.92355  1.0000
  H   H996      1.0  0.21441  0.59979  0.95092  1.0000
  H   H997      1.0  0.22824  0.61766  0.97422  1.0000
  S   S243      1.0  0.15260  0.51704  0.75035  1.0000
  C   C855      1.0  0.40287  0.72584  0.92598  1.0000
  H   H998      1.0  0.15091  0.58752  0.83194  1.0000
  C   C856      1.0  0.35099  0.55957  0.78858  1.0000
  C   C857      1.0  0.41757  0.60382  0.68606  1.0000
  C   C858      1.0  0.39940  0.60995  0.69454  1.0000
  C   C859      1.0  0.39640  0.61058  0.71437  1.0000
  C   C860      1.0  0.41147  0.60512  0.72594  1.0000
  C   C861      1.0  0.42960  0.59885  0.71750  1.0000
  C   C862      1.0  0.43261  0.59825  0.69765  1.0000
  H   H999      1.0  0.38768  0.61421  0.68583  1.0000
  H   H1000     1.0  0.38235  0.61553  0.72076  1.0000
  H   H1001     1.0  0.44134  0.59470  0.72622  1.0000
  H   H1002     1.0  0.44671  0.59350  0.69121  1.0000
  H   H1003     1.0  0.21885  0.55899  0.82889  1.0000
  H   H1004     1.0  0.44010  0.66000  0.67816  1.0000
  H   H1005     1.0  0.06073  0.54076  0.74624  1.0000
  C   C863      1.0  0.31864  0.55830  0.80506  1.0000
  C   C864      1.0  0.01777  0.52345  0.74389  1.0000
  H   H1006     1.0  0.46130  0.69579  0.81510  1.0000
  H   H1007     1.0  0.02533  0.71174  0.98748  1.0000
  H   H1008     1.0  0.48389  0.55909  0.83148  1.0000
  H   H1009     1.0  0.42906  0.64376  0.73702  1.0000
  H   H1010     1.0  0.19728  0.50408  0.83243  1.0000
  S   S244      1.0  0.49609  0.72418  0.89879  1.0000
  H   H1011     1.0  0.36825  0.58598  0.74942  1.0000
  C   C865      1.0  0.45426  0.58965  0.87382  1.0000
  C   C866      1.0  0.04552  0.54072  0.74455  1.0000
  C   C867      1.0  0.45449  0.60889  0.87658  1.0000
  H   H1012     1.0  0.45175  0.64775  0.70847  1.0000
  C   C868      1.0  0.46908  0.58022  0.86247  1.0000
  C   C869      1.0  0.39133  0.71569  0.93935  1.0000
  C   C870      1.0  0.48446  0.60953  0.85674  1.0000
  H   H1013     1.0  0.24396  0.58574  0.99507  1.0000
  C   C871      1.0  0.17613  0.59479  0.67623  1.0000
  H   H1014     1.0  0.44032  0.67634  0.80142  1.0000
  C   C872      1.0  0.36963  0.58659  0.78747  1.0000
  C   C873      1.0  0.35528  0.54035  0.79564  1.0000
  H   H1015     1.0  0.47960  0.53809  0.75144  1.0000
  C   C874      1.0  0.34084  0.74934  0.96181  1.0000
  C   C875      1.0  0.26106  0.52297  0.96573  1.0000
  H   H1016     1.0  0.25565  0.54744  0.94635  1.0000
  H   H1017     1.0  0.49465  0.73036  0.94073  1.0000
  C   C876      1.0  0.44121  0.69107  0.79598  1.0000
  H   H1018     1.0  0.42259  0.72356  0.76333  1.0000
  C   C877      1.0  0.50002  0.59131  0.82126  1.0000
  H   H1019     1.0  0.46139  0.72043  0.83460  1.0000
  H   H1020     1.0  0.35275  0.56701  0.75113  1.0000
  C   C878      1.0  0.44315  0.72910  0.78240  1.0000
  H   H1021     1.0  0.14230  0.55564  0.82625  1.0000
  C   C879      1.0  0.43123  0.71766  0.77462  1.0000
  H   H1022     1.0  0.15387  0.52747  0.84626  1.0000
  H   H1023     1.0  0.42090  0.68990  0.77549  1.0000
  H   H1024     1.0  0.21058  0.57205  0.73484  1.0000
  H   H1025     1.0  0.36933  0.53276  0.79320  1.0000
  H   H1026     1.0  0.25709  0.57045  0.96974  1.0000
  H   H1027     1.0  0.33990  0.73397  0.96610  1.0000
  H   H1028     1.0  0.37734  0.58113  0.79999  1.0000
  H   H1029     1.0  0.21327  0.56362  0.70496  1.0000
  C   C880      1.0  0.37742  0.72534  0.95147  1.0000
  H   H1030     1.0  0.02200  0.59120  0.71953  1.0000
  C   C881      1.0  0.43025  0.69871  0.78142  1.0000
  C   C882      1.0  0.49205  0.50960  0.75825  1.0000
  C   C883      1.0  0.38155  0.67348  0.67025  1.0000
  C   C884      1.0  0.33222  0.56823  0.79369  1.0000
  H   H1031     1.0  0.34484  0.58923  0.76138  1.0000
  H   H1032     1.0  0.19712  0.57020  0.80383  1.0000
  H   H1033     1.0  0.35656  0.59557  0.79265  1.0000
  S   S245      1.0  0.45133  0.73270  0.93231  1.0000
  C   C885      1.0  0.42968  0.65877  0.69030  1.0000
  C   C886      1.0  0.32324  0.53948  0.81161  1.0000
  H   H1034     1.0  0.50102  0.66333  0.82841  1.0000
  C   C887      1.0  0.03745  0.52350  0.74520  1.0000
  C   C888      1.0  0.46968  0.61874  0.86826  1.0000
  H   H1035     1.0  0.36893  0.71683  0.96172  1.0000
  C   C889      1.0  0.45320  0.70235  0.80377  1.0000
  N   N57       1.0  0.18662  0.56423  0.88246  1.0000
  C   C890      1.0  0.19172  0.54645  0.89425  1.0000
  C   C891      1.0  0.20479  0.57122  0.87360  1.0000
  C   C892      1.0  0.17705  0.57846  0.89543  1.0000
  C   C893      1.0  0.17407  0.56159  0.86748  1.0000
  C   C894      1.0  0.16887  0.54344  0.86372  1.0000
  C   C895      1.0  0.16716  0.57746  0.85564  1.0000
  C   C896      1.0  0.15724  0.54149  0.84923  1.0000
  C   C897      1.0  0.15568  0.57530  0.84109  1.0000
  C   C898      1.0  0.15072  0.55735  0.83791  1.0000
  H   H1036     1.0  0.20030  0.53551  0.88565  1.0000
  H   H1037     1.0  0.20081  0.54905  0.90564  1.0000
  H   H1038     1.0  0.17870  0.54029  0.90134  1.0000
  H   H1039     1.0  0.21247  0.56083  0.86384  1.0000
  H   H1040     1.0  0.21464  0.57337  0.88445  1.0000
  H   H1041     1.0  0.20247  0.58507  0.86525  1.0000
  H   H1042     1.0  0.16286  0.57417  0.90174  1.0000
  H   H1043     1.0  0.18598  0.58011  0.90726  1.0000
  H   H1044     1.0  0.17468  0.59290  0.88820  1.0000
  H   H1045     1.0  0.17408  0.53041  0.87135  1.0000
  H   H1046     1.0  0.17094  0.59162  0.85729  1.0000
  H   H1047     1.0  0.04127  0.57076  0.74236  1.0000
  C   C899      1.0  0.48714  0.72439  0.80487  1.0000
  C   C900      1.0  0.26451  0.51656  0.98425  1.0000
  N   N58       1.0  0.18103  0.57571  0.72767  1.0000
  C   C901      1.0  0.17936  0.55501  0.73121  1.0000
  C   C902      1.0  0.19680  0.58081  0.73822  1.0000
  C   C903      1.0  0.16286  0.58585  0.73578  1.0000
  C   C904      1.0  0.18522  0.58025  0.70706  1.0000
  H   H1048     1.0  0.48570  0.59196  0.81561  1.0000
  H   H1049     1.0  0.27872  0.58302  0.98655  1.0000
  H   H1050     1.0  0.39111  0.55377  0.78464  1.0000
  C   C905      1.0  0.20276  0.57276  0.69751  1.0000
  H   H1051     1.0  0.44273  0.61626  0.88497  1.0000
  H   H1052     1.0  0.19251  0.54625  0.72585  1.0000
  H   H1053     1.0  0.17683  0.55086  0.74660  1.0000
  H   H1054     1.0  0.16709  0.55083  0.72422  1.0000
  H   H1055     1.0  0.39404  0.56793  0.76288  1.0000
  H   H1056     1.0  0.19346  0.57838  0.75386  1.0000
  H   H1057     1.0  0.19930  0.59606  0.73505  1.0000
  H   H1058     1.0  0.15011  0.58159  0.72954  1.0000
  H   H1059     1.0  0.16036  0.58239  0.75136  1.0000
  H   H1060     1.0  0.16306  0.60157  0.73353  1.0000
  C   C906      1.0  0.49936  0.53624  0.79461  1.0000
  H   H1061     1.0  0.15791  0.59706  0.70153  1.0000
  S   S246      1.0  0.49487  0.69515  0.85179  1.0000
  H   H1062     1.0  0.48950  0.73662  0.98363  1.0000
  H   H1063     1.0  0.21990  0.56979  0.67080  1.0000
  H   H1064     1.0  0.49698  0.73305  0.81116  1.0000
  C   C907      1.0  0.40973  0.66347  0.68858  1.0000
  C   C908      1.0  0.39713  0.66127  0.70538  1.0000
  H   H1065     1.0  0.16557  0.60278  0.66777  1.0000
  Fe  Fe122     1.0  0.46687  0.74033  0.90360  1.0000
  H   H1066     1.0  0.39436  0.65219  0.73518  1.0000
  C   C909      1.0  0.15122  0.55557  0.66829  1.0000
  N   N59       1.0  0.36525  0.57061  0.77689  1.0000
  C   C910      1.0  0.25831  0.54244  0.96080  1.0000
  H   H1067     1.0  0.44307  0.74368  0.77660  1.0000
  H   H1068     1.0  0.33710  0.75191  0.94691  1.0000
  C   C911      1.0  0.49663  0.50353  0.80748  1.0000
  H   H1069     1.0  0.43242  0.72638  0.96931  1.0000
  H   H1070     1.0  0.07493  0.50740  0.79301  1.0000
  H   H1071     1.0  0.04135  0.52050  0.78988  1.0000
  C   C912      1.0  0.03408  0.55799  0.74224  1.0000
  C   C913      1.0  0.46016  0.73457  0.82651  1.0000
  C   C914      1.0  0.17190  0.59132  0.69577  1.0000
  H   H1072     1.0  0.32808  0.58297  0.78949  1.0000
  H   H1073     1.0  0.30471  0.56545  0.80957  1.0000
  C   C915      1.0  0.34150  0.53051  0.80688  1.0000
  H   H1074     1.0  0.19921  0.52551  0.67683  1.0000
  C   C916      1.0  0.35737  0.57851  0.75896  1.0000
  N   N60       1.0  0.46703  0.73338  0.80624  1.0000
  C   C917      1.0  0.36491  0.75032  0.98354  1.0000
  H   H1075     1.0  0.39335  0.70025  0.94046  1.0000
  H   H1076     1.0  0.17573  0.51521  0.80721  1.0000
  C   C918      1.0  0.43816  0.74875  0.94773  1.0000
  C   C919      1.0  0.48448  0.59004  0.85323  1.0000
  C   C920      1.0  0.26277  0.54958  0.99329  1.0000
  H   H1077     1.0  0.41356  0.74780  0.99165  1.0000
  H   H1078     1.0  0.48861  0.71014  0.81272  1.0000
  C   C921      1.0  0.38375  0.55920  0.77179  1.0000
  C   C922      1.0  0.45455  0.72171  0.79729  1.0000
  H   H1079     1.0  0.38159  0.54694  0.76364  1.0000
  C   C923      1.0  0.49757  0.56060  0.83770  1.0000
  C   C924      1.0  0.43027  0.74150  0.96542  1.0000
  C   C925      1.0  0.01405  0.55848  0.74033  1.0000
  H   H1080     1.0  0.37459  0.66020  0.67486  1.0000
  H   H1081     1.0  0.38173  0.66422  0.70552  1.0000
  H   H1082     1.0  0.46970  0.63378  0.87029  1.0000
  H   H1083     1.0  0.44484  0.74056  0.82831  1.0000
  C   C926      1.0  0.01239  0.59337  0.73272  1.0000
  H   H1084     1.0  0.49800  0.55166  0.85128  1.0000
  H   H1085     1.0  0.31287  0.53213  0.82103  1.0000
  C   C927      1.0  0.04498  0.50517  0.79028  1.0000
  H   H1086     1.0  0.26059  0.51285  0.95513  1.0000
  H   H1087     1.0  0.44227  0.58209  0.88014  1.0000
  H   H1088     1.0  0.02115  0.59667  0.74398  1.0000
  C   C928      1.0  0.00615  0.54066  0.74174  1.0000
  H   H1089     1.0  0.41400  0.71837  0.91691  1.0000
  H   H1090     1.0  0.14095  0.50584  0.71169  1.0000
  C   C929      1.0  0.40049  0.74567  0.92459  1.0000
  C   C930      1.0  0.20678  0.57628  0.67798  1.0000
  H   H1091     1.0  0.37564  0.68489  0.67968  1.0000
  H   H1092     1.0  0.04645  0.51019  0.74709  1.0000
  H   H1093     1.0  0.34522  0.51609  0.81263  1.0000
  C   C931      1.0  0.01237  0.71259  0.99706  1.0000
  C   C932      1.0  0.18577  0.53386  0.67439  1.0000
  H   H1094     1.0  0.47300  0.74047  0.96563  1.0000
  S   S247      1.0  0.50086  0.74844  0.85777  1.0000
  H   H1095     1.0  0.49563  0.61798  0.85025  1.0000
  C   C933      1.0  0.19351  0.58729  0.66737  1.0000
  N   N61       1.0  0.40284  0.67011  0.66991  1.0000
  H   H1096     1.0  0.01146  0.51003  0.74473  1.0000
  H   H1097     1.0  0.48012  0.50623  0.76841  1.0000
  H   H1098     1.0  0.29427  0.56604  0.99927  1.0000
  N   N62       1.0  0.50009  0.75243  0.95833  1.0000
  Fe  Fe123     1.0  0.13267  0.89909  0.11390  1.0000
  S   S248      1.0  0.10871  0.91637  0.13026  1.0000
  S   S249      1.0  0.15772  0.91224  0.09613  1.0000
  Fe  Fe124     1.0  0.11066  0.86326  0.11832  1.0000
  S   S250      1.0  0.08526  0.87823  0.13452  1.0000
  S   S251      1.0  0.11479  0.83113  0.11489  1.0000
  Fe  Fe125     1.0  0.08894  0.90314  0.11314  1.0000
  S   S252      1.0  0.06260  0.92205  0.10396  1.0000
  Fe  Fe126     1.0  0.10672  0.89044  0.15057  1.0000
  S   S253      1.0  0.09840  0.88835  0.18258  1.0000
  S   S254      1.0  0.11279  0.88727  0.09559  1.0000
  S   S255      1.0  0.13224  0.87397  0.13550  1.0000
  H   H1099     1.0  0.33877  0.97543  0.29886  1.0000
  Fe  Fe127     1.0  0.02309  0.98540  0.01600  1.0000
  S   S256      1.0  0.04704  0.96232  0.02275  1.0000
  Fe  Fe128     1.0  0.09784  0.95750  0.31703  1.0000
  C   C934      1.0  0.44851  0.99089  0.23370  1.0000
  Fe  Fe129     1.0  0.08947  0.94258  0.27950  1.0000
  S   S257      1.0  0.06276  0.92943  0.29221  1.0000
  S   S258      1.0  0.10376  0.94242  0.24921  1.0000
  Fe  Fe130     1.0  0.05588  0.95664  0.30731  1.0000
  S   S259      1.0  0.02490  0.96897  0.31518  1.0000
  Fe  Fe131     1.0  0.08039  0.91901  0.31647  1.0000
  H   H1100     1.0  0.20825  0.85807  0.11754  1.0000
  S   S260      1.0  0.08124  0.97064  0.29282  1.0000
  S   S261      1.0  0.10763  0.93053  0.30293  1.0000
  S   S262      1.0  0.35981  0.76222  0.06426  1.0000
  H   H1101     1.0  0.27726  0.97272  0.13919  1.0000
  Fe  Fe132     1.0  0.38211  0.96895  0.23828  1.0000
  S   S263      1.0  0.38904  0.98750  0.21189  1.0000
  S   S264      1.0  0.39912  0.93998  0.24094  1.0000
  Fe  Fe133     1.0  0.35702  0.99351  0.21098  1.0000
  H   H1102     1.0  0.06278  0.77788  0.13324  1.0000
  S   S265      1.0  0.38208  0.99196  0.25830  1.0000
  S   S266      1.0  0.34999  0.97316  0.23606  1.0000
  Fe  Fe134     1.0  0.38669  0.77900  0.01654  1.0000
  Fe  Fe135     1.0  0.36072  0.79238  0.05098  1.0000
  H   H1103     1.0  0.05161  0.99232  0.32934  1.0000
  S   S267      1.0  0.34549  0.81600  0.06883  1.0000
  H   H1104     1.0  0.50225  0.97511  0.26333  1.0000
  H   H1105     1.0  0.32374  0.94971  0.19398  1.0000
  S   S268      1.0  0.39299  0.78941  0.04424  1.0000
  S   S269      1.0  0.35448  0.78428  0.02235  1.0000
  Fe  Fe136     1.0  0.30731  0.94861  0.09601  1.0000
  S   S270      1.0  0.31364  0.95046  0.06415  1.0000
  S   S271      1.0  0.33074  0.94720  0.11650  1.0000
  Fe  Fe137     1.0  0.26577  0.93921  0.09361  1.0000
  S   S272      1.0  0.26900  0.94046  0.06181  1.0000
  S   S273      1.0  0.24119  0.92992  0.11466  1.0000
  Fe  Fe138     1.0  0.29797  0.92411  0.06493  1.0000
  S   S274      1.0  0.30825  0.89995  0.04588  1.0000
  Fe  Fe139     1.0  0.28442  0.96682  0.06315  1.0000
  C   C935      1.0  0.30078  0.96473  0.27234  1.0000
  S   S275      1.0  0.29375  0.92110  0.09653  1.0000
  S   S276      1.0  0.27908  0.96668  0.09517  1.0000
  H   H1106     1.0  0.22450  0.95044  0.31796  1.0000
  S   S277      1.0  0.48390  0.93489  0.26617  1.0000
  S   S278      1.0  0.06228  0.77858  0.07775  1.0000
  C   C936      1.0  0.03238  0.78853  0.13131  1.0000
  C   C937      1.0  0.27147  0.96944  0.18558  1.0000
  H   H1107     1.0  0.04275  0.90703  0.32729  1.0000
  H   H1108     1.0  0.24082  0.86244  0.10351  1.0000
  H   H1109     1.0  0.02973  0.76884  0.31604  1.0000
  H   H1110     1.0  0.27855  0.86282  0.06051  1.0000
  H   H1111     1.0  0.25706  0.85156  0.05858  1.0000
  H   H1112     1.0  0.24562  0.93424  0.15572  1.0000
  H   H1113     1.0  0.27559  0.89445  0.07525  1.0000
  C   C938      1.0  0.15207  0.95945  0.33121  1.0000
  H   H1114     1.0  0.41821  0.77946  0.08078  1.0000
  H   H1115     1.0  0.44153  0.79259  0.09910  1.0000
  C   C939      1.0  0.33500  0.83917  0.06200  1.0000
  C   C940      1.0  0.33491  0.84616  0.04304  1.0000
  C   C941      1.0  0.32647  0.86471  0.03838  1.0000
  C   C942      1.0  0.31814  0.87652  0.05257  1.0000
  C   C943      1.0  0.31812  0.86952  0.07152  1.0000
  C   C944      1.0  0.32652  0.85097  0.07618  1.0000
  H   H1116     1.0  0.34134  0.83725  0.03198  1.0000
  H   H1117     1.0  0.32653  0.86996  0.02366  1.0000
  H   H1118     1.0  0.31165  0.87834  0.08261  1.0000
  H   H1119     1.0  0.32647  0.84565  0.09088  1.0000
  C   C945      1.0  0.42208  0.93773  0.24960  1.0000
  C   C946      1.0  0.43502  0.92170  0.24573  1.0000
  C   C947      1.0  0.45386  0.92020  0.25137  1.0000
  C   C948      1.0  0.45979  0.93468  0.26107  1.0000
  C   C949      1.0  0.44660  0.95030  0.26560  1.0000
  C   C950      1.0  0.42788  0.95192  0.25977  1.0000
  H   H1120     1.0  0.43058  0.91059  0.23800  1.0000
  H   H1121     1.0  0.46389  0.90806  0.24786  1.0000
  H   H1122     1.0  0.45098  0.96135  0.27345  1.0000
  H   H1123     1.0  0.41794  0.96414  0.26314  1.0000
  C   C951      1.0  0.33687  0.98346  0.16651  1.0000
  C   C952      1.0  0.32254  0.98895  0.15406  1.0000
  C   C953      1.0  0.32040  0.97804  0.13875  1.0000
  C   C954      1.0  0.33263  0.96147  0.13567  1.0000
  C   C955      1.0  0.34697  0.95597  0.14810  1.0000
  C   C956      1.0  0.34908  0.96686  0.16344  1.0000
  H   H1124     1.0  0.02773  0.92801  0.32033  1.0000
  H   H1125     1.0  0.30953  0.98266  0.12916  1.0000
  H   H1126     1.0  0.35655  0.94321  0.14586  1.0000
  H   H1127     1.0  0.36017  0.96243  0.17286  1.0000
  N   N63       1.0  0.00609  0.92469  0.00768  1.0000
  C   C957      1.0  0.47261  0.79987  0.16884  1.0000
  C   C958      1.0  0.10281  0.96569  0.12437  1.0000
  H   H1128     1.0  0.21650  0.88998  0.05307  1.0000
  H   H1129     1.0  0.18165  0.94727  0.32948  1.0000
  C   C959      1.0  0.31855  0.97555  0.32389  1.0000
  C   C960      1.0  0.25476  0.96489  0.33042  1.0000
  H   H1130     1.0  0.47120  0.78876  0.15891  1.0000
  C   C961      1.0  0.32604  0.98266  0.30588  1.0000
  H   H1131     1.0  0.26259  0.88404  0.09554  1.0000
  H   H1132     1.0  0.46393  0.83931  0.13931  1.0000
  H   H1133     1.0  0.49887  0.82693  0.13673  1.0000
  H   H1134     1.0  0.26556  0.85336  0.08130  1.0000
  C   C962      1.0  0.05823  0.93252  0.08112  1.0000
  C   C963      1.0  0.04261  0.94650  0.07933  1.0000
  C   C964      1.0  0.03897  0.95576  0.06158  1.0000
  C   C965      1.0  0.05092  0.95107  0.04541  1.0000
  C   C966      1.0  0.06644  0.93698  0.04715  1.0000
  C   C967      1.0  0.07008  0.92771  0.06492  1.0000
  H   H1135     1.0  0.03335  0.95028  0.09181  1.0000
  H   H1136     1.0  0.02697  0.96657  0.06044  1.0000
  H   H1137     1.0  0.07570  0.93318  0.03469  1.0000
  H   H1138     1.0  0.08198  0.91680  0.06607  1.0000
  C   C968      1.0  0.09949  0.81682  0.10511  1.0000
  C   C969      1.0  0.08423  0.82472  0.09487  1.0000
  C   C970      1.0  0.07287  0.81276  0.08679  1.0000
  C   C971      1.0  0.07647  0.79282  0.08905  1.0000
  C   C972      1.0  0.09142  0.78488  0.09972  1.0000
  C   C973      1.0  0.10299  0.79685  0.10752  1.0000
  H   H1139     1.0  0.08135  0.84005  0.09295  1.0000
  H   H1140     1.0  0.06129  0.81904  0.07864  1.0000
  H   H1141     1.0  0.09417  0.76959  0.10188  1.0000
  H   H1142     1.0  0.11468  0.79063  0.11556  1.0000
  C   C974      1.0  0.09893  0.90479  0.20010  1.0000
  C   C975      1.0  0.08683  0.90284  0.21698  1.0000
  C   C976      1.0  0.08755  0.91472  0.23185  1.0000
  C   C977      1.0  0.10092  0.92824  0.23029  1.0000
  C   C978      1.0  0.11288  0.93034  0.21333  1.0000
  C   C979      1.0  0.11180  0.91881  0.19823  1.0000
  H   H1143     1.0  0.07671  0.89215  0.21847  1.0000
  H   H1144     1.0  0.07770  0.91342  0.24442  1.0000
  H   H1145     1.0  0.12319  0.94084  0.21191  1.0000
  H   H1146     1.0  0.12127  0.92039  0.18539  1.0000
  C   C980      1.0  0.18077  0.91709  0.10181  1.0000
  C   C981      1.0  0.19347  0.92486  0.08738  1.0000
  C   C982      1.0  0.21206  0.92866  0.09100  1.0000
  C   C983      1.0  0.21808  0.92495  0.10922  1.0000
  C   C984      1.0  0.20536  0.91727  0.12369  1.0000
  C   C985      1.0  0.18682  0.91329  0.12001  1.0000
  H   H1147     1.0  0.18895  0.92783  0.07325  1.0000
  H   H1148     1.0  0.22161  0.93466  0.07975  1.0000
  H   H1149     1.0  0.20985  0.91433  0.13783  1.0000
  H   H1150     1.0  0.17723  0.90728  0.13124  1.0000
  C   C986      1.0  0.14584  0.89084  0.30976  1.0000
  C   C987      1.0  0.29987  0.94821  0.17735  1.0000
  H   H1151     1.0  0.28712  0.92148  0.15568  1.0000
  H   H1152     1.0  0.18463  0.88503  0.06786  1.0000
  H   H1153     1.0  0.24303  0.99692  0.31107  1.0000
  N   N64       1.0  0.02494  0.77043  0.12760  1.0000
  C   C988      1.0  0.28078  0.95538  0.17374  1.0000
  H   H1154     1.0  0.45498  0.85380  0.21012  1.0000
  C   C989      1.0  0.11001  0.96428  0.14216  1.0000
  C   C990      1.0  0.14823  0.75307  0.05236  1.0000
  Fe  Fe140     1.0  0.49934  0.76024  0.13242  1.0000
  C   C991      1.0  0.28066  0.95007  0.29780  1.0000
  H   H1155     1.0  0.35915  0.95821  0.02222  1.0000
  H   H1156     1.0  0.08754  0.96951  0.12416  1.0000
  C   C992      1.0  0.05202  0.78991  0.13397  1.0000
  C   C993      1.0  0.11501  0.96150  0.10774  1.0000
  C   C994      1.0  0.44250  0.77741  0.09763  1.0000
  C   C995      1.0  0.36109  0.96707  0.05009  1.0000
  C   C996      1.0  0.11856  0.97498  0.07524  1.0000
  H   H1157     1.0  0.03403  0.85029  0.31564  1.0000
  H   H1158     1.0  0.44979  0.99372  0.18570  1.0000
  H   H1159     1.0  0.25741  0.96069  0.13345  1.0000
  H   H1160     1.0  0.43161  0.96570  0.21631  1.0000
  N   N65       1.0  0.27066  0.94881  0.15848  1.0000
  H   H1161     1.0  0.25694  0.97549  0.18377  1.0000
  C   C997      1.0  0.12941  0.95873  0.14395  1.0000
  C   C998      1.0  0.48825  0.96725  0.20966  1.0000
  H   H1162     1.0  0.45173  0.95937  0.19976  1.0000
  N   N66       1.0  0.36336  0.90732  0.06900  1.0000
  C   C999      1.0  0.38076  0.90146  0.07915  1.0000
  C   C1000     1.0  0.34608  0.90459  0.08230  1.0000
  C   C1001     1.0  0.36341  0.89423  0.05365  1.0000
  C   C1002     1.0  0.36309  0.92767  0.06210  1.0000
  C   C1003     1.0  0.36161  0.93413  0.04277  1.0000
  C   C1004     1.0  0.36371  0.94184  0.07503  1.0000
  C   C1005     1.0  0.36065  0.95356  0.03695  1.0000
  C   C1006     1.0  0.36264  0.96121  0.06908  1.0000
  H   H1163     1.0  0.01045  0.75929  0.10599  1.0000
  H   H1164     1.0  0.38068  0.90895  0.09231  1.0000
  H   H1165     1.0  0.38193  0.88594  0.08358  1.0000
  H   H1166     1.0  0.49309  0.78772  0.05237  1.0000
  H   H1167     1.0  0.34539  0.91315  0.09485  1.0000
  H   H1168     1.0  0.34563  0.88944  0.08778  1.0000
  H   H1169     1.0  0.33274  0.90893  0.07515  1.0000
  H   H1170     1.0  0.37633  0.89513  0.04336  1.0000
  H   H1171     1.0  0.36332  0.87905  0.05929  1.0000
  H   H1172     1.0  0.35033  0.89737  0.04584  1.0000
  H   H1173     1.0  0.36077  0.92453  0.03189  1.0000
  H   H1174     1.0  0.36442  0.93812  0.09000  1.0000
  C   C1007     1.0  0.18217  0.75813  0.05390  1.0000
  H   H1175     1.0  0.36252  0.97172  0.07941  1.0000
  C   C1008     1.0  0.47976  0.83214  0.17225  1.0000
  H   H1176     1.0  0.44721  0.82713  0.15550  1.0000
  C   C1009     1.0  0.28087  0.97627  0.19974  1.0000
  H   H1177     1.0  0.01671  0.83574  0.13617  1.0000
  C   C1010     1.0  0.46446  0.83754  0.18593  1.0000
  C   C1011     1.0  0.04017  0.75436  0.12556  1.0000
  H   H1178     1.0  0.45667  0.98229  0.24459  1.0000
  H   H1179     1.0  0.12619  0.93667  0.08095  1.0000
  C   C1012     1.0  0.23593  0.98410  0.30850  1.0000
  H   H1180     1.0  0.02720  0.91703  0.02780  1.0000
  H   H1181     1.0  0.25714  0.92769  0.17715  1.0000
  H   H1182     1.0  0.29020  0.99254  0.26138  1.0000
  C   C1013     1.0  0.15509  0.90476  0.29845  1.0000
  H   H1183     1.0  0.45078  0.83169  0.18648  1.0000
  C   C1014     1.0  0.15012  0.90954  0.28007  1.0000
  C   C1015     1.0  0.48495  0.77581  0.05105  1.0000
  H   H1184     1.0  0.10729  0.78394  0.06047  1.0000
  C   C1016     1.0  0.46651  0.77982  0.04495  1.0000
  H   H1185     1.0  0.07806  0.95879  0.09795  1.0000
  H   H1186     1.0  0.22300  0.98396  0.31891  1.0000
  H   H1187     1.0  0.05118  0.83724  0.13999  1.0000
  H   H1188     1.0  0.42882  0.99686  0.20222  1.0000
  H   H1189     1.0  0.02407  0.89844  0.01310  1.0000
  H   H1190     1.0  0.31313  0.98797  0.02261  1.0000
  H   H1191     1.0  0.15914  0.77862  0.06144  1.0000
  N   N67       1.0  0.11092  0.87685  0.27636  1.0000
  C   C1017     1.0  0.10633  0.85875  0.28718  1.0000
  C   C1018     1.0  0.09341  0.89038  0.27753  1.0000
  C   C1019     1.0  0.11592  0.87259  0.25622  1.0000
  C   C1020     1.0  0.12659  0.88573  0.28383  1.0000
  C   C1021     1.0  0.13170  0.88151  0.30269  1.0000
  C   C1022     1.0  0.13598  0.90035  0.27287  1.0000
  H   H1192     1.0  0.27466  0.93009  0.13557  1.0000
  H   H1193     1.0  0.23053  0.98592  0.29422  1.0000
  H   H1194     1.0  0.12561  0.76454  0.02488  1.0000
  H   H1195     1.0  0.09962  0.86115  0.30177  1.0000
  H   H1196     1.0  0.09558  0.85157  0.28049  1.0000
  H   H1197     1.0  0.11944  0.84857  0.28819  1.0000
  H   H1198     1.0  0.08850  0.89300  0.29251  1.0000
  H   H1199     1.0  0.08135  0.88501  0.27111  1.0000
  H   H1200     1.0  0.09613  0.90446  0.27016  1.0000
  H   H1201     1.0  0.13026  0.86433  0.25431  1.0000
  H   H1202     1.0  0.10519  0.86425  0.25090  1.0000
  H   H1203     1.0  0.11607  0.88566  0.24642  1.0000
  H   H1204     1.0  0.08374  0.98317  0.09313  1.0000
  H   H1205     1.0  0.13189  0.90550  0.25896  1.0000
  H   H1206     1.0  0.46078  0.79444  0.04185  1.0000
  H   H1207     1.0  0.08199  0.96831  0.07419  1.0000
  H   H1208     1.0  0.24267  0.95004  0.17432  1.0000
  N   N68       1.0  0.25200  0.87965  0.06872  1.0000
  C   C1023     1.0  0.25290  0.88977  0.04955  1.0000
  C   C1024     1.0  0.26094  0.89126  0.08126  1.0000
  C   C1025     1.0  0.26375  0.86105  0.06725  1.0000
  C   C1026     1.0  0.23219  0.87657  0.07678  1.0000
  C   C1027     1.0  0.21565  0.88265  0.06698  1.0000
  C   C1028     1.0  0.22899  0.86739  0.09517  1.0000
  C   C1029     1.0  0.19716  0.87978  0.07525  1.0000
  C   C1030     1.0  0.21042  0.86473  0.10332  1.0000
  C   C1031     1.0  0.19454  0.87095  0.09339  1.0000
  H   H1209     1.0  0.24499  0.90425  0.04977  1.0000
  H   H1210     1.0  0.26799  0.89190  0.04395  1.0000
  H   H1211     1.0  0.24701  0.88155  0.03911  1.0000
  H   H1212     1.0  0.25208  0.90504  0.08334  1.0000
  C   C1032     1.0  0.46125  0.82531  0.14688  1.0000
  H   H1213     1.0  0.45944  0.81522  0.13602  1.0000
  C   C1033     1.0  0.45687  0.76536  0.10624  1.0000
  H   H1214     1.0  0.27894  0.93806  0.30801  1.0000
  H   H1215     1.0  0.18010  0.86934  0.09990  1.0000
  H   H1216     1.0  0.45882  0.80126  0.17790  1.0000
  H   H1217     1.0  0.10037  0.96695  0.15474  1.0000
  H   H1218     1.0  0.43288  0.98982  0.23771  1.0000
  H   H1219     1.0  0.26078  0.99414  0.28227  1.0000
  C   C1034     1.0  0.29751  0.94954  0.28555  1.0000
  S   S279      1.0  0.47277  0.77551  0.11971  1.0000
  H   H1220     1.0  0.24627  0.93614  0.31195  1.0000
  Fe  Fe141     1.0  0.35059  0.99793  0.25389  1.0000
  S   S280      1.0  0.27551  0.99402  0.04479  1.0000
  H   H1221     1.0  0.44066  0.76824  0.03915  1.0000
  C   C1035     1.0  0.45518  0.76510  0.04334  1.0000
  Fe  Fe142     1.0  0.39168  0.75899  0.05569  1.0000
  H   H1222     1.0  0.19292  0.76711  0.05701  1.0000
  C   C1036     1.0  0.47564  0.98428  0.21095  1.0000
  C   C1037     1.0  0.02650  0.82286  0.13563  1.0000
  H   H1223     1.0  0.30831  0.93747  0.28658  1.0000
  C   C1038     1.0  0.01400  0.99232  0.30919  1.0000
  H   H1224     1.0  0.32563  0.96283  0.33064  1.0000
  H   H1225     1.0  0.00601  0.90441  0.03188  1.0000
  H   H1226     1.0  0.11272  0.97651  0.06112  1.0000
  H   H1227     1.0  0.10264  0.93238  0.09134  1.0000
  C   C1039     1.0  0.28264  0.93465  0.14695  1.0000
  H   H1228     1.0  0.12453  0.87152  0.31251  1.0000
  H   H1229     1.0  0.13479  0.95714  0.15783  1.0000
  C   C1040     1.0  0.27036  0.98125  0.28355  1.0000
  H   H1230     1.0  0.03887  0.00245  0.29299  1.0000
  Fe  Fe143     1.0  0.35581  0.75388  0.03510  1.0000
  C   C1041     1.0  0.49917  0.85344  0.18621  1.0000
  C   C1042     1.0  0.46666  0.85024  0.19949  1.0000
  H   H1231     1.0  0.25420  0.97592  0.15239  1.0000
  C   C1043     1.0  0.04475  0.85176  0.32523  1.0000
  H   H1232     1.0  0.12978  0.78931  0.04828  1.0000
  C   C1044     1.0  0.26659  0.96600  0.29728  1.0000
  H   H1233     1.0  0.10600  0.94232  0.06740  1.0000
  H   H1234     1.0  0.30835  0.93780  0.16894  1.0000
  H   H1235     1.0  0.30717  0.97482  0.21331  1.0000
  H   H1236     1.0  0.48408  0.79428  0.17816  1.0000
  C   C1045     1.0  0.08703  0.96843  0.08857  1.0000
  N   N69       1.0  0.24912  0.96639  0.31079  1.0000
  H   H1237     1.0  0.39404  0.90448  0.06999  1.0000
  C   C1046     1.0  0.16261  0.76460  0.05634  1.0000
  H   H1238     1.0  0.10275  0.76279  0.03845  1.0000
  C   C1047     1.0  0.26464  0.96526  0.14537  1.0000
  C   C1048     1.0  0.11085  0.94254  0.08181  1.0000
  C   C1049     1.0  0.04588  0.82376  0.13786  1.0000
  N   N70       1.0  0.10784  0.96193  0.08876  1.0000
  C   C1050     1.0  0.14177  0.95475  0.12793  1.0000
  H   H1239     1.0  0.49225  0.80350  0.13505  1.0000
  H   H1240     1.0  0.05289  0.87844  0.31129  1.0000
  H   H1241     1.0  0.13401  0.96974  0.07268  1.0000
  H   H1242     1.0  0.14487  0.95248  0.09821  1.0000
  N   N71       1.0  0.45450  0.98429  0.21458  1.0000
  H   H1243     1.0  0.01971  0.90501  0.31916  1.0000
  H   H1244     1.0  0.15680  0.94997  0.12934  1.0000
  C   C1051     1.0  0.44470  0.99739  0.20038  1.0000
  H   H1245     1.0  0.45324  0.95488  0.22497  1.0000
  H   H1246     1.0  0.29570  0.94070  0.13976  1.0000
  H   H1247     1.0  0.49874  0.81024  0.22731  1.0000
  N   N72       1.0  0.47725  0.81811  0.15851  1.0000
  H   H1248     1.0  0.14754  0.94962  0.32203  1.0000
  C   C1052     1.0  0.05531  0.86785  0.32285  1.0000
  H   H1249     1.0  0.16567  0.91228  0.30417  1.0000
  C   C1053     1.0  0.28721  0.98049  0.27128  1.0000
  H   H1250     1.0  0.48315  0.95326  0.21131  1.0000
  C   C1054     1.0  0.13476  0.95622  0.11009  1.0000
  H   H1251     1.0  0.49533  0.82773  0.30536  1.0000
  C   C1055     1.0  0.25329  0.93983  0.16683  1.0000
  C   C1056     1.0  0.31701  0.99910  0.29707  1.0000
  C   C1057     1.0  0.44759  0.96523  0.21379  1.0000
  H   H1252     1.0  0.02511  0.77815  0.09770  1.0000
  C   C1058     1.0  0.01627  0.91050  0.02064  1.0000
  S   S281      1.0  0.33863  0.99771  0.18573  1.0000
  H   H1253     1.0  0.15671  0.92094  0.27154  1.0000
  C   C1059     1.0  0.42923  0.77000  0.08724  1.0000
  H   H1254     1.0  0.27373  0.98743  0.20823  1.0000
  H   H1255     1.0  0.31305  0.00178  0.15627  1.0000
  H   H1256     1.0  0.48594  0.86747  0.21055  1.0000
  C   C1060     1.0  0.29963  0.96910  0.20276  1.0000
  H   H1257     1.0  0.11775  0.98942  0.08060  1.0000
  C   C1061     1.0  0.12305  0.77952  0.05944  1.0000
  H   H1258     1.0  0.50180  0.79422  0.29577  1.0000
  H   H1259     1.0  0.07365  0.80814  0.13884  1.0000
  C   C1062     1.0  0.02689  0.75964  0.30532  1.0000
  C   C1063     1.0  0.30537  0.00072  0.01668  1.0000
  H   H1260     1.0  0.12791  0.78206  0.07339  1.0000
  C   C1064     1.0  0.29296  0.00117  0.32438  1.0000
  C   C1065     1.0  0.05854  0.80730  0.13721  1.0000
  H   H1261     1.0  0.31411  0.96457  0.26325  1.0000
  C   C1066     1.0  0.01977  0.80553  0.13252  1.0000
  C   C1067     1.0  0.48403  0.85809  0.19968  1.0000
  H   H1262     1.0  0.35990  0.98212  0.04559  1.0000
  H   H1263     1.0  0.05116  0.75776  0.11375  1.0000
  C   C1068     1.0  0.49257  0.75683  0.05582  1.0000
  C   C1069     1.0  0.30898  0.95493  0.19179  1.0000
  H   H1264     1.0  0.23424  0.95019  0.29359  1.0000
  C   C1070     1.0  0.23812  0.95006  0.30839  1.0000
  C   C1071     1.0  0.01523  0.77293  0.10980  1.0000
  C   C1072     1.0  0.02762  0.91353  0.32771  1.0000
  C   C1073     1.0  0.01001  0.76305  0.29629  1.0000
  C   C1074     1.0  0.01087  0.76479  0.14345  1.0000
  N   N73       1.0  0.12738  0.75927  0.05493  1.0000
  C   C1075     1.0  0.49463  0.81393  0.14529  1.0000
  H   H1265     1.0  0.14923  0.88764  0.32430  1.0000
  H   H1266     1.0  0.00924  0.94771  0.02505  1.0000
  H   H1267     1.0  0.50108  0.75793  0.09129  1.0000
  H   H1268     1.0  0.01754  0.76322  0.15715  1.0000
  H   H1269     1.0  0.00463  0.80556  0.13091  1.0000
  C   C1076     1.0  0.49726  0.84054  0.17277  1.0000
  C   C1077     1.0  0.48429  0.00169  0.20948  1.0000
  S   S282      1.0  0.50150  0.87891  0.27856  1.0000
  C   C1078     1.0  0.11818  0.75701  0.03739  1.0000
  S   S283      1.0  0.07187  0.94519  0.33235  1.0000
  Fe  Fe144     1.0  0.26411  0.98456  0.37163  1.0000
  H   H1270     1.0  0.32386  0.95450  0.65970  1.0000
  S   S284      1.0  0.29314  0.97529  0.35595  1.0000
  Fe  Fe145     1.0  0.23927  0.97713  0.40924  1.0000
  H   H1271     1.0  0.49937  0.81444  0.59381  1.0000
  S   S285      1.0  0.23403  0.96688  0.44035  1.0000
  Fe  Fe146     1.0  0.22063  0.98262  0.37107  1.0000
  C   C1079     1.0  0.06932  0.76171  0.44671  1.0000
  C   C1080     1.0  0.11586  0.81675  0.49996  1.0000
  S   S286      1.0  0.24436  0.96204  0.38234  1.0000
  S   S287      1.0  0.08579  0.76610  0.40980  1.0000
  H   H1272     1.0  0.47616  0.82292  0.60478  1.0000
  S   S288      1.0  0.03500  0.79334  0.39655  1.0000
  C   C1081     1.0  0.31776  0.80733  0.58742  1.0000
  C   C1082     1.0  0.50085  0.80282  0.52562  1.0000
  Fe  Fe147     1.0  0.03565  0.79267  0.36494  1.0000
  H   H1273     1.0  0.07433  0.75435  0.55390  1.0000
  C   C1083     1.0  0.08801  0.75651  0.47432  1.0000
  S   S289      1.0  0.06028  0.76990  0.36355  1.0000
  C   C1084     1.0  0.26377  0.80442  0.58892  1.0000
  H   H1274     1.0  0.29110  0.99633  0.64379  1.0000
  S   S290      1.0  0.26344  0.97572  0.62945  1.0000
  S   S291      1.0  0.01990  0.79618  0.61016  1.0000
  Fe  Fe148     1.0  0.26640  0.88796  0.51691  1.0000
  S   S292      1.0  0.23656  0.88827  0.53177  1.0000
  S   S293      1.0  0.27536  0.89547  0.48583  1.0000
  Fe  Fe149     1.0  0.28592  0.87319  0.55258  1.0000
  S   S294      1.0  0.25751  0.87301  0.57025  1.0000
  S   S295      1.0  0.31377  0.86619  0.56701  1.0000
  Fe  Fe150     1.0  0.24682  0.85973  0.54582  1.0000
  S   S296      1.0  0.23292  0.83166  0.55353  1.0000
  Fe  Fe151     1.0  0.24953  0.90138  0.55502  1.0000
  S   S297      1.0  0.23377  0.92790  0.56772  1.0000
  S   S298      1.0  0.27597  0.85844  0.52912  1.0000
  S   S299      1.0  0.27863  0.90266  0.53919  1.0000
  Fe  Fe152     1.0  0.43471  0.77040  0.58997  1.0000
  S   S300      1.0  0.43619  0.77804  0.55862  1.0000
  Fe  Fe153     1.0  0.43630  0.81221  0.59899  1.0000
  S   S301      1.0  0.43760  0.82253  0.56804  1.0000
  S   S302      1.0  0.43576  0.83601  0.61916  1.0000
  Fe  Fe154     1.0  0.41456  0.80288  0.56631  1.0000
  S   S303      1.0  0.38863  0.80893  0.54886  1.0000
  Fe  Fe155     1.0  0.45898  0.79705  0.56292  1.0000
  S   S304      1.0  0.48983  0.79654  0.54862  1.0000
  S   S305      1.0  0.41181  0.79407  0.59752  1.0000
  S   S306      1.0  0.45888  0.78788  0.59406  1.0000
  S   S307      1.0  0.11324  0.77212  0.53859  1.0000
  C   C1085     1.0  0.16427  0.98482  0.35501  1.0000
  Fe  Fe156     1.0  0.14573  0.76823  0.53416  1.0000
  S   S308      1.0  0.16041  0.79588  0.52649  1.0000
  C   C1086     1.0  0.06069  0.75903  0.54732  1.0000
  H   H1275     1.0  0.47477  0.81310  0.51301  1.0000
  C   C1087     1.0  0.21263  0.82208  0.54579  1.0000
  C   C1088     1.0  0.20772  0.80409  0.55365  1.0000
  C   C1089     1.0  0.19185  0.79584  0.54800  1.0000
  C   C1090     1.0  0.18063  0.80548  0.53436  1.0000
  C   C1091     1.0  0.18555  0.82346  0.52648  1.0000
  C   C1092     1.0  0.20141  0.83171  0.53214  1.0000
  H   H1276     1.0  0.21622  0.79648  0.56424  1.0000
  H   H1277     1.0  0.18829  0.78205  0.55423  1.0000
  H   H1278     1.0  0.17702  0.83112  0.51595  1.0000
  H   H1279     1.0  0.20493  0.84554  0.52595  1.0000
  C   C1093     1.0  0.33438  0.85012  0.56159  1.0000
  C   C1094     1.0  0.35006  0.84948  0.57260  1.0000
  C   C1095     1.0  0.36660  0.83672  0.56914  1.0000
  C   C1096     1.0  0.36767  0.82445  0.55452  1.0000
  C   C1097     1.0  0.35189  0.82491  0.54365  1.0000
  C   C1098     1.0  0.33530  0.83762  0.54718  1.0000
  H   H1280     1.0  0.34943  0.85895  0.58391  1.0000
  H   H1281     1.0  0.37862  0.83653  0.57762  1.0000
  H   H1282     1.0  0.35259  0.81548  0.53231  1.0000
  H   H1283     1.0  0.32327  0.83770  0.53881  1.0000
  H   H1284     1.0  0.26194  0.79724  0.60339  1.0000
  C   C1099     1.0  0.09445  0.80525  0.46947  1.0000
  C   C1100     1.0  0.24616  0.96973  0.52225  1.0000
  C   C1101     1.0  0.44948  0.83792  0.63856  1.0000
  H   H1285     1.0  0.25113  0.97351  0.49194  1.0000
  H   H1286     1.0  0.31926  0.82240  0.58529  1.0000
  H   H1287     1.0  0.50228  0.76279  0.45693  1.0000
  C   C1102     1.0  0.01816  0.89467  0.35631  1.0000
  C   C1103     1.0  0.04137  0.78159  0.60459  1.0000
  C   C1104     1.0  0.05542  0.78867  0.59119  1.0000
  C   C1105     1.0  0.07262  0.77740  0.58620  1.0000
  H   H1288     1.0  0.03054  0.94094  0.35067  1.0000
  H   H1289     1.0  0.05294  0.80290  0.58454  1.0000
  C   C1106     1.0  0.00377  0.82932  0.65234  1.0000
  C   C1107     1.0  0.24192  0.94029  0.58563  1.0000
  C   C1108     1.0  0.23051  0.95637  0.59221  1.0000
  C   C1109     1.0  0.23687  0.96731  0.60566  1.0000
  C   C1110     1.0  0.25464  0.96211  0.61287  1.0000
  C   C1111     1.0  0.26592  0.94583  0.60658  1.0000
  C   C1112     1.0  0.25967  0.93504  0.59292  1.0000
  H   H1290     1.0  0.21667  0.96041  0.58680  1.0000
  H   H1291     1.0  0.22793  0.97964  0.61056  1.0000
  H   H1292     1.0  0.27964  0.94162  0.61214  1.0000
  H   H1293     1.0  0.26857  0.92268  0.58801  1.0000
  S   S309      1.0  0.20245  0.96867  0.35174  1.0000
  H   H1294     1.0  0.47976  0.82145  0.57978  1.0000
  H   H1295     1.0  0.05705  0.75905  0.47567  1.0000
  H   H1296     1.0  0.29217  0.83878  0.59572  1.0000
  C   C1113     1.0  0.26036  0.99664  0.50564  1.0000
  C   C1114     1.0  0.04784  0.83760  0.34000  1.0000
  H   H1297     1.0  0.47891  0.87304  0.58377  1.0000
  C   C1115     1.0  0.49026  0.81064  0.51071  1.0000
  H   H1298     1.0  0.04365  0.75611  0.51195  1.0000
  H   H1299     1.0  0.21139  0.99099  0.46755  1.0000
  C   C1116     1.0  0.07231  0.85573  0.34991  1.0000
  C   C1117     1.0  0.06181  0.83961  0.35224  1.0000
  H   H1300     1.0  0.46265  0.80905  0.63953  1.0000
  C   C1118     1.0  0.14367  0.81933  0.47791  1.0000
  H   H1301     1.0  0.06437  0.82884  0.36364  1.0000
  C   C1119     1.0  0.24575  0.94686  0.45252  1.0000
  C   C1120     1.0  0.23975  0.94263  0.47171  1.0000
  C   C1121     1.0  0.24873  0.92699  0.48209  1.0000
  C   C1122     1.0  0.26377  0.91537  0.47331  1.0000
  C   C1123     1.0  0.26983  0.91963  0.45415  1.0000
  C   C1124     1.0  0.26088  0.93533  0.44377  1.0000
  H   H1302     1.0  0.22794  0.95136  0.47854  1.0000
  H   H1303     1.0  0.24388  0.92379  0.49680  1.0000
  H   H1304     1.0  0.28143  0.91069  0.44724  1.0000
  H   H1305     1.0  0.26560  0.93844  0.42901  1.0000
  C   C1125     1.0  0.33457  0.79507  0.58879  1.0000
  C   C1126     1.0  0.17768  0.97081  0.34738  1.0000
  C   C1127     1.0  0.01640  0.85669  0.37226  1.0000
  H   H1306     1.0  0.01117  0.82407  0.63894  1.0000
  H   H1307     1.0  0.28144  0.82298  0.61395  1.0000
  C   C1128     1.0  0.11852  0.82036  0.44838  1.0000
  C   C1129     1.0  0.03218  0.84120  0.66168  1.0000
  H   H1308     1.0  0.03411  0.75773  0.62372  1.0000
  C   C1130     1.0  0.01348  0.76382  0.51241  1.0000
  H   H1309     1.0  0.03975  0.83806  0.64765  1.0000
  N   N74       1.0  0.01897  0.91432  0.34750  1.0000
  C   C1131     1.0  0.27060  0.98703  0.57025  1.0000
  S   S310      1.0  0.03342  0.81812  0.34294  1.0000
  H   H1310     1.0  0.34844  0.80082  0.58762  1.0000
  C   C1132     1.0  0.46141  0.82258  0.64587  1.0000
  C   C1133     1.0  0.11287  0.81219  0.46676  1.0000
  H   H1311     1.0  0.15269  0.81762  0.49015  1.0000
  C   C1134     1.0  0.03060  0.92613  0.35740  1.0000
  C   C1135     1.0  0.07022  0.75899  0.46645  1.0000
  S   S311      1.0  0.01322  0.77164  0.36641  1.0000
  H   H1312     1.0  0.13233  0.82578  0.44484  1.0000
  C   C1136     1.0  0.14493  0.98619  0.35065  1.0000
  H   H1313     1.0  0.26396  0.97339  0.57296  1.0000
  H   H1314     1.0  0.05534  0.77446  0.64801  1.0000
  H   H1315     1.0  0.28507  0.98370  0.56275  1.0000
  C   C1137     1.0  0.49929  0.84887  0.60828  1.0000
  H   H1316     1.0  0.01427  0.76850  0.49747  1.0000
  C   C1138     1.0  0.47138  0.82458  0.66178  1.0000
  H   H1317     1.0  0.24006  0.95624  0.52205  1.0000
  C   C1139     1.0  0.04478  0.76327  0.61327  1.0000
  H   H1318     1.0  0.48790  0.84757  0.62028  1.0000
  H   H1319     1.0  0.01615  0.84199  0.37793  1.0000
  C   C1140     1.0  0.33364  0.77546  0.59133  1.0000
  H   H1320     1.0  0.07938  0.81458  0.42536  1.0000
  C   C1141     1.0  0.07599  0.75902  0.59476  1.0000
  H   H1321     1.0  0.49140  0.76018  0.52794  1.0000
  C   C1142     1.0  0.25239  0.97943  0.50532  1.0000
  C   C1143     1.0  0.13162  0.78889  0.48556  1.0000
  N   N75       1.0  0.49237  0.84479  0.59005  1.0000
  H   H1322     1.0  0.24297  0.96893  0.55225  1.0000
  H   H1323     1.0  0.05555  0.76359  0.44082  1.0000
  H   H1324     1.0  0.27255  0.99177  0.58446  1.0000
  H   H1325     1.0  0.46729  0.85441  0.57506  1.0000
  C   C1144     1.0  0.08848  0.81433  0.43689  1.0000
  S   S312      1.0  0.21411  0.99620  0.39886  1.0000
  C   C1145     1.0  0.17144  0.95817  0.33544  1.0000
  Fe  Fe157     1.0  0.01432  0.77065  0.39820  1.0000
  H   H1326     1.0  0.08298  0.85717  0.35958  1.0000
  S   S313      1.0  0.26112  0.99783  0.39971  1.0000
  C   C1146     1.0  0.47505  0.85818  0.58692  1.0000
  N   N76       1.0  0.33126  0.87369  0.49696  1.0000
  C   C1147     1.0  0.31885  0.85848  0.49440  1.0000
  C   C1148     1.0  0.32121  0.88557  0.51188  1.0000
  C   C1149     1.0  0.33301  0.88603  0.47912  1.0000
  C   C1150     1.0  0.35056  0.86508  0.50156  1.0000
  C   C1151     1.0  0.36158  0.85246  0.48922  1.0000
  C   C1152     1.0  0.35890  0.86872  0.51820  1.0000
  C   C1153     1.0  0.37947  0.84350  0.49362  1.0000
  C   C1154     1.0  0.37690  0.85984  0.52234  1.0000
  C   C1155     1.0  0.38703  0.84706  0.51024  1.0000
  H   H1327     1.0  0.31796  0.84829  0.50712  1.0000
  H   H1328     1.0  0.30389  0.86444  0.49196  1.0000
  H   H1329     1.0  0.32405  0.85022  0.48199  1.0000
  H   H1330     1.0  0.31889  0.87704  0.52564  1.0000
  H   H1331     1.0  0.30678  0.89176  0.50803  1.0000
  H   H1332     1.0  0.32920  0.89788  0.51405  1.0000
  H   H1333     1.0  0.33904  0.87790  0.46683  1.0000
  H   H1334     1.0  0.31869  0.89302  0.47548  1.0000
  H   H1335     1.0  0.34247  0.89749  0.48032  1.0000
  H   H1336     1.0  0.35630  0.84920  0.47620  1.0000
  H   H1337     1.0  0.35161  0.87786  0.52864  1.0000
  H   H1338     1.0  0.38741  0.83349  0.48429  1.0000
  H   H1339     1.0  0.38268  0.86222  0.53546  1.0000
  H   H1340     1.0  0.40058  0.83961  0.51399  1.0000
  C   C1156     1.0  0.28336  0.82244  0.56616  1.0000
  C   C1157     1.0  0.29896  0.78022  0.59093  1.0000
  H   H1341     1.0  0.49138  0.82135  0.48133  1.0000
  C   C1158     1.0  0.24800  0.97713  0.53956  1.0000
  H   H1342     1.0  0.29594  0.83087  0.56309  1.0000
  H   H1343     1.0  0.27043  0.83236  0.56351  1.0000
  H   H1344     1.0  0.28455  0.81147  0.55562  1.0000
  H   H1345     1.0  0.28574  0.77354  0.59164  1.0000
  H   H1346     1.0  0.08328  0.78295  0.57577  1.0000
  C   C1159     1.0  0.04606  0.78094  0.65932  1.0000
  H   H1347     1.0  0.38225  0.85682  0.65990  1.0000
  C   C1160     1.0  0.06899  0.87005  0.33537  1.0000
  C   C1161     1.0  0.00631  0.88211  0.34947  1.0000
  H   H1348     1.0  0.12574  0.81587  0.51145  1.0000
  C   C1162     1.0  0.25638  0.99445  0.54047  1.0000
  C   C1163     1.0  0.10495  0.75692  0.46227  1.0000
  H   H1349     1.0  0.04087  0.80698  0.64281  1.0000
  C   C1164     1.0  0.08625  0.76236  0.43467  1.0000
  S   S314      1.0  0.08266  0.89007  0.33337  1.0000
  H   H1350     1.0  0.33039  0.97341  0.64266  1.0000
  H   H1351     1.0  0.03735  0.86292  0.39029  1.0000
  H   H1352     1.0  0.43895  0.86736  0.64148  1.0000
  C   C1165     1.0  0.10404  0.76005  0.44254  1.0000
  H   H1353     1.0  0.30798  0.96366  0.64197  1.0000
  C   C1166     1.0  0.31816  0.96773  0.65173  1.0000
  N   N77       1.0  0.25877  0.00158  0.55906  1.0000
  C   C1167     1.0  0.03782  0.79968  0.65657  1.0000
  H   H1354     1.0  0.11001  0.83190  0.49767  1.0000
  C   C1168     1.0  0.30181  0.99926  0.65345  1.0000
  H   H1355     1.0  0.05371  0.77178  0.55438  1.0000
  H   H1356     1.0  0.26286  0.79400  0.57818  1.0000
  H   H1357     1.0  0.06856  0.80083  0.45710  1.0000
  C   C1169     1.0  0.29942  0.80033  0.58838  1.0000
  N   N78       1.0  0.28202  0.81366  0.58579  1.0000
  H   H1358     1.0  0.02494  0.92725  0.37248  1.0000
  H   H1359     1.0  0.11114  0.82722  0.41969  1.0000
  H   H1360     1.0  0.07394  0.98625  0.33936  1.0000
  H   H1361     1.0  0.04598  0.92024  0.35682  1.0000
  H   H1362     1.0  0.10386  0.80835  0.50586  1.0000
  Fe  Fe158     1.0  0.05796  0.76881  0.39537  1.0000
  H   H1363     1.0  0.08948  0.79809  0.48278  1.0000
  C   C1170     1.0  0.45812  0.85739  0.66294  1.0000
  C   C1171     1.0  0.31587  0.76805  0.59247  1.0000
  C   C1172     1.0  0.00547  0.86343  0.35739  1.0000
  C   C1173     1.0  0.02939  0.88721  0.37132  1.0000
  N   N79       1.0  0.30860  0.98179  0.66483  1.0000
  C   C1174     1.0  0.28064  0.82902  0.59908  1.0000
  H   H1364     1.0  0.25095  0.81499  0.58740  1.0000
  H   H1365     1.0  0.15304  0.81325  0.46591  1.0000
  H   H1366     1.0  0.13836  0.78262  0.47236  1.0000
  H   H1367     1.0  0.24422  0.99909  0.46104  1.0000
  H   H1368     1.0  0.11920  0.78077  0.49087  1.0000
  C   C1175     1.0  0.02837  0.86851  0.37916  1.0000
  H   H1369     1.0  0.14030  0.83491  0.47474  1.0000
  C   C1176     1.0  0.08242  0.80653  0.45479  1.0000
  N   N80       1.0  0.12584  0.80951  0.48219  1.0000
  H   H1370     1.0  0.34674  0.76600  0.59228  1.0000
  C   C1177     1.0  0.10644  0.82132  0.43372  1.0000
  H   H1371     1.0  0.26690  0.83838  0.59845  1.0000
  C   C1178     1.0  0.44808  0.85537  0.64706  1.0000
  H   H1372     1.0  0.14226  0.78618  0.49628  1.0000
  C   C1179     1.0  0.48669  0.82508  0.59223  1.0000
  C   C1180     1.0  0.03020  0.75665  0.52082  1.0000
  H   H1373     1.0  0.46435  0.85809  0.59956  1.0000
  H   H1374     1.0  0.03938  0.89533  0.37704  1.0000
  H   H1375     1.0  0.05370  0.99538  0.35410  1.0000
  H   H1376     1.0  0.23173  0.99248  0.57213  1.0000
  H   H1377     1.0  0.16881  0.99467  0.36417  1.0000
  H   H1378     1.0  0.13474  0.99715  0.35658  1.0000
  H   H1379     1.0  0.48798  0.83998  0.55277  1.0000
  C   C1181     1.0  0.49975  0.81531  0.49274  1.0000
  H   H1380     1.0  0.34192  0.99927  0.65582  1.0000
  H   H1381     1.0  0.28094  0.97088  0.66451  1.0000
  C   C1182     1.0  0.06104  0.99680  0.33955  1.0000
  C   C1183     1.0  0.13868  0.97353  0.33875  1.0000
  H   H1382     1.0  0.24203  0.96485  0.34099  1.0000
  S   S315      1.0  0.11415  0.97622  0.33352  1.0000
  H   H1383     1.0  0.11873  0.75476  0.46810  1.0000
  H   H1384     1.0  0.06491  0.76373  0.53238  1.0000
  H   H1385     1.0  0.26415  0.95171  0.33391  1.0000
  H   H1386     1.0  0.02627  0.85644  0.66028  1.0000
  H   H1387     1.0  0.20544  0.00105  0.44501  1.0000
  H   H1388     1.0  0.40367  0.82728  0.65530  1.0000
  H   H1389     1.0  0.11719  0.76052  0.43329  1.0000
  C   C1184     1.0  0.50208  0.84373  0.55512  1.0000
  S   S316      1.0  0.08808  0.75320  0.49926  1.0000
  C   C1185     1.0  0.30197  0.98473  0.33323  1.0000
  H   H1390     1.0  0.26269  0.97710  0.33289  1.0000
  C   C1186     1.0  0.02548  0.80858  0.67100  1.0000
  H   H1391     1.0  0.01215  0.89551  0.98381  1.0000
  Fe  Fe159     1.0  0.48232  0.86313  0.71497  1.0000
  S   S317      1.0  0.46372  0.85743  0.74208  1.0000
  S   S318      1.0  0.48185  0.84307  0.69120  1.0000
  Fe  Fe160     1.0  0.46072  0.88936  0.74384  1.0000
  S   S319      1.0  0.43189  0.90566  0.75203  1.0000
  Fe  Fe161     1.0  0.49046  0.85747  0.75691  1.0000
  H   H1392     1.0  0.48879  0.97265  0.74298  1.0000
  H   H1393     1.0  0.40090  0.85397  0.73387  1.0000
  H   H1394     1.0  0.38619  0.77084  0.93524  1.0000
  H   H1395     1.0  0.48586  0.78052  0.95184  1.0000
  S   S320      1.0  0.47690  0.76880  0.89400  1.0000
  C   C1187     1.0  0.48871  0.82008  0.79570  1.0000
  H   H1396     1.0  0.04312  0.83983  0.67216  1.0000
  C   C1188     1.0  0.48916  0.79373  0.82028  1.0000
  H   H1397     1.0  0.40302  0.89677  0.72529  1.0000
  H   H1398     1.0  0.48284  0.94853  0.74274  1.0000
  C   C1189     1.0  0.32243  0.98636  0.67789  1.0000
  H   H1399     1.0  0.34779  0.78346  0.97113  1.0000
  H   H1400     1.0  0.30793  0.97499  0.70465  1.0000
  H   H1401     1.0  0.37921  0.75476  0.98573  1.0000
  C   C1190     1.0  0.43530  0.76832  0.94283  1.0000
  C   C1191     1.0  0.42424  0.78042  0.95541  1.0000
  H   H1402     1.0  0.44128  0.77408  0.92923  1.0000
  H   H1403     1.0  0.42181  0.79550  0.95141  1.0000
  C   C1192     1.0  0.42638  0.97130  0.74865  1.0000
  C   C1193     1.0  0.41237  0.96117  0.75919  1.0000
  C   C1194     1.0  0.41408  0.94108  0.75997  1.0000
  C   C1195     1.0  0.42987  0.93093  0.75038  1.0000
  C   C1196     1.0  0.44367  0.94108  0.73956  1.0000
  C   C1197     1.0  0.44187  0.96115  0.73864  1.0000
  H   H1404     1.0  0.42918  0.81764  0.67667  1.0000
  H   H1405     1.0  0.40327  0.93337  0.76832  1.0000
  H   H1406     1.0  0.45568  0.93345  0.73180  1.0000
  H   H1407     1.0  0.45261  0.96888  0.73023  1.0000
  H   H1408     1.0  0.43370  0.88699  0.69208  1.0000
  H   H1409     1.0  0.35910  0.00000  0.71168  1.0000
  H   H1410     1.0  0.43665  0.88846  0.71666  1.0000
  Fe  Fe162     1.0  0.47132  0.76262  0.86461  1.0000
  H   H1411     1.0  0.48728  0.83337  0.84331  1.0000
  H   H1412     1.0  0.46568  0.97739  0.76987  1.0000
  C   C1198     1.0  0.38676  0.75550  0.93675  1.0000
  C   C1199     1.0  0.41046  0.85910  0.69645  1.0000
  H   H1413     1.0  0.02657  0.77017  0.70391  1.0000
  H   H1414     1.0  0.49450  0.93380  0.79180  1.0000
  C   C1200     1.0  0.28364  0.99736  0.95333  1.0000
  C   C1201     1.0  0.02172  0.79740  0.68827  1.0000
  C   C1202     1.0  0.45938  0.81286  0.81498  1.0000
  H   H1415     1.0  0.29662  0.98773  0.95148  1.0000
  S   S321      1.0  0.45701  0.78452  0.84382  1.0000
  C   C1203     1.0  0.46892  0.82394  0.80030  1.0000
  C   C1204     1.0  0.39571  0.86410  0.68405  1.0000
  H   H1416     1.0  0.49702  0.78199  0.82773  1.0000
  S   S322      1.0  0.40168  0.78872  0.98809  1.0000
  C   C1205     1.0  0.41467  0.86037  0.72986  1.0000
  S   S323      1.0  0.47735  0.89506  0.71574  1.0000
  H   H1417     1.0  0.29503  0.95980  0.68256  1.0000
  H   H1418     1.0  0.43439  0.83753  0.70169  1.0000
  C   C1206     1.0  0.00805  0.99522  0.76686  1.0000
  H   H1419     1.0  0.37263  0.78213  0.96308  1.0000
  H   H1420     1.0  0.38514  0.88366  0.71742  1.0000
  H   H1421     1.0  0.39984  0.89809  0.70071  1.0000
  N   N81       1.0  0.01683  0.82844  0.66762  1.0000
  C   C1207     1.0  0.41956  0.83041  0.67903  1.0000
  H   H1422     1.0  0.47704  0.76143  0.80450  1.0000
  H   H1423     1.0  0.46790  0.96273  0.79186  1.0000
  H   H1424     1.0  0.49404  0.80325  0.85668  1.0000
  H   H1425     1.0  0.42647  0.84864  0.73003  1.0000
  H   H1426     1.0  0.01095  0.99798  0.94190  1.0000
  C   C1208     1.0  0.46948  0.79784  0.82518  1.0000
  H   H1427     1.0  0.04819  0.75572  0.67828  1.0000
  N   N82       1.0  0.41432  0.87145  0.71123  1.0000
  C   C1209     1.0  0.02993  0.77858  0.69079  1.0000
  H   H1428     1.0  0.01313  0.94173  0.98200  1.0000
  C   C1210     1.0  0.49344  0.93562  0.77624  1.0000
  C   C1211     1.0  0.04208  0.77038  0.67636  1.0000
  H   H1429     1.0  0.47256  0.75349  0.78229  1.0000
  H   H1430     1.0  0.45285  0.76132  0.79929  1.0000
  H   H1431     1.0  0.47639  0.75957  0.97928  1.0000
  H   H1432     1.0  0.01216  0.80267  0.69991  1.0000
  C   C1212     1.0  0.41615  0.77312  0.97304  1.0000
  H   H1433     1.0  0.49685  0.78210  0.98147  1.0000
  H   H1434     1.0  0.41707  0.86949  0.74136  1.0000
  H   H1435     1.0  0.38612  0.87698  0.68505  1.0000
  N   N83       1.0  0.49029  0.95610  0.76967  1.0000
  S   S324      1.0  0.42590  0.99643  0.74847  1.0000
  C   C1213     1.0  0.39984  0.88816  0.71366  1.0000
  S   S325      1.0  0.48586  0.88891  0.76122  1.0000
  H   H1436     1.0  0.44412  0.81610  0.81859  1.0000
  H   H1437     1.0  0.28079  0.99228  0.98362  1.0000
  H   H1438     1.0  0.46104  0.83563  0.79275  1.0000
  C   C1214     1.0  0.32008  0.98181  0.69780  1.0000
  H   H1439     1.0  0.40038  0.96880  0.76699  1.0000
  C   C1215     1.0  0.49872  0.80486  0.80572  1.0000
  C   C1216     1.0  0.43328  0.87879  0.70610  1.0000
  S   S326      1.0  0.01198  0.98463  0.98735  1.0000
  H   H1440     1.0  0.44521  0.86716  0.70529  1.0000
  C   C1217     1.0  0.39325  0.85259  0.66952  1.0000
  H   H1441     1.0  0.00961  0.98708  0.92052  1.0000
  C   C1218     1.0  0.49235  0.95774  0.74869  1.0000
  C   C1219     1.0  0.35213  0.00022  0.68283  1.0000
  C   C1220     1.0  0.34927  0.99578  0.70225  1.0000
  C   C1221     1.0  0.47012  0.96285  0.77614  1.0000
  H   H1442     1.0  0.48150  0.92753  0.77303  1.0000
  C   C1222     1.0  0.42232  0.84190  0.69344  1.0000
  H   H1443     1.0  0.45965  0.95357  0.77182  1.0000
  H   H1444     1.0  0.35478  0.78149  0.94640  1.0000
  C   C1223     1.0  0.46731  0.75321  0.79757  1.0000
  C   C1224     1.0  0.27470  0.99992  0.97140  1.0000
  C   C1225     1.0  0.49250  0.76772  0.94475  1.0000
  C   C1226     1.0  0.50230  0.80906  0.86711  1.0000
  H   H1445     1.0  0.45696  0.87089  0.66922  1.0000
  H   H1446     1.0  0.01448  0.83611  0.69660  1.0000
  H   H1447     1.0  0.33102  0.98364  0.72493  1.0000
  C   C1227     1.0  0.33904  0.99547  0.67077  1.0000
  H   H1448     1.0  0.48508  0.99045  0.78797  1.0000
  C   C1228     1.0  0.46958  0.84187  0.67062  1.0000
  H   H1449     1.0  0.48538  0.85828  0.81806  1.0000
  H   H1450     1.0  0.48116  0.76283  0.93687  1.0000
  C   C1229     1.0  0.29127  0.97370  0.67468  1.0000
  C   C1230     1.0  0.50064  0.83870  0.83749  1.0000
  H   H1451     1.0  0.02740  0.99294  0.71253  1.0000
  C   C1231     1.0  0.33337  0.98651  0.70970  1.0000
  S   S327      1.0  0.50182  0.83431  0.77836  1.0000
  C   C1232     1.0  0.35880  0.77652  0.96085  1.0000
  H   H1452     1.0  0.28327  0.98375  0.68460  1.0000
  H   H1453     1.0  0.02915  0.92051  0.98531  1.0000
  H   H1454     1.0  0.01059  0.98461  0.75644  1.0000
  N   N84       1.0  0.36012  0.75540  0.96384  1.0000
  H   H1455     1.0  0.32940  0.75712  0.97104  1.0000
  H   H1456     1.0  0.35416  0.75739  0.99389  1.0000
  C   C1233     1.0  0.02036  0.93204  0.99280  1.0000
  C   C1234     1.0  0.49979  0.98433  0.78563  1.0000
  C   C1235     1.0  0.41945  0.75362  0.97807  1.0000
  H   H1457     1.0  0.49323  0.82097  0.87380  1.0000
  C   C1236     1.0  0.00548  0.83612  0.68456  1.0000
  C   C1237     1.0  0.49928  0.85318  0.82295  1.0000
  C   C1238     1.0  0.40519  0.83584  0.66697  1.0000
  H   H1458     1.0  0.48032  0.81252  0.66752  1.0000
  H   H1459     1.0  0.40989  0.75346  0.91444  1.0000
  H   H1460     1.0  0.03083  0.94015  0.99881  1.0000
  Fe  Fe163     1.0  0.86775  0.11830  0.12396  1.0000
  S   S328      1.0  0.88329  0.11998  0.09498  1.0000
  S   S329      1.0  0.83544  0.11669  0.13016  1.0000
  Fe  Fe164     1.0  0.90510  0.11882  0.14333  1.0000
  S   S330      1.0  0.92330  0.12065  0.11537  1.0000
  S   S331      1.0  0.92196  0.11961  0.16897  1.0000
  Fe  Fe165     1.0  0.89952  0.14217  0.10598  1.0000
  S   S332      1.0  0.90145  0.16978  0.08733  1.0000
  Fe  Fe166     1.0  0.90566  0.09846  0.10701  1.0000
  S   S333      1.0  0.91517  0.07007  0.09440  1.0000
  S   S334      1.0  0.88251  0.14183  0.13442  1.0000
  S   S335      1.0  0.88890  0.09525  0.13554  1.0000
  H   H1461     1.0  0.74262  0.05569  0.23203  1.0000
  C   C1239     1.0  0.73789  0.05560  0.21805  1.0000
  H   H1462     1.0  0.98154  0.17821  0.26315  1.0000
  Fe  Fe167     1.0  0.92118  0.08299  0.27870  1.0000
  S   S336      1.0  0.92745  0.05631  0.29759  1.0000
  S   S337      1.0  0.90519  0.08159  0.25242  1.0000
  Fe  Fe168     1.0  0.93532  0.10900  0.30636  1.0000
  C   C1240     1.0  0.79964  0.04703  0.09184  1.0000
  C   C1241     1.0  0.72137  0.04673  0.21466  1.0000
  Fe  Fe169     1.0  0.95521  0.06827  0.30167  1.0000
  S   S338      1.0  0.98600  0.05375  0.29757  1.0000
  Fe  Fe170     1.0  0.60767  0.24892  0.04559  1.0000
  H   H1463     1.0  0.68571  0.10368  0.00729  1.0000
  S   S339      1.0  0.94964  0.09394  0.28112  1.0000
  S   S340      1.0  0.90624  0.09976  0.30238  1.0000
  H   H1464     1.0  0.56273  0.03898  0.22998  1.0000
  H   H1465     1.0  0.76133  0.07154  0.20606  1.0000
  H   H1466     1.0  0.68647  0.06101  0.02152  1.0000
  S   S341      1.0  0.61683  0.03691  0.27669  1.0000
  Fe  Fe171     1.0  0.64413  0.02691  0.22744  1.0000
  S   S342      1.0  0.64054  0.05565  0.23911  1.0000
  S   S343      1.0  0.66164  0.01960  0.19968  1.0000
  Fe  Fe172     1.0  0.64803  0.03997  0.26685  1.0000
  S   S344      1.0  0.67124  0.05284  0.28113  1.0000
  Fe  Fe173     1.0  0.60991  0.04981  0.24801  1.0000
  S   S345      1.0  0.58460  0.07067  0.24017  1.0000
  H   H1467     1.0  0.57838  0.00509  0.25560  1.0000
  S   S346      1.0  0.61288  0.02205  0.23419  1.0000
  H   H1468     1.0  0.97954  0.05219  0.13881  1.0000
  S   S347      1.0  0.62117  0.22312  0.03101  1.0000
  C   C1242     1.0  0.94531  0.15396  0.32532  1.0000
  Fe  Fe174     1.0  0.64847  0.22750  0.04320  1.0000
  S   S348      1.0  0.66766  0.20488  0.05927  1.0000
  C   C1243     1.0  0.99861  0.24838  0.00076  1.0000
  Fe  Fe175     1.0  0.74712  0.08327  0.07881  1.0000
  S   S349      1.0  0.72060  0.10076  0.09026  1.0000
  S   S350      1.0  0.77792  0.09177  0.07443  1.0000
  Fe  Fe176     1.0  0.72360  0.05303  0.06505  1.0000
  S   S351      1.0  0.69532  0.06832  0.07610  1.0000
  S   S352      1.0  0.73059  0.02582  0.04865  1.0000
  Fe  Fe177     1.0  0.70753  0.09546  0.06391  1.0000
  S   S353      1.0  0.68927  0.11672  0.04551  1.0000
  Fe  Fe178     1.0  0.71005  0.07261  0.10214  1.0000
  S   S354      1.0  0.69442  0.07573  0.13184  1.0000
  S   S355      1.0  0.73474  0.07995  0.05135  1.0000
  S   S356      1.0  0.73765  0.05539  0.09217  1.0000
  H   H1469     1.0  0.68986  0.06272  0.23366  1.0000
  C   C1244     1.0  0.67421  0.18067  0.05441  1.0000
  C   C1245     1.0  0.68687  0.16942  0.06590  1.0000
  C   C1246     1.0  0.69194  0.14998  0.06307  1.0000
  C   C1247     1.0  0.68415  0.14145  0.04888  1.0000
  C   C1248     1.0  0.67162  0.15270  0.03727  1.0000
  C   C1249     1.0  0.66674  0.17224  0.03993  1.0000
  H   H1470     1.0  0.69281  0.17584  0.07705  1.0000
  H   H1471     1.0  0.70195  0.14163  0.07178  1.0000
  H   H1472     1.0  0.66558  0.14629  0.02618  1.0000
  H   H1473     1.0  0.65703  0.18071  0.03096  1.0000
  C   C1250     1.0  0.66943  0.03543  0.18036  1.0000
  C   C1251     1.0  0.66635  0.05524  0.18099  1.0000
  C   C1252     1.0  0.67401  0.06726  0.16595  1.0000
  C   C1253     1.0  0.68463  0.05970  0.14998  1.0000
  C   C1254     1.0  0.68754  0.03990  0.14924  1.0000
  C   C1255     1.0  0.68005  0.02787  0.16438  1.0000
  H   H1474     1.0  0.65825  0.06132  0.19316  1.0000
  H   H1475     1.0  0.67174  0.08254  0.16676  1.0000
  H   H1476     1.0  0.69574  0.03384  0.13712  1.0000
  H   H1477     1.0  0.51375  0.00631  0.26404  1.0000
  C   C1256     1.0  0.52982  0.08979  0.27739  1.0000
  C   C1257     1.0  0.53246  0.09643  0.25837  1.0000
  C   C1258     1.0  0.54944  0.09057  0.24729  1.0000
  C   C1259     1.0  0.56399  0.07812  0.25510  1.0000
  C   C1260     1.0  0.56142  0.07152  0.27418  1.0000
  C   C1261     1.0  0.54434  0.07728  0.28524  1.0000
  H   H1478     1.0  0.52142  0.10608  0.25215  1.0000
  H   H1479     1.0  0.55131  0.09575  0.23256  1.0000
  H   H1480     1.0  0.57254  0.06195  0.28036  1.0000
  H   H1481     1.0  0.54242  0.07208  0.29996  1.0000
  C   C1262     1.0  0.71661  0.04769  0.19564  1.0000
  S   S357      1.0  0.94314  0.24134  0.10589  1.0000
  H   H1482     1.0  0.97094  0.01944  0.31735  1.0000
  C   C1263     1.0  0.53593  0.03275  0.25714  1.0000
  H   H1483     1.0  0.68397  0.01196  0.00440  1.0000
  H   H1484     1.0  0.92527  0.08338  0.15293  1.0000
  C   C1264     1.0  0.90025  0.15015  0.23970  1.0000
  N   N85       1.0  0.90888  0.14940  0.25797  1.0000
  H   H1485     1.0  0.72333  0.05776  0.16656  1.0000
  C   C1265     1.0  0.67951  0.02808  0.31253  1.0000
  C   C1266     1.0  0.68380  0.04450  0.30127  1.0000
  C   C1267     1.0  0.69813  0.05513  0.30644  1.0000
  C   C1268     1.0  0.90484  0.16357  0.22435  1.0000
  H   H1486     1.0  0.66854  0.01973  0.30879  1.0000
  H   H1487     1.0  0.93401  0.18130  0.31328  1.0000
  H   H1488     1.0  0.65986  0.09566  0.31955  1.0000
  H   H1489     1.0  0.51048  0.01556  0.20508  1.0000
  H   H1490     1.0  0.68235  0.04690  0.21787  1.0000
  C   C1269     1.0  0.66084  0.08494  0.33129  1.0000
  C   C1270     1.0  0.88807  0.13620  0.23629  1.0000
  H   H1491     1.0  0.95370  0.23681  0.06531  1.0000
  C   C1271     1.0  0.93663  0.06425  0.07993  1.0000
  C   C1272     1.0  0.95163  0.07604  0.07746  1.0000
  C   C1273     1.0  0.96870  0.07049  0.06630  1.0000
  C   C1274     1.0  0.97083  0.05327  0.05735  1.0000
  C   C1275     1.0  0.95576  0.04157  0.05972  1.0000
  C   C1276     1.0  0.93881  0.04699  0.07108  1.0000
  H   H1492     1.0  0.95014  0.08935  0.08420  1.0000
  H   H1493     1.0  0.98030  0.07960  0.06456  1.0000
  H   H1494     1.0  0.95725  0.02826  0.05298  1.0000
  H   H1495     1.0  0.92734  0.03773  0.07298  1.0000
  C   C1277     1.0  0.81925  0.11062  0.11438  1.0000
  C   C1278     1.0  0.80081  0.10594  0.12161  1.0000
  C   C1279     1.0  0.78775  0.10055  0.10959  1.0000
  C   C1280     1.0  0.79310  0.09966  0.09018  1.0000
  C   C1281     1.0  0.81140  0.10472  0.08292  1.0000
  C   C1282     1.0  0.82432  0.11037  0.09490  1.0000
  H   H1496     1.0  0.79664  0.10633  0.13663  1.0000
  H   H1497     1.0  0.77369  0.09680  0.11535  1.0000
  H   H1498     1.0  0.81559  0.10422  0.06791  1.0000
  H   H1499     1.0  0.83820  0.11447  0.08904  1.0000
  C   C1283     1.0  0.91753  0.10803  0.19176  1.0000
  C   C1284     1.0  0.93057  0.10908  0.20535  1.0000
  C   C1285     1.0  0.92734  0.10056  0.22383  1.0000
  C   C1286     1.0  0.91081  0.09123  0.22898  1.0000
  C   C1287     1.0  0.89804  0.08972  0.21523  1.0000
  C   C1288     1.0  0.90138  0.09804  0.19666  1.0000
  H   H1500     1.0  0.94325  0.11654  0.20157  1.0000
  H   H1501     1.0  0.93765  0.10119  0.23405  1.0000
  H   H1502     1.0  0.88530  0.08236  0.21905  1.0000
  H   H1503     1.0  0.89127  0.09707  0.18632  1.0000
  C   C1289     1.0  0.91257  0.18975  0.09310  1.0000
  C   C1290     1.0  0.91005  0.20707  0.08201  1.0000
  C   C1291     1.0  0.91873  0.22322  0.08610  1.0000
  C   C1292     1.0  0.93044  0.22204  0.10107  1.0000
  C   C1293     1.0  0.93298  0.20471  0.11211  1.0000
  C   C1294     1.0  0.92394  0.18871  0.10831  1.0000
  H   H1504     1.0  0.90117  0.20806  0.07030  1.0000
  H   H1505     1.0  0.91658  0.23646  0.07751  1.0000
  H   H1506     1.0  0.94205  0.20364  0.12369  1.0000
  H   H1507     1.0  0.92605  0.17549  0.11694  1.0000
  N   N86       1.0  0.66251  0.12521  0.11097  1.0000
  C   C1295     1.0  0.66585  0.10999  0.09748  1.0000
  C   C1296     1.0  0.68159  0.12913  0.11629  1.0000
  C   C1297     1.0  0.65121  0.11761  0.12811  1.0000
  C   C1298     1.0  0.65224  0.14302  0.10313  1.0000
  C   C1299     1.0  0.64528  0.14483  0.08487  1.0000
  C   C1300     1.0  0.64904  0.15934  0.11383  1.0000
  C   C1301     1.0  0.63611  0.16205  0.07776  1.0000
  C   C1302     1.0  0.64016  0.17658  0.10642  1.0000
  C   C1303     1.0  0.63383  0.17795  0.08837  1.0000
  H   H1508     1.0  0.67473  0.11462  0.08443  1.0000
  H   H1509     1.0  0.67374  0.09687  0.10367  1.0000
  H   H1510     1.0  0.65213  0.10558  0.09345  1.0000
  H   H1511     1.0  0.69010  0.13593  0.10405  1.0000
  H   H1512     1.0  0.69020  0.11584  0.12118  1.0000
  H   H1513     1.0  0.68051  0.13866  0.12807  1.0000
  H   H1514     1.0  0.63664  0.11476  0.12478  1.0000
  H   H1515     1.0  0.65842  0.10396  0.13414  1.0000
  H   H1516     1.0  0.64932  0.12760  0.13957  1.0000
  H   H1517     1.0  0.64728  0.13341  0.07546  1.0000
  H   H1518     1.0  0.65375  0.15902  0.12787  1.0000
  H   H1519     1.0  0.63154  0.16336  0.06354  1.0000
  H   H1520     1.0  0.63856  0.18911  0.11447  1.0000
  H   H1521     1.0  0.62761  0.19151  0.08234  1.0000
  N   N87       1.0  0.84251  0.18103  0.09076  1.0000
  C   C1304     1.0  0.84722  0.16378  0.10342  1.0000
  C   C1305     1.0  0.82125  0.18487  0.09213  1.0000
  C   C1306     1.0  0.84949  0.17642  0.07114  1.0000
  C   C1307     1.0  0.85128  0.19806  0.09547  1.0000
  C   C1308     1.0  0.86371  0.19762  0.11019  1.0000
  C   C1309     1.0  0.84784  0.21576  0.08482  1.0000
  C   C1310     1.0  0.87220  0.21386  0.11380  1.0000
  C   C1311     1.0  0.85644  0.23189  0.08854  1.0000
  C   C1312     1.0  0.86865  0.23091  0.10296  1.0000
  H   H1522     1.0  0.84232  0.16604  0.11850  1.0000
  H   H1523     1.0  0.84020  0.15127  0.09980  1.0000
  H   H1524     1.0  0.86294  0.15945  0.10217  1.0000
  H   H1525     1.0  0.81562  0.18920  0.10650  1.0000
  H   H1526     1.0  0.81419  0.17203  0.08950  1.0000
  H   H1527     1.0  0.81626  0.19635  0.08164  1.0000
  H   H1528     1.0  0.86552  0.17421  0.06944  1.0000
  H   H1529     1.0  0.84395  0.16318  0.06730  1.0000
  H   H1530     1.0  0.84505  0.18794  0.06044  1.0000
  H   H1531     1.0  0.86774  0.18475  0.11868  1.0000
  H   H1532     1.0  0.83875  0.21717  0.07328  1.0000
  H   H1533     1.0  0.88224  0.21300  0.12459  1.0000
  H   H1534     1.0  0.85393  0.24516  0.07998  1.0000
  H   H1535     1.0  0.86542  0.02040  0.32577  1.0000
  C   C1313     1.0  0.51512  0.23236  0.14875  1.0000
  C   C1314     1.0  0.50585  0.22295  0.21918  1.0000
  N   N88       1.0  0.99348  0.22126  0.30677  1.0000
  H   H1536     1.0  0.51119  0.12152  0.32108  1.0000
  H   H1537     1.0  0.88037  0.14845  0.19023  1.0000
  H   H1538     1.0  0.56694  0.21960  0.02852  1.0000
  N   N89       1.0  0.85979  0.05541  0.09135  1.0000
  C   C1315     1.0  0.86778  0.04621  0.10878  1.0000
  C   C1316     1.0  0.87218  0.04800  0.07487  1.0000
  C   C1317     1.0  0.86123  0.07619  0.09083  1.0000
  C   C1318     1.0  0.83932  0.05197  0.09144  1.0000
  C   C1319     1.0  0.83196  0.04382  0.07631  1.0000
  C   C1320     1.0  0.82589  0.05751  0.10672  1.0000
  C   C1321     1.0  0.81238  0.04150  0.07658  1.0000
  C   C1322     1.0  0.74881  0.06483  0.20320  1.0000
  C   C1323     1.0  0.69915  0.06922  0.02161  1.0000
  H   H1539     1.0  0.88342  0.04781  0.10868  1.0000
  H   H1540     1.0  0.86085  0.05258  0.12182  1.0000
  H   H1541     1.0  0.86593  0.03070  0.11025  1.0000
  H   H1542     1.0  0.88754  0.05052  0.07548  1.0000
  H   H1543     1.0  0.86786  0.05530  0.06126  1.0000
  H   H1544     1.0  0.87181  0.03235  0.07440  1.0000
  H   H1545     1.0  0.85429  0.08251  0.10392  1.0000
  H   H1546     1.0  0.87642  0.07958  0.08949  1.0000
  H   H1547     1.0  0.85428  0.08374  0.07856  1.0000
  C   C1324     1.0  0.57374  0.24955  0.00480  1.0000
  H   H1548     1.0  0.83022  0.06450  0.11837  1.0000
  H   H1549     1.0  0.99229  0.21238  0.05742  1.0000
  C   C1325     1.0  0.70769  0.01724  0.22586  1.0000
  H   H1550     1.0  0.54984  0.21506  0.13999  1.0000
  C   C1326     1.0  0.91879  0.16651  0.26044  1.0000
  C   C1327     1.0  0.89398  0.14752  0.27418  1.0000
  H   H1551     1.0  0.90890  0.17978  0.25895  1.0000
  H   H1552     1.0  0.92420  0.16594  0.27475  1.0000
  H   H1553     1.0  0.93172  0.16762  0.25020  1.0000
  H   H1554     1.0  0.88206  0.15909  0.27314  1.0000
  H   H1555     1.0  0.90007  0.14807  0.28803  1.0000
  H   H1556     1.0  0.93084  0.13181  0.27201  1.0000
  H   H1557     1.0  0.99650  0.18717  0.32830  1.0000
  N   N90       1.0  0.53094  0.22933  0.16136  1.0000
  H   H1558     1.0  0.52064  0.23385  0.13351  1.0000
  N   N91       1.0  0.56264  0.23376  0.00099  1.0000
  H   H1559     1.0  0.69901  0.00956  0.23742  1.0000
  H   H1560     1.0  0.86998  0.06526  0.31462  1.0000
  H   H1561     1.0  0.56201  0.00915  0.27600  1.0000
  H   H1562     1.0  0.83564  0.06004  0.31352  1.0000
  H   H1563     1.0  0.72217  0.00926  0.22397  1.0000
  H   H1564     1.0  0.50587  0.22035  0.15073  1.0000
  H   H1565     1.0  0.73078  0.02921  0.24946  1.0000
  H   H1566     1.0  0.98567  0.21013  0.27125  1.0000
  C   C1328     1.0  0.68955  0.04746  0.23103  1.0000
  N   N92       1.0  0.55012  0.01761  0.24942  1.0000
  C   C1329     1.0  0.98691  0.16489  0.29054  1.0000
  C   C1330     1.0  0.99220  0.23661  0.29125  1.0000
  H   H1567     1.0  0.50571  0.24564  0.15141  1.0000
  H   H1568     1.0  0.54579  0.02590  0.22022  1.0000
  H   H1569     1.0  0.57263  0.02879  0.26264  1.0000
  H   H1570     1.0  0.58763  0.21315  0.00071  1.0000
  C   C1331     1.0  0.96227  0.23877  0.05138  1.0000
  H   H1571     1.0  0.95997  0.09196  0.12874  1.0000
  C   C1332     1.0  0.92323  0.13259  0.25897  1.0000
  H   H1572     1.0  0.53127  0.02937  0.27234  1.0000
  H   H1573     1.0  0.00224  0.06062  0.00455  1.0000
  N   N93       1.0  0.98244  0.24213  0.05372  1.0000
  C   C1333     1.0  0.68907  0.02271  0.32900  1.0000
  H   H1574     1.0  0.93210  0.07537  0.12987  1.0000
  H   H1575     1.0  0.93428  0.13298  0.24665  1.0000
  H   H1576     1.0  0.70658  0.02967  0.26014  1.0000
  H   H1577     1.0  0.52219  0.23408  0.00749  1.0000
  C   C1334     1.0  0.99185  0.20200  0.30068  1.0000
  H   H1578     1.0  0.91436  0.17440  0.22537  1.0000
  C   C1335     1.0  0.84166  0.05913  0.32704  1.0000
  H   H1579     1.0  0.91645  0.11904  0.25910  1.0000
  H   H1580     1.0  0.70426  0.04135  0.19198  1.0000
  H   H1581     1.0  0.88771  0.13363  0.27520  1.0000
  C   C1336     1.0  0.97745  0.05617  0.19559  1.0000
  H   H1582     1.0  0.84092  0.03945  0.06392  1.0000
  H   H1583     1.0  0.88486  0.12478  0.24680  1.0000
  C   C1337     1.0  0.99085  0.22551  0.06528  1.0000
  H   H1584     1.0  0.73381  0.07981  0.00923  1.0000
  H   H1585     1.0  0.54888  0.24818  0.14397  1.0000
  H   H1586     1.0  0.69386  0.02842  0.03096  1.0000
  H   H1587     1.0  0.96340  0.22494  0.31639  1.0000
  C   C1338     1.0  0.95616  0.06388  0.16998  1.0000
  C   C1339     1.0  0.96162  0.05480  0.20887  1.0000
  S   S358      1.0  0.93636  0.14126  0.30791  1.0000
  H   H1588     1.0  0.70039  0.01619  0.21283  1.0000
  C   C1340     1.0  0.89757  0.16298  0.20679  1.0000
  S   S359      1.0  0.65293  0.01127  0.25473  1.0000
  H   H1589     1.0  0.99183  0.05387  0.20023  1.0000
  C   C1341     1.0  0.88059  0.13600  0.21881  1.0000
  H   H1590     1.0  0.97790  0.23809  0.28547  1.0000
  Fe  Fe179     1.0  0.99724  0.02165  0.02506  1.0000
  H   H1591     1.0  0.70157  0.06787  0.29786  1.0000
  C   C1342     1.0  0.74360  0.06559  0.18471  1.0000
  H   H1592     1.0  0.97788  0.24053  0.32607  1.0000
  C   C1343     1.0  0.88550  0.14921  0.20402  1.0000
  C   C1344     1.0  0.97483  0.06063  0.17642  1.0000
  H   H1593     1.0  0.92555  0.06480  0.18058  1.0000
  S   S360      1.0  0.65898  0.24633  0.01795  1.0000
  C   C1345     1.0  0.69822  0.00846  0.00903  1.0000
  C   C1346     1.0  0.98571  0.01580  0.31198  1.0000
  S   S361      1.0  0.50848  0.09661  0.29164  1.0000
  S   S362      1.0  0.99267  0.04676  0.04371  1.0000
  H   H1594     1.0  0.54212  0.04667  0.25648  1.0000
  C   C1347     1.0  0.99440  0.24493  0.03555  1.0000
  H   H1595     1.0  0.95831  0.03973  0.14266  1.0000
  H   H1596     1.0  0.95573  0.09869  0.15271  1.0000
  H   H1597     1.0  0.87575  0.24328  0.10547  1.0000
  H   H1598     1.0  0.99254  0.15554  0.31911  1.0000
  C   C1348     1.0  0.99146  0.16758  0.30868  1.0000
  H   H1599     1.0  0.95469  0.25113  0.04356  1.0000
  H   H1600     1.0  0.96157  0.22566  0.04391  1.0000
  H   H1601     1.0  0.54686  0.21279  0.01790  1.0000
  H   H1602     1.0  0.92615  0.05834  0.14889  1.0000
  H   H1603     1.0  0.75198  0.07287  0.17327  1.0000
  H   H1604     1.0  0.97806  0.08592  0.14479  1.0000
  C   C1349     1.0  0.52666  0.21005  0.19314  1.0000
  H   H1605     1.0  0.56969  0.01532  0.22395  1.0000
  C   C1350     1.0  0.93342  0.07158  0.14524  1.0000
  C   C1351     1.0  0.72751  0.05704  0.18094  1.0000
  C   C1352     1.0  0.99596  0.02968  0.30151  1.0000
  C   C1353     1.0  0.96231  0.08711  0.14371  1.0000
  H   H1606     1.0  0.53616  0.19962  0.15579  1.0000
  H   H1607     1.0  0.97221  0.24299  0.01613  1.0000
  H   H1608     1.0  0.79633  0.05964  0.11853  1.0000
  Fe  Fe180     1.0  0.91434  0.07399  0.32144  1.0000
  H   H1609     1.0  0.87160  0.12498  0.21646  1.0000
  H   H1610     1.0  0.71638  0.05162  0.25362  1.0000
  H   H1611     1.0  0.78439  0.04576  0.09170  1.0000
  H   H1612     1.0  0.96140  0.05677  0.12269  1.0000
  H   H1613     1.0  0.98453  0.15076  0.28692  1.0000
  N   N94       1.0  0.70909  0.03727  0.22997  1.0000
  C   C1354     1.0  0.98507  0.18041  0.27726  1.0000
  N   N95       1.0  0.95380  0.06897  0.14964  1.0000
  C   C1355     1.0  0.96373  0.05377  0.13800  1.0000
  C   C1356     1.0  0.54132  0.25144  0.07611  1.0000
  C   C1357     1.0  0.70389  0.01807  0.02396  1.0000
  C   C1358     1.0  0.51827  0.20819  0.21178  1.0000
  H   H1614     1.0  0.55647  0.20982  0.16363  1.0000
  H   H1615     1.0  0.71815  0.10079  0.01282  1.0000
  C   C1359     1.0  0.94031  0.06230  0.18393  1.0000
  C   C1360     1.0  0.94312  0.05778  0.20303  1.0000
  H   H1616     1.0  0.98169  0.22276  0.07878  1.0000
  H   H1617     1.0  0.71100  0.05926  0.02707  1.0000
  C   C1361     1.0  0.98700  0.24506  0.01760  1.0000
  C   C1362     1.0  0.97771  0.22586  0.32157  1.0000
  C   C1363     1.0  0.72235  0.01395  0.03004  1.0000
  S   S363      1.0  0.63438  0.25195  0.05988  1.0000
  H   H1618     1.0  0.69535  0.08010  0.03213  1.0000
  C   C1364     1.0  0.56642  0.01509  0.26143  1.0000
  C   C1365     1.0  0.80641  0.05487  0.10694  1.0000
  C   C1366     1.0  0.99381  0.18581  0.31376  1.0000
  H   H1619     1.0  0.90165  0.17298  0.19508  1.0000
  H   H1620     1.0  0.53578  0.19786  0.18828  1.0000
  H   H1621     1.0  0.54584  0.23575  0.02796  1.0000
  H   H1622     1.0  0.52311  0.03518  0.24890  1.0000
  C   C1367     1.0  0.86115  0.06209  0.32761  1.0000
  S   S364      1.0  0.94270  0.08421  0.32710  1.0000
  H   H1623     1.0  0.52079  0.19491  0.22036  1.0000
  C   C1368     1.0  0.98750  0.19874  0.28215  1.0000
  C   C1369     1.0  0.71619  0.03696  0.24903  1.0000
  H   H1624     1.0  0.64430  0.06606  0.31883  1.0000
  H   H1625     1.0  0.93083  0.05690  0.21349  1.0000
  C   C1370     1.0  0.70782  0.04966  0.32281  1.0000
  H   H1626     1.0  0.80688  0.03576  0.06471  1.0000
  C   C1371     1.0  0.94221  0.17401  0.32426  1.0000
  S   S365      1.0  0.57604  0.24578  0.05518  1.0000
  H   H1627     1.0  0.68261  0.01257  0.16376  1.0000
  H   H1628     1.0  0.53597  0.24357  0.06563  1.0000
  H   H1629     1.0  0.96364  0.05155  0.22376  1.0000
  C   C1372     1.0  0.55731  0.02466  0.23005  1.0000
  C   C1373     1.0  0.54393  0.21267  0.15503  1.0000
  C   C1374     1.0  0.52275  0.22694  0.18132  1.0000
  C   C1375     1.0  0.55508  0.22508  0.01958  1.0000
  H   H1630     1.0  0.68007  0.04107  0.24274  1.0000
  H   H1631     1.0  0.98755  0.06170  0.16670  1.0000
  Fe  Fe181     1.0  0.63019  0.24386  0.00694  1.0000
  N   N96       1.0  0.70458  0.07803  0.00250  1.0000
  H   H1632     1.0  0.71864  0.05811  0.32664  1.0000
  Fe  Fe182     1.0  0.62120  0.00917  0.26242  1.0000
  H   H1633     1.0  0.58528  0.24449  0.01420  1.0000
  H   H1634     1.0  0.99390  0.25082  0.29636  1.0000
  C   C1376     1.0  0.72153  0.08878  0.00339  1.0000
  H   H1635     1.0  0.73440  0.04951  0.00293  1.0000
  C   C1377     1.0  0.51008  0.24172  0.18938  1.0000
  C   C1378     1.0  0.54213  0.24618  0.15876  1.0000
  H   H1636     1.0  0.55373  0.24485  0.16853  1.0000
  C   C1379     1.0  0.65195  0.06829  0.33090  1.0000
  H   H1637     1.0  0.00264  0.08440  0.02594  1.0000
  H   H1638     1.0  0.00246  0.10372  0.00787  1.0000
  Fe  Fe183     1.0  0.97443  0.21944  0.37273  1.0000
  H   H1639     1.0  0.61388  0.14561  0.51627  1.0000
  S   S366      1.0  0.97180  0.18826  0.36729  1.0000
  C   C1380     1.0  0.72379  0.05586  0.57406  1.0000
  H   H1640     1.0  0.81205  0.06079  0.58740  1.0000
  H   H1641     1.0  0.51695  0.12189  0.36170  1.0000
  H   H1642     1.0  0.97188  0.14823  0.36342  1.0000
  S   S367      1.0  0.97414  0.22724  0.40291  1.0000
  H   H1643     1.0  0.64423  0.19542  0.51179  1.0000
  Fe  Fe184     1.0  0.78179  0.04486  0.36516  1.0000
  S   S368      1.0  0.75371  0.06324  0.36415  1.0000
  S   S369      1.0  0.82462  0.24638  0.53755  1.0000
  Fe  Fe185     1.0  0.76627  0.02019  0.39947  1.0000
  S   S370      1.0  0.73718  0.03697  0.40122  1.0000
  Fe  Fe186     1.0  0.73939  0.03604  0.36929  1.0000
  S   S371      1.0  0.71353  0.02681  0.35613  1.0000
  Fe  Fe187     1.0  0.75370  0.06280  0.39593  1.0000
  S   S372      1.0  0.74760  0.09151  0.40890  1.0000
  S   S373      1.0  0.76753  0.01751  0.36806  1.0000
  S   S374      1.0  0.78271  0.04625  0.39640  1.0000
  Fe  Fe188     1.0  0.74250  0.12543  0.51667  1.0000
  S   S375      1.0  0.72024  0.12835  0.54167  1.0000
  S   S376      1.0  0.73730  0.10207  0.49780  1.0000
  Fe  Fe189     1.0  0.76722  0.15400  0.53148  1.0000
  S   S377      1.0  0.74627  0.15884  0.55697  1.0000
  S   S378      1.0  0.79750  0.16412  0.52861  1.0000
  Fe  Fe190     1.0  0.74525  0.12700  0.55926  1.0000
  S   S379      1.0  0.74666  0.11070  0.58803  1.0000
  Fe  Fe191     1.0  0.72308  0.15972  0.53709  1.0000
  S   S380      1.0  0.69847  0.18353  0.53693  1.0000
  S   S381      1.0  0.76729  0.12193  0.53487  1.0000
  S   S382      1.0  0.74416  0.15707  0.51097  1.0000
  S   S383      1.0  0.90365  0.24870  0.58805  1.0000
  H   H1644     1.0  0.50931  0.09857  0.36950  1.0000
  Fe  Fe192     1.0  0.58526  0.20391  0.57359  1.0000
  S   S384      1.0  0.55524  0.19498  0.57269  1.0000
  S   S385      1.0  0.60970  0.18090  0.56623  1.0000
  Fe  Fe193     1.0  0.54775  0.22481  0.56013  1.0000
  C   C1381     1.0  0.93557  0.24637  0.60798  1.0000
  Fe  Fe194     1.0  0.54929  0.20672  0.60152  1.0000
  S   S386      1.0  0.52996  0.19619  0.62716  1.0000
  C   C1382     1.0  0.82130  0.14537  0.57144  1.0000
  S   S387      1.0  0.57938  0.21385  0.60316  1.0000
  S   S388      1.0  0.88228  0.24098  0.54087  1.0000
  H   H1645     1.0  0.68496  0.09591  0.39903  1.0000
  C   C1383     1.0  0.68613  0.06012  0.39190  1.0000
  H   H1646     1.0  0.70424  0.01083  0.62893  1.0000
  C   C1384     1.0  0.81584  0.19158  0.48505  1.0000
  S   S389      1.0  0.78291  0.02451  0.59548  1.0000
  S   S390      1.0  0.80569  0.05075  0.34198  1.0000
  C   C1385     1.0  0.95584  0.14476  0.33969  1.0000
  H   H1647     1.0  0.51809  0.11518  0.66244  1.0000
  C   C1386     1.0  0.71535  0.06951  0.58615  1.0000
  H   H1648     1.0  0.71102  0.13795  0.49525  1.0000
  H   H1649     1.0  0.80972  0.07702  0.61705  1.0000
  C   C1387     1.0  0.66148  0.16937  0.50527  1.0000
  C   C1388     1.0  0.64423  0.18030  0.51022  1.0000
  H   H1650     1.0  0.93638  0.22854  0.46836  1.0000
  H   H1651     1.0  0.68534  0.01019  0.33779  1.0000
  H   H1652     1.0  0.81093  0.07965  0.55667  1.0000
  C   C1389     1.0  0.80456  0.18678  0.53286  1.0000
  C   C1390     1.0  0.79130  0.20283  0.53470  1.0000
  C   C1391     1.0  0.79771  0.22083  0.53650  1.0000
  C   C1392     1.0  0.81739  0.22302  0.53679  1.0000
  C   C1393     1.0  0.83060  0.20683  0.53566  1.0000
  C   C1394     1.0  0.82423  0.18888  0.53352  1.0000
  H   H1653     1.0  0.77613  0.20152  0.53420  1.0000
  H   H1654     1.0  0.78733  0.23322  0.53743  1.0000
  H   H1655     1.0  0.84572  0.20822  0.53612  1.0000
  H   H1656     1.0  0.83465  0.17660  0.53204  1.0000
  C   C1395     1.0  0.75690  0.08678  0.58996  1.0000
  C   C1396     1.0  0.75785  0.07714  0.60797  1.0000
  C   C1397     1.0  0.76558  0.05797  0.60992  1.0000
  C   C1398     1.0  0.77230  0.04829  0.59385  1.0000
  C   C1399     1.0  0.77155  0.05799  0.57587  1.0000
  C   C1400     1.0  0.76382  0.07713  0.57390  1.0000
  H   H1657     1.0  0.75269  0.08458  0.62045  1.0000
  H   H1658     1.0  0.76686  0.05083  0.62380  1.0000
  H   H1659     1.0  0.77697  0.05066  0.56338  1.0000
  H   H1660     1.0  0.76318  0.08439  0.55998  1.0000
  C   C1401     1.0  0.67429  0.18266  0.54691  1.0000
  C   C1402     1.0  0.66673  0.16544  0.55300  1.0000
  C   C1403     1.0  0.64702  0.16525  0.55918  1.0000
  C   C1404     1.0  0.63469  0.18226  0.55972  1.0000
  C   C1405     1.0  0.64237  0.19953  0.55414  1.0000
  C   C1406     1.0  0.66202  0.19969  0.54765  1.0000
  H   H1661     1.0  0.67596  0.15226  0.55262  1.0000
  H   H1662     1.0  0.64122  0.15182  0.56344  1.0000
  H   H1663     1.0  0.63309  0.21272  0.55442  1.0000
  H   H1664     1.0  0.66772  0.21309  0.54298  1.0000
  C   C1407     1.0  0.55696  0.17807  0.65037  1.0000
  C   C1408     1.0  0.53806  0.18610  0.64897  1.0000
  H   H1665     1.0  0.76563  0.02150  0.53097  1.0000
  H   H1666     1.0  0.56720  0.17830  0.63798  1.0000
  H   H1667     1.0  0.83527  0.11280  0.40192  1.0000
  H   H1668     1.0  0.70489  0.07596  0.61394  1.0000
  C   C1409     1.0  0.74587  0.09415  0.43368  1.0000
  C   C1410     1.0  0.74374  0.07860  0.44689  1.0000
  C   C1411     1.0  0.74140  0.08134  0.46642  1.0000
  C   C1412     1.0  0.74157  0.09953  0.47304  1.0000
  C   C1413     1.0  0.74405  0.11506  0.45985  1.0000
  C   C1414     1.0  0.74603  0.11238  0.44026  1.0000
  H   H1669     1.0  0.74355  0.06450  0.44207  1.0000
  H   H1670     1.0  0.73942  0.06925  0.47649  1.0000
  H   H1671     1.0  0.74412  0.12915  0.46472  1.0000
  H   H1672     1.0  0.74760  0.12452  0.43017  1.0000
  H   H1673     1.0  0.66571  0.04455  0.37110  1.0000
  C   C1415     1.0  0.70074  0.05514  0.64467  1.0000
  C   C1416     1.0  0.83000  0.05483  0.34374  1.0000
  C   C1417     1.0  0.83797  0.05371  0.36112  1.0000
  C   C1418     1.0  0.93066  0.24213  0.46209  1.0000
  C   C1419     1.0  0.66208  0.14932  0.50412  1.0000
  H   H1674     1.0  0.82918  0.05057  0.37408  1.0000
  C   C1420     1.0  0.96350  0.15552  0.35255  1.0000
  C   C1421     1.0  0.86923  0.06068  0.34494  1.0000
  H   H1675     1.0  0.69502  0.06276  0.40341  1.0000
  H   H1676     1.0  0.88198  0.20792  0.46023  1.0000
  H   H1677     1.0  0.77475  0.13915  0.58647  1.0000
  C   C1422     1.0  0.85752  0.05651  0.36168  1.0000
  H   H1678     1.0  0.71147  0.06680  0.36141  1.0000
  C   C1423     1.0  0.96063  0.17557  0.35136  1.0000
  H   H1679     1.0  0.87760  0.11012  0.35457  1.0000
  H   H1680     1.0  0.72734  0.01730  0.60523  1.0000
  C   C1424     1.0  0.84854  0.00686  0.34901  1.0000
  C   C1425     1.0  0.78697  0.14478  0.57725  1.0000
  H   H1681     1.0  0.71293  0.08427  0.58071  1.0000
  C   C1426     1.0  0.72823  0.03222  0.64199  1.0000
  H   H1682     1.0  0.80689  0.11149  0.61664  1.0000
  H   H1683     1.0  0.89241  0.21890  0.49847  1.0000
  H   H1684     1.0  0.94331  0.23653  0.43393  1.0000
  H   H1685     1.0  0.86825  0.11572  0.38822  1.0000
  H   H1686     1.0  0.80779  0.11441  0.55520  1.0000
  H   H1687     1.0  0.69744  0.15888  0.48633  1.0000
  H   H1688     1.0  0.86746  0.22955  0.45410  1.0000
  H   H1689     1.0  0.67154  0.11131  0.51549  1.0000
  C   C1427     1.0  0.81653  0.00955  0.38087  1.0000
  H   H1690     1.0  0.95154  0.23718  0.56592  1.0000
  S   S391      1.0  0.52992  0.23700  0.53545  1.0000
  H   H1691     1.0  0.67161  0.05746  0.39871  1.0000
  C   C1428     1.0  0.51181  0.10881  0.35700  1.0000
  H   H1692     1.0  0.58486  0.22936  0.65838  1.0000
  H   H1693     1.0  0.57749  0.23728  0.63557  1.0000
  H   H1694     1.0  0.81320  0.01791  0.36748  1.0000
  H   H1695     1.0  0.69674  0.11300  0.51294  1.0000
  H   H1696     1.0  0.85347  0.10219  0.33427  1.0000
  C   C1429     1.0  0.84917  0.10471  0.34900  1.0000
  H   H1697     1.0  0.98276  0.24020  0.57715  1.0000
  C   C1430     1.0  0.94965  0.18474  0.33729  1.0000
  N   N97       1.0  0.80564  0.13779  0.58456  1.0000
  H   H1698     1.0  0.79973  0.21752  0.49327  1.0000
  H   H1699     1.0  0.67822  0.10059  0.34593  1.0000
  S   S392      1.0  0.95695  0.24662  0.36362  1.0000
  C   C1431     1.0  0.64429  0.14116  0.50764  1.0000
  C   C1432     1.0  0.52492  0.18560  0.66521  1.0000
  C   C1433     1.0  0.95032  0.00292  0.66578  1.0000
  N   N98       1.0  0.80483  0.10241  0.38476  1.0000
  C   C1434     1.0  0.79546  0.12078  0.39131  1.0000
  C   C1435     1.0  0.79229  0.09556  0.37159  1.0000
  C   C1436     1.0  0.80568  0.08825  0.40131  1.0000
  C   C1437     1.0  0.82453  0.10503  0.37605  1.0000
  H   H1700     1.0  0.67724  0.10672  0.37721  1.0000
  H   H1701     1.0  0.51156  0.20092  0.53925  1.0000
  C   C1438     1.0  0.84889  0.21180  0.48404  1.0000
  H   H1702     1.0  0.80327  0.18368  0.48622  1.0000
  H   H1703     1.0  0.95437  0.00841  0.65099  1.0000
  C   C1439     1.0  0.51279  0.22753  0.52251  1.0000
  C   C1440     1.0  0.85754  0.11219  0.37942  1.0000
  H   H1704     1.0  0.78043  0.11935  0.39764  1.0000
  C   C1441     1.0  0.72794  0.03712  0.58117  1.0000
  H   H1705     1.0  0.79008  0.10594  0.35921  1.0000
  C   C1442     1.0  0.98520  0.24169  0.45333  1.0000
  H   H1706     1.0  0.81292  0.09316  0.41298  1.0000
  H   H1707     1.0  0.79101  0.08528  0.40763  1.0000
  H   H1708     1.0  0.86412  0.18478  0.47590  1.0000
  C   C1443     1.0  0.96161  0.24580  0.55746  1.0000
  H   H1709     1.0  0.68685  0.06105  0.63921  1.0000
  C   C1444     1.0  0.71093  0.06450  0.60539  1.0000
  H   H1710     1.0  0.73577  0.01968  0.63505  1.0000
  C   C1445     1.0  0.81115  0.07623  0.58689  1.0000
  H   H1711     1.0  0.64355  0.12608  0.50683  1.0000
  C   C1446     1.0  0.88223  0.01137  0.34906  1.0000
  C   C1447     1.0  0.62719  0.17171  0.51430  1.0000
  S   S393      1.0  0.53943  0.23575  0.58888  1.0000
  H   H1712     1.0  0.86365  0.05544  0.37515  1.0000
  H   H1713     1.0  0.82064  0.14179  0.55659  1.0000
  H   H1714     1.0  0.67752  0.13970  0.46982  1.0000
  H   H1715     1.0  0.80499  0.16184  0.60159  1.0000
  H   H1716     1.0  0.78463  0.16065  0.57619  1.0000
  H   H1717     1.0  0.78603  0.14031  0.56281  1.0000
  H   H1718     1.0  0.82037  0.16124  0.57073  1.0000
  H   H1719     1.0  0.83568  0.13970  0.57586  1.0000
  H   H1720     1.0  0.72538  0.02740  0.65722  1.0000
  H   H1721     1.0  0.68401  0.02856  0.62778  1.0000
  C   C1448     1.0  0.83865  0.11031  0.38713  1.0000
  C   C1449     1.0  0.83007  0.22069  0.48866  1.0000
  H   H1722     1.0  0.52397  0.10221  0.34766  1.0000
  C   C1450     1.0  0.81387  0.21066  0.48905  1.0000
  C   C1451     1.0  0.87685  0.22235  0.46481  1.0000
  C   C1452     1.0  0.70516  0.07910  0.36954  1.0000
  H   H1723     1.0  0.83546  0.16758  0.47742  1.0000
  H   H1724     1.0  0.94695  0.20008  0.33640  1.0000
  C   C1453     1.0  0.66435  0.05647  0.36069  1.0000
  H   H1725     1.0  0.66158  0.09228  0.39224  1.0000
  H   H1726     1.0  0.88984  0.23032  0.46419  1.0000
  H   H1727     1.0  0.72776  0.06000  0.55931  1.0000
  Fe  Fe195     1.0  0.56992  0.24256  0.58906  1.0000
  C   C1454     1.0  0.71482  0.04545  0.61308  1.0000
  H   H1728     1.0  0.79839  0.08160  0.36635  1.0000
  C   C1455     1.0  0.80613  0.14597  0.60308  1.0000
  C   C1456     1.0  0.80775  0.11667  0.58567  1.0000
  C   C1457     1.0  0.80816  0.10536  0.60313  1.0000
  H   H1729     1.0  0.79377  0.14209  0.61321  1.0000
  H   H1730     1.0  0.69297  0.04678  0.38580  1.0000
  H   H1731     1.0  0.81981  0.14114  0.60948  1.0000
  S   S394      1.0  0.89381  0.06384  0.34633  1.0000
  H   H1732     1.0  0.69905  0.15425  0.51149  1.0000
  S   S395      1.0  0.57818  0.23322  0.55945  1.0000
  C   C1458     1.0  0.68253  0.12158  0.51494  1.0000
  C   C1459     1.0  0.69762  0.14756  0.49813  1.0000
  H   H1733     1.0  0.68148  0.12752  0.52908  1.0000
  H   H1734     1.0  0.82741  0.23520  0.49269  1.0000
  C   C1460     1.0  0.80878  0.10679  0.56893  1.0000
  C   C1461     1.0  0.80983  0.08544  0.60361  1.0000
  N   N99       1.0  0.68017  0.13709  0.49975  1.0000
  C   C1462     1.0  0.67952  0.12847  0.48154  1.0000
  H   H1735     1.0  0.83570  0.00969  0.34158  1.0000
  H   H1736     1.0  0.99898  0.23441  0.44724  1.0000
  H   H1737     1.0  0.81356  0.07452  0.39717  1.0000
  C   C1463     1.0  0.83402  0.18251  0.48026  1.0000
  H   H1738     1.0  0.69312  0.11939  0.47775  1.0000
  H   H1739     1.0  0.66758  0.11924  0.48203  1.0000
  H   H1740     1.0  0.67421  0.17694  0.50320  1.0000
  H   H1741     1.0  0.75396  0.00342  0.50758  1.0000
  C   C1464     1.0  0.81056  0.08689  0.56959  1.0000
  C   C1465     1.0  0.62718  0.15221  0.51286  1.0000
  C   C1466     1.0  0.85032  0.19246  0.47959  1.0000
  H   H1742     1.0  0.79483  0.13193  0.37935  1.0000
  C   C1467     1.0  0.69724  0.02408  0.63505  1.0000
  N   N100      1.0  0.71027  0.03950  0.63334  1.0000
  C   C1468     1.0  0.83032  0.10251  0.35659  1.0000
  H   H1743     1.0  0.93069  0.23311  0.61437  1.0000
  H   H1744     1.0  0.82079  0.09830  0.34698  1.0000
  N   N101      1.0  0.86647  0.22175  0.48401  1.0000
  C   C1469     1.0  0.72353  0.03194  0.60035  1.0000
  H   H1745     1.0  0.61407  0.18014  0.51909  1.0000
  H   H1746     1.0  0.85516  0.24219  0.50412  1.0000
  C   C1470     1.0  0.86282  0.10923  0.36042  1.0000
  C   C1471     1.0  0.67686  0.09355  0.38683  1.0000
  H   H1747     1.0  0.53434  0.22916  0.64561  1.0000
  H   H1748     1.0  0.85340  0.25058  0.47956  1.0000
  C   C1472     1.0  0.93478  0.24668  0.44261  1.0000
  H   H1749     1.0  0.73842  0.04333  0.64104  1.0000
  C   C1473     1.0  0.50613  0.20963  0.52736  1.0000
  H   H1750     1.0  0.80320  0.12618  0.40237  1.0000
  H   H1751     1.0  0.51036  0.19205  0.66431  1.0000
  H   H1752     1.0  0.71461  0.08049  0.38099  1.0000
  H   H1753     1.0  0.95951  0.24522  0.62520  1.0000
  N   N102      1.0  0.68517  0.07632  0.37724  1.0000
  H   H1754     1.0  0.73514  0.02665  0.57190  1.0000
  H   H1755     1.0  0.77771  0.09343  0.37859  1.0000
  C   C1474     1.0  0.87934  0.21143  0.49760  1.0000
  C   C1475     1.0  0.97956  0.24762  0.56375  1.0000
  H   H1756     1.0  0.71017  0.06688  0.64472  1.0000
  H   H1757     1.0  0.88458  0.19682  0.49365  1.0000
  H   H1758     1.0  0.93019  0.03734  0.65945  1.0000
  H   H1759     1.0  0.87186  0.21027  0.51212  1.0000
  H   H1760     1.0  0.70609  0.09210  0.35979  1.0000
  H   H1761     1.0  0.56873  0.21616  0.64721  1.0000
  C   C1476     1.0  0.76382  0.00651  0.53425  1.0000
  H   H1762     1.0  0.69285  0.01977  0.65014  1.0000
  H   H1763     1.0  0.51109  0.14902  0.66001  1.0000
  H   H1764     1.0  0.95835  0.12938  0.34075  1.0000
  N   N103      1.0  0.55556  0.24224  0.65859  1.0000
  C   C1477     1.0  0.57239  0.23066  0.64968  1.0000
  H   H1765     1.0  0.97869  0.21605  0.33454  1.0000
  H   H1766     1.0  0.77378  0.00614  0.56204  1.0000
  C   C1478     1.0  0.86547  0.01323  0.33984  1.0000
  C   C1479     1.0  0.67358  0.07333  0.36157  1.0000
  H   H1767     1.0  0.00023  0.03680  0.34236  1.0000
  H   H1768     1.0  0.69744  0.05009  0.65978  1.0000
  H   H1769     1.0  0.87597  0.24872  0.48943  1.0000
  S   S396      1.0  0.91603  0.24917  0.49808  1.0000
  H   H1770     1.0  0.97442  0.24087  0.44307  1.0000
  H   H1771     1.0  0.54492  0.24783  0.63098  1.0000
  C   C1480     1.0  0.50544  0.23857  0.50694  1.0000
  H   H1772     1.0  0.98042  0.23309  0.46637  1.0000
  C   C1481     1.0  0.86248  0.24166  0.48951  1.0000
  H   H1773     1.0  0.89510  0.01712  0.34216  1.0000
  H   H1774     1.0  0.82291  0.01909  0.38972  1.0000
  C   C1482     1.0  0.53990  0.24330  0.64585  1.0000
  C   C1483     1.0  0.70317  0.03351  0.33435  1.0000
  Fe  Fe196     1.0  0.00138  0.24106  0.39391  1.0000
  H   H1775     1.0  0.99263  0.24401  0.49202  1.0000
  C   C1484     1.0  0.67142  0.08752  0.34641  1.0000
  C   C1485     1.0  0.65361  0.05416  0.34560  1.0000
  H   H1776     1.0  0.64721  0.04096  0.34486  1.0000
  H   H1777     1.0  0.80259  0.00597  0.38838  1.0000
  H   H1778     1.0  0.51043  0.25242  0.50296  1.0000
  Fe  Fe197     1.0  0.53872  0.14926  0.73262  1.0000
  S   S397      1.0  0.54863  0.15310  0.76122  1.0000
  S   S398      1.0  0.55702  0.15681  0.70529  1.0000
  H   H1779     1.0  0.99702  0.02834  0.92459  1.0000
  N   N104      1.0  0.94668  0.01870  0.67866  1.0000
  Fe  Fe198     1.0  0.51744  0.16064  0.77015  1.0000
  C   C1486     1.0  0.98531  0.01790  0.72688  1.0000
  Fe  Fe199     1.0  0.54232  0.12272  0.76889  1.0000
  S   S399      1.0  0.56009  0.10103  0.78692  1.0000
  S   S400      1.0  0.53522  0.11830  0.73981  1.0000
  H   H1780     1.0  0.52029  0.17671  0.69502  1.0000
  H   H1781     1.0  0.69146  0.09913  0.98289  1.0000
  C   C1487     1.0  0.72963  0.03414  0.97968  1.0000
  H   H1782     1.0  0.50866  0.07201  0.79225  1.0000
  C   C1488     1.0  0.60003  0.11452  0.74233  1.0000
  S   S401      1.0  0.59987  0.02459  0.75317  1.0000
  H   H1783     1.0  0.54399  0.05034  0.77570  1.0000
  H   H1784     1.0  0.58349  0.22461  0.97826  1.0000
  S   S402      1.0  0.54195  0.24811  0.89395  1.0000
  C   C1489     1.0  0.71784  0.03199  0.96551  1.0000
  H   H1785     1.0  0.52531  0.03903  0.78994  1.0000
  H   H1786     1.0  0.61933  0.15041  0.80669  1.0000
  C   C1490     1.0  0.55040  0.21044  0.70466  1.0000
  H   H1787     1.0  0.50971  0.02464  0.75045  1.0000
  H   H1788     1.0  0.51441  0.23708  0.82906  1.0000
  H   H1789     1.0  0.96168  0.01928  0.94858  1.0000
  C   C1491     1.0  0.55254  0.24955  0.97008  1.0000
  C   C1492     1.0  0.52601  0.23698  0.70623  1.0000
  H   H1790     1.0  0.98493  0.00571  0.68050  1.0000
  C   C1493     1.0  0.94359  0.01041  0.69835  1.0000
  H   H1791     1.0  0.57711  0.16285  0.66860  1.0000
  C   C1494     1.0  0.52012  0.19808  0.80251  1.0000
  C   C1495     1.0  0.60207  0.11620  0.76148  1.0000
  C   C1496     1.0  0.52112  0.22414  0.82321  1.0000
  C   C1497     1.0  0.53931  0.21665  0.82825  1.0000
  C   C1498     1.0  0.54785  0.19988  0.82025  1.0000
  C   C1499     1.0  0.53837  0.19067  0.80745  1.0000
  H   H1792     1.0  0.56190  0.19395  0.82404  1.0000
  H   H1793     1.0  0.54506  0.17773  0.80159  1.0000
  C   C1500     1.0  0.57120  0.07979  0.77756  1.0000
  C   C1501     1.0  0.57987  0.06540  0.78962  1.0000
  C   C1502     1.0  0.58879  0.04834  0.78246  1.0000
  C   C1503     1.0  0.58914  0.04564  0.76316  1.0000
  C   C1504     1.0  0.58049  0.06007  0.75115  1.0000
  C   C1505     1.0  0.57161  0.07707  0.75829  1.0000
  H   H1794     1.0  0.57966  0.06740  0.80456  1.0000
  H   H1795     1.0  0.59542  0.03731  0.79184  1.0000
  H   H1796     1.0  0.58081  0.05813  0.73618  1.0000
  H   H1797     1.0  0.56533  0.08815  0.74881  1.0000
  C   C1506     1.0  0.54926  0.16832  0.68387  1.0000
  H   H1798     1.0  0.52952  0.21473  0.72850  1.0000
  C   C1507     1.0  0.53047  0.17678  0.68259  1.0000
  H   H1799     1.0  0.55707  0.19726  0.71105  1.0000
  C   C1508     1.0  0.55720  0.21724  0.68648  1.0000
  C   C1509     1.0  0.58330  0.14584  0.79778  1.0000
  C   C1510     1.0  0.61728  0.14909  0.79153  1.0000
  C   C1511     1.0  0.59716  0.15055  0.75629  1.0000
  H   H1800     1.0  0.50972  0.00723  0.79912  1.0000
  H   H1801     1.0  0.58970  0.24259  0.92064  1.0000
  C   C1512     1.0  0.52255  0.06270  0.74666  1.0000
  C   C1513     1.0  0.54748  0.24108  0.98842  1.0000
  C   C1514     1.0  0.99237  0.03567  0.72842  1.0000
  H   H1802     1.0  0.50879  0.22522  0.89528  1.0000
  C   C1515     1.0  0.98781  0.00936  0.79235  1.0000
  C   C1516     1.0  0.99806  0.03156  0.67844  1.0000
  H   H1803     1.0  0.63126  0.14325  0.78445  1.0000
  H   H1804     1.0  0.61404  0.16386  0.78532  1.0000
  H   H1805     1.0  0.57954  0.16028  0.79101  1.0000
  H   H1806     1.0  0.59188  0.16120  0.72775  1.0000
  C   C1517     1.0  0.70928  0.06279  0.98921  1.0000
  H   H1807     1.0  0.57128  0.13714  0.79610  1.0000
  C   C1518     1.0  0.96336  0.03013  0.67731  1.0000
  H   H1808     1.0  0.59470  0.10882  0.80076  1.0000
  C   C1519     1.0  0.92850  0.02995  0.67384  1.0000
  C   C1520     1.0  0.98225  0.02105  0.67856  1.0000
  H   H1809     1.0  0.74169  0.02362  0.98204  1.0000
  H   H1810     1.0  0.59546  0.16479  0.76105  1.0000
  H   H1811     1.0  0.97018  0.01628  0.73014  1.0000
  H   H1812     1.0  0.60911  0.22444  0.94478  1.0000
  C   C1521     1.0  0.70194  0.04507  0.96285  1.0000
  H   H1813     1.0  0.60435  0.10300  0.77007  1.0000
  C   C1522     1.0  0.60628  0.11847  0.80077  1.0000
  N   N105      1.0  0.60186  0.13673  0.78944  1.0000
  C   C1523     1.0  0.61125  0.24870  0.96071  1.0000
  H   H1814     1.0  0.99262  0.24893  0.98721  1.0000
  C   C1524     1.0  0.68839  0.09211  0.99728  1.0000
  H   H1815     1.0  0.69269  0.04311  0.95194  1.0000
  C   C1525     1.0  0.50359  0.11384  0.67006  1.0000
  C   C1526     1.0  0.53029  0.04379  0.77516  1.0000
  H   H1816     1.0  0.52659  0.05008  0.73828  1.0000
  S   S403      1.0  0.50770  0.15863  0.74085  1.0000
  H   H1817     1.0  0.97533  0.07620  0.67620  1.0000
  C   C1527     1.0  0.69765  0.06033  0.97443  1.0000
  S   S404      1.0  0.62438  0.23497  0.97802  1.0000
  H   H1818     1.0  0.99627  0.23936  0.71619  1.0000
  C   C1528     1.0  0.59641  0.13071  0.73025  1.0000
  H   H1819     1.0  0.91650  0.02070  0.67400  1.0000
  H   H1820     1.0  0.68499  0.06975  0.97171  1.0000
  C   C1529     1.0  0.72537  0.04915  0.99150  1.0000
  H   H1821     1.0  0.97473  0.00964  0.80182  1.0000
  H   H1822     1.0  0.52756  0.08124  0.77671  1.0000
  C   C1530     1.0  0.98726  0.01952  0.91835  1.0000
  Fe  Fe200     1.0  0.50465  0.12766  0.75001  1.0000
  H   H1823     1.0  0.56820  0.20693  0.98821  1.0000
  H   H1824     1.0  0.50919  0.14427  0.70304  1.0000
  H   H1825     1.0  0.99457  0.01557  0.90445  1.0000
  H   H1826     1.0  0.51780  0.21964  0.87184  1.0000
  H   H1827     1.0  0.51534  0.19100  0.85950  1.0000
  H   H1828     1.0  0.72075  0.01984  0.95691  1.0000
  H   H1829     1.0  0.60743  0.12072  0.81592  1.0000
  C   C1531     1.0  0.52751  0.24006  0.99378  1.0000
  H   H1830     1.0  0.60091  0.10051  0.73692  1.0000
  H   H1831     1.0  0.98247  0.04762  0.73270  1.0000
  C   C1532     1.0  0.59510  0.14868  0.73719  1.0000
  H   H1832     1.0  0.58348  0.14748  0.81320  1.0000
  H   H1833     1.0  0.00111  0.24751  0.73844  1.0000
  H   H1834     1.0  0.62015  0.11086  0.79533  1.0000
  H   H1835     1.0  0.99762  0.03309  0.80380  1.0000
  H   H1836     1.0  0.51384  0.24452  0.71392  1.0000
  H   H1837     1.0  0.53416  0.03095  0.76705  1.0000
  H   H1838     1.0  0.59430  0.12936  0.71552  1.0000
  C   C1533     1.0  0.51180  0.13129  0.69507  1.0000
  C   C1534     1.0  0.60053  0.13434  0.76911  1.0000
  H   H1839     1.0  0.53555  0.07062  0.74585  1.0000
  C   C1535     1.0  0.53278  0.24401  0.68813  1.0000
  S   S405      1.0  0.55192  0.22738  0.84461  1.0000
  H   H1840     1.0  0.50472  0.10029  0.67919  1.0000
  S   S406      1.0  0.51161  0.13036  0.77983  1.0000
  C   C1536     1.0  0.60527  0.23957  0.94574  1.0000
  C   C1537     1.0  0.53483  0.22023  0.71449  1.0000
  H   H1841     1.0  0.51015  0.17061  0.83514  1.0000
  H   H1842     1.0  0.94134  0.02166  0.70863  1.0000
  C   C1538     1.0  0.51159  0.21488  0.81047  1.0000
  N   N106      1.0  0.51550  0.05741  0.76653  1.0000
  H   H1843     1.0  0.51135  0.07203  0.73935  1.0000
  H   H1844     1.0  0.97386  0.02875  0.91556  1.0000
  C   C1539     1.0  0.54865  0.23440  0.67770  1.0000
  S   S407      1.0  0.50702  0.18642  0.78729  1.0000
  C   C1540     1.0  0.51360  0.07495  0.77705  1.0000
  C   C1541     1.0  0.50760  0.21535  0.88409  1.0000
  C   C1542     1.0  0.00098  0.02275  0.79331  1.0000
  H   H1845     1.0  0.94750  0.05860  0.67578  1.0000
  H   H1846     1.0  0.56900  0.20860  0.67955  1.0000
  C   C1543     1.0  0.97500  0.00945  0.94976  1.0000
  H   H1847     1.0  0.72664  0.09486  0.98909  1.0000
  C   C1544     1.0  0.99554  0.05136  0.67765  1.0000
  C   C1545     1.0  0.56250  0.16923  0.66774  1.0000
  C   C1546     1.0  0.96129  0.05041  0.67631  1.0000
  C   C1547     1.0  0.97722  0.06077  0.67652  1.0000
  C   C1548     1.0  0.51368  0.24689  0.98134  1.0000
  H   H1848     1.0  0.67465  0.08542  0.99791  1.0000
  H   H1849     1.0  0.51181  0.11881  0.70567  1.0000
  H   H1850     1.0  0.98531  0.01760  0.95593  1.0000
  C   C1549     1.0  0.59421  0.24980  0.93206  1.0000
  H   H1851     1.0  0.52661  0.13157  0.68785  1.0000
  S   S408      1.0  0.98403  0.02322  0.99743  1.0000
  C   C1550     1.0  0.57597  0.21895  0.99165  1.0000
  H   H1852     1.0  0.92340  0.04058  0.68438  1.0000
  H   H1853     1.0  0.51264  0.20086  0.88998  1.0000
  H   H1854     1.0  0.56737  0.25098  0.96510  1.0000
  H   H1855     1.0  0.00023  0.07850  0.98548  1.0000
  H   H1856     1.0  0.50345  0.08628  0.77074  1.0000
  Fe  Fe201     1.0  0.96741  0.36751  0.26173  1.0000
  H   H1857     1.0  0.99038  0.32380  0.27674  1.0000
  S   S409      1.0  0.95552  0.34900  0.28716  1.0000
  Fe  Fe202     1.0  0.95825  0.40585  0.23900  1.0000
  H   H1858     1.0  0.58260  0.26761  0.08696  1.0000
  S   S410      1.0  0.93772  0.43144  0.23049  1.0000
  Fe  Fe203     1.0  0.98171  0.37295  0.21985  1.0000
  S   S411      1.0  0.98807  0.35931  0.19136  1.0000
  C   C1551     1.0  0.91229  0.39331  0.13643  1.0000
  S   S412      1.0  0.95220  0.37578  0.23522  1.0000
  S   S413      1.0  0.97043  0.39805  0.26677  1.0000
  Fe  Fe204     1.0  0.78583  0.37477  0.04177  1.0000
  S   S414      1.0  0.76495  0.36516  0.06582  1.0000
  S   S415      1.0  0.81816  0.37457  0.04417  1.0000
  Fe  Fe205     1.0  0.75362  0.39070  0.01686  1.0000
  S   S416      1.0  0.73068  0.38233  0.03942  1.0000
  H   H1859     1.0  0.91324  0.43235  0.17487  1.0000
  Fe  Fe206     1.0  0.74831  0.39365  0.06001  1.0000
  S   S417      1.0  0.73225  0.41032  0.08374  1.0000
  Fe  Fe207     1.0  0.74880  0.35467  0.04333  1.0000
  S   S418      1.0  0.73727  0.32526  0.04689  1.0000
  S   S419      1.0  0.76985  0.40414  0.03722  1.0000
  S   S420      1.0  0.77106  0.36213  0.01952  1.0000
  Fe  Fe208     1.0  0.93801  0.27271  0.09560  1.0000
  S   S421      1.0  0.93541  0.28418  0.06550  1.0000
  Fe  Fe209     1.0  0.93624  0.31324  0.11038  1.0000
  S   S422      1.0  0.93342  0.32737  0.08098  1.0000
  S   S423      1.0  0.93091  0.32989  0.13724  1.0000
  Fe  Fe210     1.0  0.91245  0.30582  0.07779  1.0000
  S   S424      1.0  0.88150  0.30798  0.06945  1.0000
  Fe  Fe211     1.0  0.95664  0.30460  0.07101  1.0000
  S   S425      1.0  0.98598  0.30965  0.05492  1.0000
  S   S426      1.0  0.91412  0.29290  0.10761  1.0000
  S   S427      1.0  0.96040  0.29191  0.10076  1.0000
  C   C1552     1.0  0.63136  0.49880  0.17169  1.0000
  H   H1860     1.0  0.69668  0.37091  0.07936  1.0000
  H   H1861     1.0  0.92622  0.37640  0.11419  1.0000
  S   S428      1.0  0.52013  0.27675  0.12432  1.0000
  H   H1862     1.0  0.72109  0.37237  0.08333  1.0000
  Fe  Fe212     1.0  0.64363  0.27055  0.03395  1.0000
  S   S429      1.0  0.65426  0.30006  0.03534  1.0000
  S   S430      1.0  0.61558  0.26942  0.02089  1.0000
  C   C1553     1.0  0.53538  0.26833  0.10483  1.0000
  H   H1863     1.0  0.99613  0.26223  0.06822  1.0000
  C   C1554     1.0  0.56761  0.26496  0.08809  1.0000
  C   C1555     1.0  0.55492  0.27162  0.10326  1.0000
  C   C1556     1.0  0.98177  0.25932  0.06445  1.0000
  H   H1864     1.0  0.97249  0.25803  0.07802  1.0000
  C   C1557     1.0  0.75111  0.45400  0.99968  1.0000
  H   H1865     1.0  0.78732  0.48141  0.00309  1.0000
  H   H1866     1.0  0.97145  0.30126  0.01926  1.0000
  C   C1558     1.0  0.71415  0.31856  0.04329  1.0000
  C   C1559     1.0  0.71144  0.29909  0.04352  1.0000
  C   C1560     1.0  0.69330  0.29313  0.04101  1.0000
  C   C1561     1.0  0.67761  0.30662  0.03819  1.0000
  C   C1562     1.0  0.68035  0.32609  0.03795  1.0000
  C   C1563     1.0  0.69845  0.33203  0.04055  1.0000
  H   H1867     1.0  0.72344  0.28851  0.04569  1.0000
  H   H1868     1.0  0.69144  0.27811  0.04130  1.0000
  H   H1869     1.0  0.95485  0.41196  0.19888  1.0000
  H   H1870     1.0  0.70017  0.34700  0.04066  1.0000
  C   C1564     1.0  0.74098  0.43080  0.09153  1.0000
  C   C1565     1.0  0.72948  0.44175  0.10480  1.0000
  C   C1566     1.0  0.73615  0.45789  0.11154  1.0000
  C   C1567     1.0  0.75450  0.46312  0.10518  1.0000
  C   C1568     1.0  0.76595  0.45220  0.09188  1.0000
  C   C1569     1.0  0.75923  0.43619  0.08503  1.0000
  H   H1871     1.0  0.71536  0.43770  0.10994  1.0000
  H   H1872     1.0  0.72721  0.46613  0.12180  1.0000
  H   H1873     1.0  0.78021  0.45602  0.08697  1.0000
  H   H1874     1.0  0.76827  0.42786  0.07492  1.0000
  C   C1570     1.0  0.83561  0.35573  0.05083  1.0000
  C   C1571     1.0  0.85456  0.35992  0.05244  1.0000
  C   C1572     1.0  0.86882  0.34557  0.05803  1.0000
  C   C1573     1.0  0.86429  0.32679  0.06214  1.0000
  C   C1574     1.0  0.84536  0.32260  0.06050  1.0000
  C   C1575     1.0  0.83110  0.33694  0.05489  1.0000
  H   H1875     1.0  0.85822  0.37439  0.04929  1.0000
  H   H1876     1.0  0.88334  0.34903  0.05887  1.0000
  H   H1877     1.0  0.84169  0.30811  0.06351  1.0000
  H   H1878     1.0  0.81664  0.33347  0.05366  1.0000
  C   C1576     1.0  0.92613  0.44727  0.24696  1.0000
  C   C1577     1.0  0.92871  0.44450  0.26626  1.0000
  C   C1578     1.0  0.91944  0.45755  0.27891  1.0000
  C   C1579     1.0  0.90756  0.47345  0.27239  1.0000
  C   C1580     1.0  0.90506  0.47629  0.25307  1.0000
  C   C1581     1.0  0.91431  0.46322  0.24041  1.0000
  H   H1879     1.0  0.93778  0.43230  0.27146  1.0000
  H   H1880     1.0  0.92145  0.45526  0.29384  1.0000
  H   H1881     1.0  0.89593  0.48848  0.24790  1.0000
  H   H1882     1.0  0.91224  0.46546  0.22550  1.0000
  C   C1582     1.0  0.97211  0.34981  0.17722  1.0000
  C   C1583     1.0  0.97941  0.34256  0.15980  1.0000
  C   C1584     1.0  0.96718  0.33579  0.14771  1.0000
  C   C1585     1.0  0.94735  0.33644  0.15274  1.0000
  C   C1586     1.0  0.94006  0.34355  0.17024  1.0000
  C   C1587     1.0  0.95235  0.34997  0.18248  1.0000
  C   C1588     1.0  0.76753  0.45994  0.00599  1.0000
  H   H1883     1.0  0.97307  0.33042  0.13433  1.0000
  H   H1884     1.0  0.92479  0.34408  0.17436  1.0000
  H   H1885     1.0  0.94655  0.35509  0.19597  1.0000
  C   C1589     1.0  0.67608  0.34020  0.09077  1.0000
  H   H1886     1.0  0.51165  0.49230  0.24755  1.0000
  C   C1590     1.0  0.95739  0.31937  0.31470  1.0000
  C   C1591     1.0  0.96629  0.32735  0.29775  1.0000
  C   C1592     1.0  0.98361  0.31820  0.29005  1.0000
  H   H1887     1.0  0.67078  0.35503  0.09146  1.0000
  C   C1593     1.0  0.94576  0.38129  0.13428  1.0000
  H   H1888     1.0  0.56029  0.27944  0.11376  1.0000
  N   N107      1.0  0.87177  0.34227  0.11906  1.0000
  C   C1594     1.0  0.87480  0.34914  0.13763  1.0000
  C   C1595     1.0  0.86901  0.32167  0.12225  1.0000
  C   C1596     1.0  0.88949  0.34403  0.10618  1.0000
  C   C1597     1.0  0.85545  0.35386  0.11072  1.0000
  C   C1598     1.0  0.83943  0.34572  0.10495  1.0000
  C   C1599     1.0  0.85556  0.37394  0.10759  1.0000
  C   C1600     1.0  0.82444  0.35711  0.09684  1.0000
  C   C1601     1.0  0.84058  0.38515  0.09928  1.0000
  C   C1602     1.0  0.82506  0.37673  0.09390  1.0000
  H   H1889     1.0  0.86153  0.34876  0.14753  1.0000
  H   H1890     1.0  0.88668  0.34024  0.14445  1.0000
  H   H1891     1.0  0.87904  0.36389  0.13635  1.0000
  H   H1892     1.0  0.85578  0.31928  0.13171  1.0000
  H   H1893     1.0  0.88126  0.31350  0.12906  1.0000
  H   H1894     1.0  0.86822  0.31511  0.10864  1.0000
  H   H1895     1.0  0.88785  0.33897  0.09208  1.0000
  H   H1896     1.0  0.89338  0.35890  0.10388  1.0000
  H   H1897     1.0  0.90203  0.33536  0.11188  1.0000
  H   H1898     1.0  0.83836  0.33056  0.10595  1.0000
  H   H1899     1.0  0.86745  0.38108  0.11113  1.0000
  H   H1900     1.0  0.81264  0.35063  0.09196  1.0000
  H   H1901     1.0  0.84111  0.40039  0.09660  1.0000
  H   H1902     1.0  0.81376  0.38534  0.08687  1.0000
  H   H1903     1.0  0.90187  0.40896  0.16026  1.0000
  H   H1904     1.0  0.99950  0.35275  0.04167  1.0000
  H   H1905     1.0  0.74592  0.44064  0.00558  1.0000
  C   C1603     1.0  0.94809  0.38934  0.15113  1.0000
  H   H1906     1.0  0.73551  0.33199  0.08697  1.0000
  C   C1604     1.0  0.70182  0.35721  0.11484  1.0000
  H   H1907     1.0  0.66830  0.33664  0.03590  1.0000
  C   C1605     1.0  0.57982  0.49140  0.20898  1.0000
  C   C1606     1.0  0.93240  0.39962  0.16125  1.0000
  C   C1607     1.0  0.70126  0.31409  0.09184  1.0000
  H   H1908     1.0  0.69498  0.36285  0.01100  1.0000
  C   C1608     1.0  0.00168  0.34919  0.01186  1.0000
  H   H1909     1.0  0.52497  0.32888  0.10840  1.0000
  H   H1910     1.0  0.50961  0.31974  0.14789  1.0000
  H   H1911     1.0  0.98633  0.34869  0.01150  1.0000
  H   H1912     1.0  0.71522  0.35530  0.06794  1.0000
  C   C1609     1.0  0.52279  0.34073  0.11808  1.0000
  C   C1610     1.0  0.51074  0.35722  0.15619  1.0000
  H   H1913     1.0  0.57700  0.49121  0.19390  1.0000
  H   H1914     1.0  0.95779  0.37301  0.12712  1.0000
  H   H1915     1.0  0.93609  0.49289  0.29435  1.0000
  H   H1916     1.0  0.99466  0.34228  0.15556  1.0000
  H   H1917     1.0  0.69989  0.34665  0.12719  1.0000
  H   H1918     1.0  0.77497  0.45124  0.01678  1.0000
  C   C1611     1.0  0.56084  0.25481  0.07444  1.0000
  C   C1612     1.0  0.71050  0.36216  0.08134  1.0000
  H   H1919     1.0  0.98811  0.38929  0.32369  1.0000
  C   C1613     1.0  0.66323  0.32767  0.08645  1.0000
  C   C1614     1.0  0.92123  0.39921  0.19459  1.0000
  C   C1615     1.0  0.68821  0.30167  0.08770  1.0000
  H   H1920     1.0  0.96454  0.41154  0.17480  1.0000
  H   H1921     1.0  0.92284  0.40449  0.20865  1.0000
  H   H1922     1.0  0.51363  0.25553  0.09225  1.0000
  S   S431      1.0  0.98720  0.40364  0.22228  1.0000
  H   H1923     1.0  0.65979  0.49781  0.20769  1.0000
  H   H1924     1.0  0.93752  0.43588  0.16573  1.0000
  S   S432      1.0  0.99671  0.36284  0.24621  1.0000
  H   H1925     1.0  0.94872  0.48371  0.24681  1.0000
  H   H1926     1.0  0.52652  0.35405  0.10972  1.0000
  H   H1927     1.0  0.71586  0.30796  0.09300  1.0000
  H   H1928     1.0  0.99743  0.44428  0.25652  1.0000
  H   H1929     1.0  0.96224  0.38680  0.15616  1.0000
  H   H1930     1.0  0.58660  0.47704  0.21354  1.0000
  N   N108      1.0  0.93415  0.40802  0.17935  1.0000
  H   H1931     1.0  0.68782  0.36583  0.11341  1.0000
  H   H1932     1.0  0.96868  0.45482  0.23950  1.0000
  N   N109      1.0  0.70902  0.34756  0.09741  1.0000
  C   C1616     1.0  0.99737  0.30388  0.03228  1.0000
  H   H1933     1.0  0.71194  0.36734  0.11830  1.0000
  H   H1934     1.0  0.52033  0.34474  0.15959  1.0000
  C   C1617     1.0  0.72880  0.33865  0.10001  1.0000
  C   C1618     1.0  0.99998  0.35066  0.32675  1.0000
  H   H1935     1.0  0.73853  0.34936  0.10292  1.0000
  H   H1936     1.0  0.99600  0.35331  0.28874  1.0000
  H   H1937     1.0  0.69298  0.28680  0.08584  1.0000
  C   C1619     1.0  0.96595  0.30283  0.32419  1.0000
  C   C1620     1.0  0.96130  0.48029  0.25449  1.0000
  C   C1621     1.0  0.92791  0.38313  0.12702  1.0000
  C   C1622     1.0  0.98365  0.29419  0.31689  1.0000
  C   C1623     1.0  0.95394  0.40518  0.18548  1.0000
  C   C1624     1.0  0.69555  0.33382  0.09353  1.0000
  H   H1938     1.0  0.72859  0.34514  0.01069  1.0000
  S   S433      1.0  0.76402  0.48295  0.11340  1.0000
  H   H1939     1.0  0.97775  0.37796  0.30563  1.0000
  H   H1940     1.0  0.95867  0.38981  0.18833  1.0000
  C   C1625     1.0  0.92858  0.42885  0.17752  1.0000
  H   H1941     1.0  0.64861  0.33291  0.08374  1.0000
  H   H1942     1.0  0.92446  0.38344  0.19588  1.0000
  H   H1943     1.0  0.93045  0.43568  0.19073  1.0000
  C   C1626     1.0  0.91443  0.40141  0.15332  1.0000
  H   H1944     1.0  0.72422  0.31563  0.99963  1.0000
  H   H1945     1.0  0.59928  0.49349  0.23933  1.0000
  C   C1627     1.0  0.98695  0.30097  0.01714  1.0000
  C   C1628     1.0  0.96591  0.49171  0.26869  1.0000
  H   H1946     1.0  0.94391  0.32619  0.32070  1.0000
  H   H1947     1.0  0.65949  0.29889  0.08086  1.0000
  H   H1948     1.0  0.72890  0.32765  0.11211  1.0000
  H   H1949     1.0  0.90581  0.40234  0.19213  1.0000
  C   C1629     1.0  0.66929  0.30845  0.08491  1.0000
  H   H1950     1.0  0.98632  0.49248  0.28986  1.0000
  H   H1951     1.0  0.78031  0.49396  0.07642  1.0000
  S   S434      1.0  0.99577  0.27415  0.32888  1.0000
  S   S435      1.0  0.89687  0.48980  0.28878  1.0000
  H   H1952     1.0  0.89844  0.39483  0.13068  1.0000
  C   C1630     1.0  0.99367  0.46824  0.27386  1.0000
  C   C1631     1.0  0.99230  0.30184  0.29967  1.0000
  H   H1953     1.0  0.53341  0.33731  0.12876  1.0000
  C   C1632     1.0  0.64674  0.49840  0.20058  1.0000
  C   C1633     1.0  0.99137  0.38219  0.31020  1.0000
  C   C1634     1.0  0.97268  0.46350  0.25014  1.0000
  H   H1954     1.0  0.53297  0.25968  0.16133  1.0000
  H   H1955     1.0  0.97605  0.27217  0.05597  1.0000
  H   H1956     1.0  0.63251  0.49828  0.15642  1.0000
  C   C1635     1.0  0.98883  0.45749  0.25977  1.0000
  H   H1957     1.0  0.50605  0.25481  0.18118  1.0000
  H   H1958     1.0  0.56434  0.26101  0.01191  1.0000
  H   H1959     1.0  0.56540  0.49351  0.21705  1.0000
  H   H1960     1.0  0.70622  0.28819  0.00028  1.0000
  H   H1961     1.0  0.51576  0.36993  0.18166  1.0000
  C   C1636     1.0  0.98235  0.48502  0.27839  1.0000
  C   C1637     1.0  0.64804  0.49733  0.18103  1.0000
  H   H1962     1.0  0.99639  0.39316  0.29922  1.0000
  Fe  Fe213     1.0  0.99924  0.39394  0.25002  1.0000
  C   C1638     1.0  0.50842  0.37163  0.16882  1.0000
  C   C1639     1.0  0.62878  0.50121  0.21088  1.0000
  C   C1640     1.0  0.52862  0.25819  0.09120  1.0000
  C   C1641     1.0  0.61331  0.50144  0.18185  1.0000
  H   H1963     1.0  0.66204  0.49588  0.17305  1.0000
  H   H1964     1.0  0.80153  0.50215  0.06418  1.0000
  N   N110      1.0  0.50276  0.34293  0.12696  1.0000
  C   C1642     1.0  0.61144  0.50280  0.20179  1.0000
  H   H1965     1.0  0.62896  0.50275  0.22584  1.0000
  H   H1966     1.0  0.78010  0.50279  0.05205  1.0000
  C   C1643     1.0  0.50873  0.50170  0.23519  1.0000
  H   H1967     1.0  0.60083  0.50286  0.17391  1.0000
  Fe  Fe214     1.0  0.63392  0.40043  0.61879  1.0000
  S   S436      1.0  0.61117  0.42291  0.62918  1.0000
  S   S437      1.0  0.66552  0.39911  0.62449  1.0000
  Fe  Fe215     1.0  0.60413  0.37607  0.60589  1.0000
  S   S438      1.0  0.57908  0.39679  0.61548  1.0000
  S   S439      1.0  0.60319  0.35088  0.58773  1.0000
  Fe  Fe216     1.0  0.59726  0.41960  0.60243  1.0000
  S   S440      1.0  0.58639  0.44651  0.58537  1.0000
  Fe  Fe217     1.0  0.59475  0.39859  0.64155  1.0000
  S   S441      1.0  0.62146  0.39906  0.59108  1.0000
  S   S442      1.0  0.61832  0.37602  0.63293  1.0000
  C   C1644     1.0  0.87811  0.30631  0.59012  1.0000
  H   H1968     1.0  0.55420  0.45323  0.61387  1.0000
  H   H1969     1.0  0.89382  0.33234  0.56746  1.0000
  S   S443      1.0  0.98617  0.26966  0.38593  1.0000
  C   C1645     1.0  0.91415  0.28515  0.63319  1.0000
  S   S444      1.0  0.57061  0.26945  0.60488  1.0000
  H   H1970     1.0  0.52754  0.25360  0.65014  1.0000
  H   H1971     1.0  0.68678  0.34383  0.58031  1.0000
  Fe  Fe218     1.0  0.87109  0.29604  0.54030  1.0000
  C   C1646     1.0  0.87496  0.49245  0.64424  1.0000
  S   S445      1.0  0.86892  0.32857  0.54012  1.0000
  H   H1972     1.0  0.96553  0.26084  0.48060  1.0000
  H   H1973     1.0  0.91347  0.27055  0.63896  1.0000
  S   S446      1.0  0.90133  0.28162  0.54089  1.0000
  S   S447      1.0  0.86443  0.27920  0.51648  1.0000
  Fe  Fe219     1.0  0.76287  0.44700  0.59013  1.0000
  S   S448      1.0  0.78016  0.43973  0.56285  1.0000
  S   S449      1.0  0.73033  0.45169  0.58871  1.0000
  Fe  Fe220     1.0  0.79923  0.44753  0.61121  1.0000
  S   S450      1.0  0.81866  0.43980  0.58525  1.0000
  S   S451      1.0  0.81274  0.44692  0.63945  1.0000
  Fe  Fe221     1.0  0.79918  0.46171  0.56926  1.0000
  H   H1974     1.0  0.95904  0.29704  0.33735  1.0000
  Fe  Fe222     1.0  0.79801  0.41856  0.58097  1.0000
  S   S452      1.0  0.80174  0.38672  0.57583  1.0000
  S   S453      1.0  0.78085  0.47047  0.59554  1.0000
  S   S454      1.0  0.77957  0.42488  0.60793  1.0000
  S   S455      1.0  0.97643  0.28124  0.61580  1.0000
  H   H1975     1.0  0.59296  0.45351  0.46848  1.0000
  H   H1976     1.0  0.81025  0.48890  0.64004  1.0000
  H   H1977     1.0  0.54562  0.33829  0.59482  1.0000
  C   C1647     1.0  0.54267  0.31679  0.57570  1.0000
  C   C1648     1.0  0.92945  0.31433  0.63064  1.0000
  C   C1649     1.0  0.94772  0.28098  0.59228  1.0000
  C   C1650     1.0  0.93167  0.27392  0.58581  1.0000
  H   H1978     1.0  0.95215  0.29458  0.58640  1.0000
  H   H1979     1.0  0.92399  0.28192  0.57489  1.0000
  C   C1651     1.0  0.85032  0.34439  0.55073  1.0000
  C   C1652     1.0  0.85288  0.36392  0.55023  1.0000
  C   C1653     1.0  0.83836  0.37708  0.55811  1.0000
  C   C1654     1.0  0.82105  0.37082  0.56652  1.0000
  C   C1655     1.0  0.81862  0.35125  0.56724  1.0000
  C   C1656     1.0  0.83318  0.33809  0.55948  1.0000
  H   H1980     1.0  0.86608  0.36896  0.54347  1.0000
  H   H1981     1.0  0.84045  0.39206  0.55741  1.0000
  H   H1982     1.0  0.80531  0.34623  0.57373  1.0000
  H   H1983     1.0  0.83097  0.32314  0.55998  1.0000
  C   C1657     1.0  0.81804  0.48260  0.65169  1.0000
  C   C1658     1.0  0.82066  0.46273  0.65480  1.0000
  H   H1984     1.0  0.86810  0.34282  0.59258  1.0000
  Fe  Fe223     1.0  0.98541  0.25897  0.35702  1.0000
  H   H1985     1.0  0.59643  0.48787  0.47419  1.0000
  C   C1659     1.0  0.55361  0.47396  0.49345  1.0000
  H   H1986     1.0  0.77362  0.49561  0.54131  1.0000
  C   C1660     1.0  0.91181  0.27249  0.46521  1.0000
  C   C1661     1.0  0.52885  0.43840  0.61914  1.0000
  H   H1987     1.0  0.63645  0.43352  0.66060  1.0000
  C   C1662     1.0  0.56727  0.44714  0.57073  1.0000
  C   C1663     1.0  0.56149  0.46434  0.56062  1.0000
  C   C1664     1.0  0.54664  0.46534  0.54853  1.0000
  C   C1665     1.0  0.53742  0.44914  0.54639  1.0000
  C   C1666     1.0  0.54317  0.43195  0.55653  1.0000
  C   C1667     1.0  0.55797  0.43095  0.56872  1.0000
  H   H1988     1.0  0.56872  0.47687  0.56199  1.0000
  H   H1989     1.0  0.54256  0.47858  0.54066  1.0000
  H   H1990     1.0  0.53612  0.41933  0.55498  1.0000
  H   H1991     1.0  0.56230  0.41763  0.57642  1.0000
  C   C1668     1.0  0.59500  0.32793  0.59331  1.0000
  C   C1669     1.0  0.59850  0.31432  0.57966  1.0000
  C   C1670     1.0  0.59150  0.29624  0.58302  1.0000
  C   C1671     1.0  0.58064  0.29164  0.60000  1.0000
  C   C1672     1.0  0.57723  0.30521  0.61370  1.0000
  C   C1673     1.0  0.58443  0.32320  0.61044  1.0000
  H   H1992     1.0  0.60667  0.31783  0.56637  1.0000
  H   H1993     1.0  0.59460  0.28591  0.57248  1.0000
  H   H1994     1.0  0.56887  0.30185  0.62690  1.0000
  H   H1995     1.0  0.58157  0.33353  0.62103  1.0000
  C   C1674     1.0  0.68318  0.41411  0.61450  1.0000
  C   C1675     1.0  0.70161  0.41144  0.62107  1.0000
  C   C1676     1.0  0.71617  0.42286  0.61343  1.0000
  C   C1677     1.0  0.71252  0.43695  0.59894  1.0000
  C   C1678     1.0  0.69403  0.43977  0.59253  1.0000
  C   C1679     1.0  0.67941  0.42842  0.60025  1.0000
  H   H1996     1.0  0.70468  0.40042  0.63211  1.0000
  H   H1997     1.0  0.73020  0.42083  0.61880  1.0000
  H   H1998     1.0  0.69101  0.45078  0.58145  1.0000
  H   H1999     1.0  0.66530  0.43064  0.59507  1.0000
  C   C1680     1.0  0.60409  0.44662  0.53575  1.0000
  C   C1681     1.0  0.56347  0.33944  0.54881  1.0000
  H   H2000     1.0  0.91849  0.33672  0.61176  1.0000
  H   H2001     1.0  0.67105  0.46041  0.63170  1.0000
  C   C1682     1.0  0.86793  0.47570  0.64016  1.0000
  H   H2002     1.0  0.97157  0.28431  0.47197  1.0000
  Fe  Fe224     1.0  0.85364  0.25798  0.53960  1.0000
  C   C1683     1.0  0.90269  0.32664  0.57918  1.0000
  H   H2003     1.0  0.56735  0.26771  0.64568  1.0000
  H   H2004     1.0  0.85285  0.46192  0.62163  1.0000
  H   H2005     1.0  0.52496  0.49473  0.56962  1.0000
  H   H2006     1.0  0.57781  0.50058  0.48929  1.0000
  C   C1684     1.0  0.71662  0.45209  0.65900  1.0000
  C   C1685     1.0  0.96977  0.26987  0.46765  1.0000
  S   S456      1.0  0.81384  0.48303  0.54788  1.0000
  S   S457      1.0  0.51887  0.44974  0.53104  1.0000
  H   H2007     1.0  0.51586  0.29087  0.57099  1.0000
  C   C1686     1.0  0.53002  0.46905  0.60145  1.0000
  C   C1687     1.0  0.51028  0.46971  0.59817  1.0000
  H   H2008     1.0  0.70037  0.47352  0.61848  1.0000
  H   H2009     1.0  0.84817  0.47297  0.56917  1.0000
  H   H2010     1.0  0.88623  0.34800  0.60690  1.0000
  H   H2011     1.0  0.81956  0.49962  0.60755  1.0000
  H   H2012     1.0  0.56738  0.27604  0.55946  1.0000
  C   C1688     1.0  0.95778  0.27076  0.60660  1.0000
  H   H2013     1.0  0.52519  0.26852  0.56201  1.0000
  C   C1689     1.0  0.92815  0.29577  0.63844  1.0000
  H   H2014     1.0  0.96227  0.33851  0.35845  1.0000
  C   C1690     1.0  0.85714  0.49101  0.61026  1.0000
  C   C1691     1.0  0.91620  0.27716  0.44574  1.0000
  C   C1692     1.0  0.97653  0.33759  0.35101  1.0000
  H   H2015     1.0  0.57049  0.46305  0.45960  1.0000
  C   C1693     1.0  0.98940  0.32169  0.35468  1.0000
  C   C1694     1.0  0.98159  0.35185  0.33718  1.0000
  N   N111      1.0  0.57446  0.47075  0.48764  1.0000
  H   H2016     1.0  0.90307  0.28258  0.47387  1.0000
  S   S458      1.0  0.85849  0.27601  0.56326  1.0000
  H   H2017     1.0  0.57297  0.49461  0.46662  1.0000
  H   H2018     1.0  0.87089  0.47442  0.57852  1.0000
  H   H2019     1.0  0.86931  0.31284  0.57863  1.0000
  H   H2020     1.0  0.53533  0.30848  0.58701  1.0000
  H   H2021     1.0  0.53737  0.27793  0.57950  1.0000
  C   C1695     1.0  0.64908  0.44076  0.65407  1.0000
  H   H2022     1.0  0.86768  0.30149  0.60188  1.0000
  C   C1696     1.0  0.70002  0.46568  0.63226  1.0000
  H   H2023     1.0  0.99609  0.27792  0.52718  1.0000
  C   C1697     1.0  0.80674  0.48796  0.48178  1.0000
  C   C1698     1.0  0.82635  0.48768  0.59918  1.0000
  C   C1699     1.0  0.58086  0.48920  0.47915  1.0000
  H   H2024     1.0  0.97656  0.27217  0.43021  1.0000
  H   H2025     1.0  0.61876  0.47193  0.53309  1.0000
  C   C1700     1.0  0.82953  0.45873  0.46401  1.0000
  H   H2026     1.0  0.53608  0.42634  0.62688  1.0000
  H   H2027     1.0  0.83846  0.44736  0.45719  1.0000
  H   H2028     1.0  0.98514  0.31033  0.36488  1.0000
  C   C1701     1.0  0.87792  0.33643  0.60334  1.0000
  H   H2029     1.0  0.85346  0.45974  0.59058  1.0000
  H   H2030     1.0  0.52515  0.28194  0.53090  1.0000
  C   C1702     1.0  0.82534  0.45724  0.48360  1.0000
  C   C1703     1.0  0.54849  0.33400  0.58045  1.0000
  H   H2031     1.0  0.88682  0.29357  0.58450  1.0000
  H   H2032     1.0  0.56864  0.28554  0.53529  1.0000
  H   H2033     1.0  0.55070  0.48405  0.50483  1.0000
  H   H2034     1.0  0.86863  0.46344  0.65034  1.0000
  H   H2035     1.0  0.54552  0.48016  0.48135  1.0000
  C   C1704     1.0  0.90170  0.29284  0.61975  1.0000
  H   H2036     1.0  0.65333  0.43445  0.64025  1.0000
  C   C1705     1.0  0.57737  0.45711  0.47257  1.0000
  H   H2037     1.0  0.53902  0.30085  0.52194  1.0000
  H   H2038     1.0  0.79817  0.49896  0.48934  1.0000
  N   N112      1.0  0.84682  0.49009  0.59320  1.0000
  Fe  Fe225     1.0  0.88838  0.26071  0.56233  1.0000
  C   C1706     1.0  0.91690  0.32227  0.61737  1.0000
  C   C1707     1.0  0.92800  0.26443  0.43445  1.0000
  C   C1708     1.0  0.81399  0.47185  0.49247  1.0000
  H   H2039     1.0  0.89174  0.28345  0.61588  1.0000
  C   C1709     1.0  0.68266  0.44692  0.65773  1.0000
  C   C1710     1.0  0.58473  0.46279  0.50416  1.0000
  H   H2040     1.0  0.91118  0.33837  0.58184  1.0000
  Fe  Fe226     1.0  0.89354  0.26304  0.51923  1.0000
  H   H2041     1.0  0.58678  0.42335  0.53574  1.0000
  N   N113      1.0  0.89059  0.31996  0.59623  1.0000
  H   H2042     1.0  0.54715  0.46062  0.49882  1.0000
  C   C1711     1.0  0.80273  0.50212  0.53353  1.0000
  H   H2043     1.0  0.91074  0.29086  0.43947  1.0000
  C   C1712     1.0  0.90295  0.31159  0.61112  1.0000
  C   C1713     1.0  0.53903  0.45361  0.61184  1.0000
  C   C1714     1.0  0.55761  0.32235  0.54384  1.0000
  C   C1715     1.0  0.55889  0.34526  0.56706  1.0000
  H   H2044     1.0  0.86879  0.33206  0.61634  1.0000
  H   H2045     1.0  0.71714  0.33190  0.56251  1.0000
  H   H2046     1.0  0.97062  0.36337  0.33460  1.0000
  C   C1716     1.0  0.56134  0.26169  0.65973  1.0000
  N   N114      1.0  0.54141  0.29219  0.55162  1.0000
  C   C1717     1.0  0.52940  0.28205  0.56675  1.0000
  C   C1718     1.0  0.53030  0.29544  0.53473  1.0000
  C   C1719     1.0  0.55896  0.27934  0.54692  1.0000
  C   C1720     1.0  0.54697  0.31048  0.55712  1.0000
  C   C1721     1.0  0.85901  0.47497  0.62354  1.0000
  H   H2047     1.0  0.99069  0.28802  0.43982  1.0000
  C   C1722     1.0  0.58067  0.44487  0.51331  1.0000
  C   C1723     1.0  0.98707  0.26870  0.53604  1.0000
  H   H2048     1.0  0.56965  0.43704  0.50887  1.0000
  H   H2049     1.0  0.51748  0.30585  0.53734  1.0000
  S   S459      1.0  0.93455  0.27138  0.41047  1.0000
  H   H2050     1.0  0.77456  0.49810  0.45402  1.0000
  C   C1724     1.0  0.96899  0.26687  0.52997  1.0000
  C   C1725     1.0  0.68321  0.45793  0.64007  1.0000
  H   H2051     1.0  0.94059  0.32239  0.63459  1.0000
  H   H2052     1.0  0.82455  0.47425  0.60813  1.0000
  C   C1726     1.0  0.59880  0.47241  0.51171  1.0000
  H   H2053     1.0  0.55534  0.26559  0.54223  1.0000
  H   H2054     1.0  0.53901  0.48005  0.59586  1.0000
  H   H2055     1.0  0.93836  0.28941  0.64818  1.0000
  H   H2056     1.0  0.91289  0.31482  0.57374  1.0000
  H   H2057     1.0  0.83096  0.44479  0.49198  1.0000
  H   H2058     1.0  0.57090  0.44358  0.47703  1.0000
  C   C1727     1.0  0.71673  0.46257  0.64157  1.0000
  H   H2059     1.0  0.72987  0.46807  0.63506  1.0000
  N   N115      1.0  0.74405  0.38986  0.56472  1.0000
  C   C1728     1.0  0.76048  0.38226  0.55178  1.0000
  C   C1729     1.0  0.73652  0.40863  0.55603  1.0000
  C   C1730     1.0  0.75162  0.39285  0.58286  1.0000
  C   C1731     1.0  0.72846  0.37707  0.56849  1.0000
  C   C1732     1.0  0.71091  0.38328  0.57883  1.0000
  C   C1733     1.0  0.73038  0.35810  0.56279  1.0000
  C   C1734     1.0  0.69609  0.37141  0.58298  1.0000
  C   C1735     1.0  0.71542  0.34634  0.56696  1.0000
  C   C1736     1.0  0.69831  0.35299  0.57700  1.0000
  H   H2060     1.0  0.75574  0.37925  0.53795  1.0000
  H   H2061     1.0  0.77162  0.39253  0.54880  1.0000
  H   H2062     1.0  0.76821  0.36913  0.55820  1.0000
  H   H2063     1.0  0.72903  0.40689  0.54329  1.0000
  H   H2064     1.0  0.74819  0.41805  0.55171  1.0000
  H   H2065     1.0  0.72632  0.41686  0.56599  1.0000
  H   H2066     1.0  0.76269  0.40315  0.58082  1.0000
  H   H2067     1.0  0.74023  0.39858  0.59334  1.0000
  H   H2068     1.0  0.75844  0.37930  0.58941  1.0000
  H   H2069     1.0  0.70856  0.39732  0.58403  1.0000
  H   H2070     1.0  0.74332  0.35195  0.55522  1.0000
  H   H2071     1.0  0.68287  0.37651  0.59104  1.0000
  H   H2072     1.0  0.82634  0.47517  0.43811  1.0000
  C   C1737     1.0  0.59037  0.43689  0.52873  1.0000
  C   C1738     1.0  0.82238  0.47485  0.45317  1.0000
  H   H2073     1.0  0.67720  0.41071  0.65789  1.0000
  H   H2074     1.0  0.95722  0.27140  0.45902  1.0000
  H   H2075     1.0  0.81088  0.47077  0.50776  1.0000
  H   H2076     1.0  0.61113  0.44059  0.54811  1.0000
  H   H2077     1.0  0.80013  0.49426  0.42513  1.0000
  C   C1739     1.0  0.99294  0.25901  0.55317  1.0000
  C   C1740     1.0  0.81060  0.48995  0.46179  1.0000
  H   H2078     1.0  0.56402  0.35820  0.57107  1.0000
  H   H2079     1.0  0.00200  0.26681  0.42907  1.0000
  H   H2080     1.0  0.57206  0.34804  0.53864  1.0000
  C   C1741     1.0  0.98937  0.27271  0.43824  1.0000
  H   H2081     1.0  0.56189  0.31826  0.52962  1.0000
  H   H2082     1.0  0.60267  0.48620  0.50593  1.0000
  H   H2083     1.0  0.64389  0.45603  0.65130  1.0000
  H   H2084     1.0  0.00153  0.25959  0.58966  1.0000
  C   C1742     1.0  0.50946  0.43865  0.61631  1.0000
  C   C1743     1.0  0.60826  0.46435  0.52731  1.0000
  C   C1744     1.0  0.85524  0.47362  0.58246  1.0000
  N   N116      1.0  0.98749  0.26168  0.45691  1.0000
  H   H2085     1.0  0.81792  0.48729  0.58679  1.0000
  H   H2086     1.0  0.54909  0.27196  0.66440  1.0000
  C   C1745     1.0  0.51286  0.50064  0.57938  1.0000
  C   C1746     1.0  0.92519  0.25684  0.59402  1.0000
  Fe  Fe227     1.0  0.00055  0.26449  0.63107  1.0000
  C   C1747     1.0  0.91935  0.25508  0.47349  1.0000
  H   H2087     1.0  0.88113  0.49312  0.65756  1.0000
  C   C1748     1.0  0.95194  0.25318  0.61411  1.0000
  S   S460      1.0  0.00224  0.25784  0.66249  1.0000
  H   H2088     1.0  0.96461  0.27453  0.51704  1.0000
  C   C1749     1.0  0.82557  0.49436  0.66375  1.0000
  Fe  Fe228     1.0  0.95897  0.25521  0.39327  1.0000
  S   S461      1.0  0.50496  0.48409  0.48698  1.0000
  C   C1750     1.0  0.95632  0.25541  0.54063  1.0000
  Fe  Fe229     1.0  0.50437  0.47751  0.51841  1.0000
  H   H2089     1.0  0.94225  0.25413  0.53597  1.0000
  H   H2090     1.0  0.00109  0.28291  0.57803  1.0000
  H   H2091     1.0  0.50384  0.47066  0.56178  1.0000
  H   H2092     1.0  0.80359  0.44843  0.81216  1.0000
  S   S462      1.0  0.98119  0.41748  0.79097  1.0000
  Fe  Fe230     1.0  0.85287  0.47591  0.76220  1.0000
  S   S463      1.0  0.83199  0.46095  0.78343  1.0000
  Fe  Fe231     1.0  0.89297  0.47096  0.74117  1.0000
  H   H2093     1.0  0.82725  0.48303  0.89223  1.0000
  S   S464      1.0  0.92067  0.45240  0.73356  1.0000
  C   C1751     1.0  0.71724  0.36094  0.96658  1.0000
  C   C1752     1.0  0.83501  0.49820  0.83231  1.0000
  S   S465      1.0  0.88214  0.48155  0.76958  1.0000
  S   S466      1.0  0.86412  0.46276  0.73489  1.0000
  N   N117      1.0  0.56706  0.33988  0.89538  1.0000
  C   C1753     1.0  0.77545  0.47134  0.77273  1.0000
  Fe  Fe232     1.0  0.53292  0.29621  0.86427  1.0000
  S   S467      1.0  0.56140  0.27841  0.86246  1.0000
  S   S468      1.0  0.52647  0.32604  0.84960  1.0000
  H   H2094     1.0  0.70411  0.36495  0.95904  1.0000
  H   H2095     1.0  0.86543  0.45869  0.82451  1.0000
  H   H2096     1.0  0.70047  0.43647  0.68062  1.0000
  C   C1754     1.0  0.50806  0.49628  0.75558  1.0000
  S   S469      1.0  0.52941  0.29351  0.89610  1.0000
  Fe  Fe233     1.0  0.75069  0.46897  0.89869  1.0000
  S   S470      1.0  0.71973  0.47794  0.90726  1.0000
  S   S471      1.0  0.77153  0.45114  0.91703  1.0000
  C   C1755     1.0  0.72367  0.48324  0.82499  1.0000
  H   H2097     1.0  0.55399  0.45906  0.74936  1.0000
  H   H2098     1.0  0.56306  0.39871  0.70998  1.0000
  Fe  Fe234     1.0  0.71459  0.47511  0.87673  1.0000
  S   S472      1.0  0.69196  0.45720  0.86794  1.0000
  H   H2099     1.0  0.58450  0.32422  0.91599  1.0000
  S   S473      1.0  0.74536  0.46366  0.86894  1.0000
  Fe  Fe235     1.0  0.58542  0.44497  0.76892  1.0000
  S   S474      1.0  0.55933  0.43273  0.78405  1.0000
  S   S475      1.0  0.59405  0.44867  0.73710  1.0000
  Fe  Fe236     1.0  0.59960  0.45623  0.80604  1.0000
  S   S476      1.0  0.57421  0.44491  0.82385  1.0000
  S   S477      1.0  0.62237  0.47408  0.81492  1.0000
  Fe  Fe237     1.0  0.57917  0.41973  0.80570  1.0000
  S   S478      1.0  0.58346  0.38806  0.81573  1.0000
  Fe  Fe238     1.0  0.55611  0.45892  0.80092  1.0000
  S   S479      1.0  0.52579  0.47417  0.80659  1.0000
  S   S480      1.0  0.60570  0.43035  0.78923  1.0000
  S   S481      1.0  0.58097  0.47181  0.78442  1.0000
  C   C1756     1.0  0.83771  0.46663  0.68263  1.0000
  C   C1757     1.0  0.67250  0.46240  0.85338  1.0000
  C   C1758     1.0  0.66153  0.44758  0.85011  1.0000
  C   C1759     1.0  0.64614  0.45084  0.83847  1.0000
  C   C1760     1.0  0.64155  0.46901  0.82985  1.0000
  C   C1761     1.0  0.65264  0.48379  0.83298  1.0000
  C   C1762     1.0  0.66798  0.48055  0.84468  1.0000
  H   H2100     1.0  0.66488  0.43348  0.85673  1.0000
  H   H2101     1.0  0.63780  0.43932  0.83623  1.0000
  Fe  Fe239     1.0  0.75037  0.49429  0.86169  1.0000
  C   C1763     1.0  0.84332  0.46106  0.84780  1.0000
  C   C1764     1.0  0.54245  0.34295  0.83950  1.0000
  C   C1765     1.0  0.56225  0.33811  0.83603  1.0000
  C   C1766     1.0  0.57449  0.35214  0.82893  1.0000
  C   C1767     1.0  0.56711  0.37110  0.82463  1.0000
  C   C1768     1.0  0.54724  0.37584  0.82745  1.0000
  C   C1769     1.0  0.53503  0.36186  0.83493  1.0000
  H   H2102     1.0  0.56816  0.32355  0.83894  1.0000
  H   H2103     1.0  0.58982  0.34827  0.82681  1.0000
  H   H2104     1.0  0.54130  0.39033  0.82422  1.0000
  H   H2105     1.0  0.51973  0.36576  0.83739  1.0000
  S   S482      1.0  0.51516  0.27145  0.86217  1.0000
  N   N118      1.0  0.71267  0.35353  0.98643  1.0000
  H   H2106     1.0  0.97443  0.36832  0.75698  1.0000
  C   C1770     1.0  0.75282  0.45336  0.79286  1.0000
  H   H2107     1.0  0.93341  0.39259  0.79870  1.0000
  C   C1771     1.0  0.61881  0.38730  0.71226  1.0000
  H   H2108     1.0  0.75756  0.48133  0.94037  1.0000
  C   C1772     1.0  0.81373  0.47383  0.79748  1.0000
  C   C1773     1.0  0.80163  0.46383  0.81077  1.0000
  C   C1774     1.0  0.78684  0.47362  0.82206  1.0000
  N   N119      1.0  0.73857  0.49424  0.96227  1.0000
  H   H2109     1.0  0.56506  0.34726  0.77368  1.0000
  S   S483      1.0  0.57912  0.39728  0.67130  1.0000
  N   N120      1.0  0.54166  0.48704  0.73995  1.0000
  C   C1775     1.0  0.57871  0.38540  0.86604  1.0000
  H   H2110     1.0  0.55732  0.47165  0.71739  1.0000
  H   H2111     1.0  0.77728  0.46578  0.83185  1.0000
  H   H2112     1.0  0.77088  0.50100  0.97851  1.0000
  C   C1776     1.0  0.74864  0.41707  0.97079  1.0000
  C   C1777     1.0  0.76814  0.41995  0.96774  1.0000
  C   C1778     1.0  0.77503  0.43047  0.95122  1.0000
  C   C1779     1.0  0.76245  0.43825  0.93777  1.0000
  C   C1780     1.0  0.74294  0.43551  0.94096  1.0000
  C   C1781     1.0  0.73610  0.42492  0.95735  1.0000
  H   H2113     1.0  0.77793  0.41400  0.97800  1.0000
  H   H2114     1.0  0.79015  0.43252  0.94887  1.0000
  H   H2115     1.0  0.73316  0.44122  0.93061  1.0000
  H   H2116     1.0  0.72099  0.42274  0.95959  1.0000
  C   C1782     1.0  0.96501  0.42858  0.77491  1.0000
  C   C1783     1.0  0.96942  0.42828  0.75535  1.0000
  C   C1784     1.0  0.95595  0.43641  0.74289  1.0000
  C   C1785     1.0  0.93792  0.44481  0.74983  1.0000
  C   C1786     1.0  0.93379  0.44588  0.76938  1.0000
  C   C1787     1.0  0.94735  0.43785  0.78187  1.0000
  H   H2117     1.0  0.98312  0.42163  0.74985  1.0000
  H   H2118     1.0  0.95936  0.43600  0.72777  1.0000
  H   H2119     1.0  0.91997  0.45238  0.77490  1.0000
  H   H2120     1.0  0.94390  0.43831  0.79699  1.0000
  C   C1788     1.0  0.58276  0.41222  0.68926  1.0000
  C   C1789     1.0  0.59548  0.42635  0.68602  1.0000
  C   C1790     1.0  0.59857  0.43748  0.70079  1.0000
  C   C1791     1.0  0.58916  0.43450  0.71901  1.0000
  C   C1792     1.0  0.57618  0.42061  0.72221  1.0000
  C   C1793     1.0  0.57296  0.40958  0.70737  1.0000
  H   H2121     1.0  0.60286  0.42869  0.67211  1.0000
  H   H2122     1.0  0.60837  0.44842  0.69813  1.0000
  H   H2123     1.0  0.56873  0.41831  0.73610  1.0000
  Fe  Fe240     1.0  0.55704  0.27444  0.89444  1.0000
  N   N121      1.0  0.81562  0.46566  0.87349  1.0000
  H   H2124     1.0  0.65674  0.41000  0.67491  1.0000
  H   H2125     1.0  0.67736  0.35036  0.97395  1.0000
  C   C1794     1.0  0.74156  0.46489  0.98552  1.0000
  C   C1795     1.0  0.82792  0.47272  0.85681  1.0000
  H   H2126     1.0  0.81166  0.50071  0.85353  1.0000
  H   H2127     1.0  0.53925  0.47144  0.76724  1.0000
  H   H2128     1.0  0.83238  0.43957  0.67313  1.0000
  H   H2129     1.0  0.52853  0.46108  0.74884  1.0000
  H   H2130     1.0  0.66922  0.44480  0.69485  1.0000
  H   H2131     1.0  0.59481  0.35967  0.87464  1.0000
  H   H2132     1.0  0.71765  0.44085  0.80845  1.0000
  H   H2133     1.0  0.59760  0.33832  0.89876  1.0000
  H   H2134     1.0  0.91370  0.40801  0.77370  1.0000
  C   C1796     1.0  0.57336  0.35181  0.76017  1.0000
  C   C1797     1.0  0.59842  0.36027  0.77755  1.0000
  H   H2135     1.0  0.78901  0.47178  0.76401  1.0000
  C   C1798     1.0  0.72106  0.48655  0.95697  1.0000
  H   H2136     1.0  0.70694  0.49201  0.79274  1.0000
  H   H2137     1.0  0.50758  0.48299  0.76415  1.0000
  H   H2138     1.0  0.68735  0.37384  0.98904  1.0000
  H   H2139     1.0  0.78921  0.47681  0.86174  1.0000
  H   H2140     1.0  0.65493  0.46277  0.68179  1.0000
  H   H2141     1.0  0.53055  0.39572  0.87426  1.0000
  S   S484      1.0  0.84565  0.50184  0.69351  1.0000
  C   C1799     1.0  0.60692  0.37288  0.71133  1.0000
  N   N122      1.0  0.72286  0.47030  0.80973  1.0000
  C   C1800     1.0  0.96102  0.37697  0.76002  1.0000
  C   C1801     1.0  0.74819  0.48232  0.97735  1.0000
  H   H2142     1.0  0.64509  0.44108  0.69116  1.0000
  C   C1802     1.0  0.66986  0.41747  0.67058  1.0000
  H   H2143     1.0  0.53178  0.47592  0.71578  1.0000
  H   H2144     1.0  0.96364  0.37294  0.79006  1.0000
  H   H2145     1.0  0.95028  0.39174  0.69657  1.0000
  H   H2146     1.0  0.53325  0.36455  0.89108  1.0000
  N   N123      1.0  0.58533  0.36738  0.76281  1.0000
  C   C1803     1.0  0.76986  0.45400  0.78093  1.0000
  H   H2147     1.0  0.97628  0.40543  0.72264  1.0000
  H   H2148     1.0  0.67611  0.49215  0.84714  1.0000
  H   H2149     1.0  0.79785  0.45294  0.85614  1.0000
  C   C1804     1.0  0.65834  0.44709  0.68432  1.0000
  H   H2150     1.0  0.67380  0.29111  0.98910  1.0000
  H   H2151     1.0  0.99233  0.32574  0.70987  1.0000
  H   H2152     1.0  0.74159  0.34001  0.98814  1.0000
  C   C1805     1.0  0.59602  0.36619  0.72757  1.0000
  C   C1806     1.0  0.59679  0.37388  0.74533  1.0000
  H   H2153     1.0  0.54572  0.34556  0.91868  1.0000
  H   H2154     1.0  0.58687  0.35526  0.72568  1.0000
  C   C1807     1.0  0.54983  0.33493  0.90794  1.0000
  C   C1808     1.0  0.92673  0.39899  0.76986  1.0000
  H   H2155     1.0  0.55811  0.32519  0.87304  1.0000
  S   S485      1.0  0.57621  0.28325  0.91585  1.0000
  H   H2156     1.0  0.73864  0.50114  0.79066  1.0000
  H   H2157     1.0  0.56292  0.37915  0.78279  1.0000
  C   C1809     1.0  0.68415  0.33708  0.97979  1.0000
  C   C1810     1.0  0.81082  0.49371  0.79546  1.0000
  S   S486      1.0  0.73901  0.40383  0.99101  1.0000
  H   H2158     1.0  0.58210  0.34972  0.91713  1.0000
  C   C1811     1.0  0.70257  0.33610  0.98671  1.0000
  H   H2159     1.0  0.58321  0.32885  0.87050  1.0000
  C   C1812     1.0  0.76493  0.48800  0.98418  1.0000
  Fe  Fe241     1.0  0.51443  0.26742  0.89403  1.0000
  H   H2160     1.0  0.92987  0.38881  0.71329  1.0000
  C   C1813     1.0  0.52424  0.50058  0.74287  1.0000
  C   C1814     1.0  0.79653  0.46313  0.86743  1.0000
  H   H2161     1.0  0.96900  0.35402  0.73045  1.0000
  C   C1815     1.0  0.54072  0.46890  0.75189  1.0000
  H   H2162     1.0  0.61015  0.39534  0.75865  1.0000
  C   C1816     1.0  0.54453  0.48221  0.71990  1.0000
  H   H2163     1.0  0.62864  0.40680  0.73003  1.0000
  C   C1817     1.0  0.60629  0.26828  0.96173  1.0000
  H   H2164     1.0  0.70585  0.45174  0.82861  1.0000
  C   C1818     1.0  0.82340  0.44710  0.88242  1.0000
  H   H2165     1.0  0.84528  0.46030  0.69447  1.0000
  H   H2166     1.0  0.73114  0.44549  0.82791  1.0000
  C   C1819     1.0  0.81309  0.47957  0.88834  1.0000
  H   H2167     1.0  0.58109  0.25608  0.99174  1.0000
  H   H2168     1.0  0.64918  0.49792  0.82646  1.0000
  H   H2169     1.0  0.55237  0.32069  0.91572  1.0000
  C   C1820     1.0  0.54461  0.38792  0.87504  1.0000
  H   H2170     1.0  0.94317  0.40941  0.71317  1.0000
  C   C1821     1.0  0.78439  0.49353  0.82051  1.0000
  C   C1822     1.0  0.83036  0.45489  0.67047  1.0000
  H   H2171     1.0  0.69233  0.47706  0.80816  1.0000
  H   H2172     1.0  0.83815  0.44786  0.88664  1.0000
  H   H2173     1.0  0.71145  0.48205  0.83612  1.0000
  C   C1823     1.0  0.58069  0.36736  0.87562  1.0000
  H   H2174     1.0  0.55680  0.50043  0.75929  1.0000
  H   H2175     1.0  0.56258  0.35645  0.74983  1.0000
  C   C1824     1.0  0.76399  0.48814  0.77631  1.0000
  H   H2176     1.0  0.57435  0.31109  0.88739  1.0000
  C   C1825     1.0  0.58940  0.26940  0.93301  1.0000
  H   H2177     1.0  0.53729  0.33384  0.89975  1.0000
  H   H2178     1.0  0.60621  0.37175  0.78221  1.0000
  C   C1826     1.0  0.54642  0.36990  0.88474  1.0000
  H   H2179     1.0  0.84712  0.44648  0.85275  1.0000
  C   C1827     1.0  0.58351  0.33809  0.90729  1.0000
  H   H2180     1.0  0.73814  0.36370  0.99526  1.0000
  N   N124      1.0  0.66523  0.43826  0.66638  1.0000
  C   C1828     1.0  0.56073  0.39568  0.86578  1.0000
  H   H2181     1.0  0.58239  0.33892  0.75534  1.0000
  C   C1829     1.0  0.57218  0.38356  0.76987  1.0000
  H   H2182     1.0  0.56262  0.38983  0.75893  1.0000
  H   H2183     1.0  0.61086  0.27550  0.97311  1.0000
  H   H2184     1.0  0.60561  0.36736  0.69775  1.0000
  C   C1830     1.0  0.59556  0.27857  0.94785  1.0000
  C   C1831     1.0  0.61989  0.39513  0.72943  1.0000
  H   H2185     1.0  0.62668  0.39281  0.69948  1.0000
  H   H2186     1.0  0.72920  0.45912  0.98108  1.0000
  H   H2187     1.0  0.60933  0.34887  0.77239  1.0000
  C   C1832     1.0  0.51629  0.49840  0.80240  1.0000
  H   H2188     1.0  0.67945  0.41418  0.68218  1.0000
  H   H2189     1.0  0.80484  0.47399  0.90146  1.0000
  H   H2190     1.0  0.92378  0.40459  0.74067  1.0000
  H   H2191     1.0  0.54699  0.49486  0.70999  1.0000
  C   C1833     1.0  0.70022  0.30185  0.99430  1.0000
  H   H2192     1.0  0.58012  0.39514  0.77404  1.0000
  C   C1834     1.0  0.60908  0.38855  0.74575  1.0000
  H   H2193     1.0  0.59040  0.35438  0.79062  1.0000
  C   C1835     1.0  0.56465  0.35918  0.88561  1.0000
  C   C1836     1.0  0.83554  0.48646  0.67925  1.0000
  C   C1837     1.0  0.57092  0.32569  0.88095  1.0000
  H   H2194     1.0  0.99049  0.45792  0.78599  1.0000
  H   H2195     1.0  0.54294  0.26265  0.94376  1.0000
  H   H2196     1.0  0.94431  0.35691  0.72542  1.0000
  C   C1838     1.0  0.85410  0.46792  0.83154  1.0000
  H   H2197     1.0  0.55922  0.40941  0.85784  1.0000
  H   H2198     1.0  0.59198  0.29374  0.94868  1.0000
  H   H2199     1.0  0.74958  0.43947  0.79896  1.0000
  H   H2200     1.0  0.70518  0.46799  0.78713  1.0000
  S   S487      1.0  0.88916  0.49987  0.72545  1.0000
  H   H2201     1.0  0.98825  0.29676  0.98725  1.0000
  C   C1839     1.0  0.74687  0.48768  0.78812  1.0000
  H   H2202     1.0  0.96334  0.36007  0.70679  1.0000
  H   H2203     1.0  0.98724  0.38263  0.73017  1.0000
  H   H2204     1.0  0.81424  0.44268  0.89544  1.0000
  C   C1840     1.0  0.73100  0.35034  0.99555  1.0000
  C   C1841     1.0  0.97660  0.38997  0.72085  1.0000
  H   H2205     1.0  0.73727  0.47994  0.83191  1.0000
  C   C1842     1.0  0.95846  0.36270  0.72180  1.0000
  C   C1843     1.0  0.74082  0.47029  0.79690  1.0000
  C   C1844     1.0  0.93279  0.39688  0.75076  1.0000
  H   H2206     1.0  0.71005  0.48536  0.96925  1.0000
  C   C1845     1.0  0.95486  0.37931  0.77905  1.0000
  C   C1846     1.0  0.75210  0.49571  0.94497  1.0000
  C   C1847     1.0  0.94452  0.39376  0.71149  1.0000
  C   C1848     1.0  0.93779  0.39034  0.78395  1.0000
  C   C1849     1.0  0.95028  0.38586  0.74524  1.0000
  N   N125      1.0  0.95721  0.38324  0.72518  1.0000
  H   H2207     1.0  0.98260  0.38742  0.70610  1.0000
  H   H2208     1.0  0.57205  0.48573  0.74340  1.0000
  H   H2209     1.0  0.77913  0.44105  0.77838  1.0000
  H   H2210     1.0  0.72456  0.47233  0.95113  1.0000
  H   H2211     1.0  0.82369  0.43536  0.87284  1.0000
  Fe  Fe242     1.0  0.85944  0.49237  0.72114  1.0000
  H   H2212     1.0  0.78682  0.45745  0.87935  1.0000
  C   C1850     1.0  0.71937  0.45121  0.81898  1.0000
  H   H2213     1.0  0.72507  0.37399  0.96589  1.0000
  H   H2214     1.0  0.59106  0.39119  0.85811  1.0000
  C   C1851     1.0  0.55878  0.49586  0.74455  1.0000
  C   C1852     1.0  0.67397  0.32100  0.98061  1.0000
  C   C1853     1.0  0.70614  0.47715  0.79895  1.0000
  C   C1854     1.0  0.71044  0.31788  0.99383  1.0000
  H   H2215     1.0  0.72647  0.35011  0.95841  1.0000
  H   H2216     1.0  0.65967  0.32214  0.97581  1.0000
  C   C1855     1.0  0.68194  0.30345  0.98797  1.0000
  H   H2217     1.0  0.71408  0.49597  0.94573  1.0000
  H   H2218     1.0  0.99552  0.47722  0.79873  1.0000
  H   H2219     1.0  0.00060  0.47780  0.77316  1.0000
  H   H2220     1.0  0.72307  0.49850  0.81976  1.0000
  S   S488      1.0  0.75857  0.49872  0.89065  1.0000
  C   C1856     1.0  0.85001  0.48646  0.82387  1.0000
  H   H2221     1.0  0.80475  0.49312  0.88387  1.0000
  C   C1857     1.0  0.70016  0.36842  0.99656  1.0000
  C   C1858     1.0  0.82388  0.49139  0.84832  1.0000
  H   H2222     1.0  0.81997  0.50155  0.78523  1.0000
  H   H2223     1.0  0.57259  0.26158  0.66976  1.0000
  C   C1859     1.0  0.69982  0.44448  0.66708  1.0000
  C   C1860     1.0  0.00103  0.46861  0.78658  1.0000
  H   H2224     1.0  0.85813  0.49155  0.81102  1.0000
  H   H2225     1.0  0.50846  0.26019  0.95376  1.0000
  H   H2226     1.0  0.76868  0.50164  0.77029  1.0000
  H   H2227     1.0  0.52543  0.25701  0.68228  1.0000
  C   C1861     1.0  0.51923  0.25496  0.96337  1.0000
  C   C1862     1.0  0.53863  0.25633  0.95776  1.0000
  Fe  Fe243     1.0  0.54350  0.25340  0.86213  1.0000
  H   H2228     1.0  0.70788  0.38111  0.99812  1.0000
  C   C1863     1.0  0.77443  0.47692  0.99826  1.0000
  C   C1864     1.0  0.99652  0.29854  0.99894  1.0000
  H   H2229     1.0  0.72971  0.44967  0.66615  1.0000
  Fe  Fe244     1.0  0.54130  0.74608  0.12197  1.0000
  S   S489      1.0  0.73050  0.53046  0.12217  1.0000
  Fe  Fe245     1.0  0.75562  0.52521  0.16921  1.0000
  S   S490      1.0  0.73614  0.55141  0.16097  1.0000
  C   C1865     1.0  0.77954  0.56550  0.03297  1.0000
  Fe  Fe246     1.0  0.71672  0.53083  0.15224  1.0000
  S   S491      1.0  0.68393  0.53625  0.15391  1.0000
  Fe  Fe247     1.0  0.75105  0.54910  0.13156  1.0000
  S   S492      1.0  0.76317  0.57343  0.11290  1.0000
  C   C1866     1.0  0.71298  0.66099  0.03390  1.0000
  S   S493      1.0  0.77192  0.52457  0.14056  1.0000
  Fe  Fe248     1.0  0.52034  0.72940  0.15805  1.0000
  S   S494      1.0  0.82516  0.55755  0.31949  1.0000
  H   H2230     1.0  0.51216  0.67082  0.20495  1.0000
  H   H2231     1.0  0.62058  0.67949  0.32212  1.0000
  H   H2232     1.0  0.66296  0.59584  0.13048  1.0000
  C   C1867     1.0  0.50921  0.62539  0.17181  1.0000
  Fe  Fe249     1.0  0.56415  0.58516  0.25504  1.0000
  S   S495      1.0  0.58955  0.59606  0.23743  1.0000
  S   S496      1.0  0.55548  0.59224  0.28559  1.0000
  Fe  Fe250     1.0  0.55081  0.56553  0.22212  1.0000
  S   S497      1.0  0.57564  0.57514  0.20221  1.0000
  S   S498      1.0  0.52844  0.55067  0.20847  1.0000
  Fe  Fe251     1.0  0.59389  0.56692  0.22629  1.0000
  S   S499      1.0  0.62367  0.55067  0.22553  1.0000
  Fe  Fe252     1.0  0.56936  0.60364  0.21462  1.0000
  S   S500      1.0  0.57293  0.62958  0.19374  1.0000
  S   S501      1.0  0.56962  0.55527  0.24552  1.0000
  S   S502      1.0  0.54342  0.59481  0.23292  1.0000
  Fe  Fe253     1.0  0.88010  0.51797  0.28082  1.0000
  S   S503      1.0  0.88814  0.53747  0.25532  1.0000
  Fe  Fe254     1.0  0.84953  0.54702  0.29814  1.0000
  S   S504      1.0  0.85538  0.56845  0.27379  1.0000
  C   C1868     1.0  0.65714  0.59268  0.18754  1.0000
  Fe  Fe255     1.0  0.85592  0.54449  0.25481  1.0000
  S   S505      1.0  0.84149  0.55309  0.22748  1.0000
  Fe  Fe256     1.0  0.88672  0.55992  0.27624  1.0000
  S   S506      1.0  0.90529  0.58384  0.27922  1.0000
  S   S507      1.0  0.84798  0.52336  0.27899  1.0000
  S   S508      1.0  0.88083  0.54005  0.30187  1.0000
  H   H2233     1.0  0.97402  0.52775  0.26005  1.0000
  S   S509      1.0  0.98351  0.60846  0.23589  1.0000
  H   H2234     1.0  0.69686  0.59328  0.17772  1.0000
  S   S510      1.0  0.73411  0.60600  0.03342  1.0000
  C   C1869     1.0  0.51907  0.51790  0.23095  1.0000
  H   H2235     1.0  0.99620  0.70741  0.28516  1.0000
  C   C1870     1.0  0.67316  0.58734  0.13959  1.0000
  N   N126      1.0  0.78729  0.54946  0.27939  1.0000
  C   C1871     1.0  0.80570  0.53942  0.05090  1.0000
  H   H2236     1.0  0.66834  0.58331  0.19374  1.0000
  H   H2237     1.0  0.80388  0.53247  0.29986  1.0000
  H   H2238     1.0  0.75256  0.51573  0.24206  1.0000
  C   C1872     1.0  0.92801  0.58899  0.26796  1.0000
  C   C1873     1.0  0.93667  0.57967  0.25224  1.0000
  C   C1874     1.0  0.95394  0.58550  0.24284  1.0000
  C   C1875     1.0  0.96287  0.60042  0.24924  1.0000
  C   C1876     1.0  0.95458  0.60921  0.26536  1.0000
  C   C1877     1.0  0.93715  0.60362  0.27456  1.0000
  H   H2239     1.0  0.92985  0.56838  0.24701  1.0000
  H   H2240     1.0  0.96023  0.57871  0.23030  1.0000
  H   H2241     1.0  0.96127  0.62072  0.27041  1.0000
  H   H2242     1.0  0.93058  0.61088  0.28673  1.0000
  H   H2243     1.0  0.69812  0.61424  0.13980  1.0000
  C   C1878     1.0  0.51559  0.53018  0.21494  1.0000
  H   H2244     1.0  0.77279  0.51689  0.26759  1.0000
  H   H2245     1.0  0.53061  0.66221  0.14641  1.0000
  H   H2246     1.0  0.51064  0.59167  0.20895  1.0000
  H   H2247     1.0  0.93013  0.52894  0.26540  1.0000
  C   C1879     1.0  0.81223  0.55275  0.03677  1.0000
  H   H2248     1.0  0.58556  0.72848  0.06301  1.0000
  C   C1880     1.0  0.53144  0.68361  0.18329  1.0000
  C   C1881     1.0  0.52618  0.66926  0.19715  1.0000
  C   C1882     1.0  0.53885  0.65284  0.20087  1.0000
  C   C1883     1.0  0.55685  0.65049  0.19058  1.0000
  C   C1884     1.0  0.56217  0.66490  0.17685  1.0000
  C   C1885     1.0  0.54961  0.68142  0.17328  1.0000
  H   H2249     1.0  0.69710  0.62795  0.04326  1.0000
  H   H2250     1.0  0.53464  0.64200  0.21161  1.0000
  H   H2251     1.0  0.58423  0.68885  0.27069  1.0000
  C   C1886     1.0  0.59318  0.67478  0.29693  1.0000
  C   C1887     1.0  0.79029  0.52840  0.20469  1.0000
  C   C1888     1.0  0.79845  0.51970  0.22095  1.0000
  C   C1889     1.0  0.81412  0.52695  0.22805  1.0000
  C   C1890     1.0  0.82192  0.54306  0.21893  1.0000
  C   C1891     1.0  0.81392  0.55166  0.20256  1.0000
  C   C1892     1.0  0.79822  0.54439  0.19546  1.0000
  H   H2252     1.0  0.80377  0.52489  0.08801  1.0000
  C   C1893     1.0  0.52368  0.63580  0.16158  1.0000
  H   H2253     1.0  0.81983  0.56406  0.19531  1.0000
  H   H2254     1.0  0.79216  0.55126  0.18296  1.0000
  C   C1894     1.0  0.75515  0.58182  0.09059  1.0000
  C   C1895     1.0  0.76678  0.59304  0.07799  1.0000
  C   C1896     1.0  0.76069  0.60036  0.06032  1.0000
  C   C1897     1.0  0.74277  0.59668  0.05519  1.0000
  C   C1898     1.0  0.73111  0.58548  0.06781  1.0000
  C   C1899     1.0  0.73731  0.57798  0.08538  1.0000
  H   H2255     1.0  0.78058  0.59612  0.08193  1.0000
  H   H2256     1.0  0.76979  0.60898  0.05076  1.0000
  H   H2257     1.0  0.71722  0.58259  0.06396  1.0000
  H   H2258     1.0  0.72816  0.56950  0.09501  1.0000
  C   C1900     1.0  0.66757  0.54069  0.17404  1.0000
  C   C1901     1.0  0.64818  0.54656  0.17141  1.0000
  C   C1902     1.0  0.63465  0.55019  0.18697  1.0000
  C   C1903     1.0  0.64035  0.54769  0.20537  1.0000
  C   C1904     1.0  0.65975  0.54193  0.20800  1.0000
  C   C1905     1.0  0.67336  0.53859  0.19241  1.0000
  H   H2259     1.0  0.64356  0.54817  0.15726  1.0000
  H   H2260     1.0  0.61979  0.55462  0.18474  1.0000
  H   H2261     1.0  0.66426  0.53989  0.22221  1.0000
  H   H2262     1.0  0.68822  0.53405  0.19464  1.0000
  C   C1906     1.0  0.77284  0.55235  0.04720  1.0000
  H   H2263     1.0  0.59241  0.53659  0.20625  1.0000
  H   H2264     1.0  0.78174  0.52356  0.29637  1.0000
  C   C1907     1.0  0.59136  0.58772  0.29981  1.0000
  C   C1908     1.0  0.57150  0.59196  0.30351  1.0000
  C   C1909     1.0  0.56413  0.59668  0.32184  1.0000
  C   C1910     1.0  0.64303  0.61224  0.16195  1.0000
  H   H2265     1.0  0.59725  0.58407  0.28579  1.0000
  C   C1911     1.0  0.62018  0.64178  0.32624  1.0000
  C   C1912     1.0  0.65346  0.70520  0.02454  1.0000
  S   S511      1.0  0.54847  0.74236  0.15239  1.0000
  C   C1913     1.0  0.51801  0.73251  0.06677  1.0000
  C   C1914     1.0  0.66166  0.69945  0.04137  1.0000
  H   H2266     1.0  0.53680  0.58460  0.18636  1.0000
  C   C1915     1.0  0.80465  0.55844  0.27102  1.0000
  C   C1916     1.0  0.75031  0.54582  0.23494  1.0000
  C   C1917     1.0  0.79916  0.56577  0.02783  1.0000
  H   H2267     1.0  0.55385  0.69231  0.16258  1.0000
  H   H2268     1.0  0.72420  0.64862  0.03440  1.0000
  C   C1918     1.0  0.77723  0.56147  0.29417  1.0000
  C   C1919     1.0  0.78579  0.53883  0.05660  1.0000
  H   H2269     1.0  0.53992  0.59803  0.16421  1.0000
  C   C1920     1.0  0.69950  0.64624  0.00981  1.0000
  H   H2270     1.0  0.53866  0.63038  0.16011  1.0000
  N   N127      1.0  0.60303  0.65592  0.32718  1.0000
  H   H2271     1.0  0.75748  0.55336  0.05074  1.0000
  H   H2272     1.0  0.81638  0.52967  0.05748  1.0000
  H   H2273     1.0  0.75248  0.53985  0.08142  1.0000
  C   C1921     1.0  0.59631  0.59318  0.33253  1.0000
  H   H2274     1.0  0.78290  0.51696  0.10111  1.0000
  C   C1922     1.0  0.97887  0.71434  0.02149  1.0000
  H   H2275     1.0  0.59661  0.74885  0.03476  1.0000
  H   H2276     1.0  0.82022  0.51998  0.24048  1.0000
  H   H2277     1.0  0.67305  0.63705  0.03838  1.0000
  N   N128      1.0  0.69474  0.65555  0.02788  1.0000
  H   H2278     1.0  0.68933  0.57168  0.17004  1.0000
  H   H2279     1.0  0.75117  0.57605  0.23031  1.0000
  C   C1923     1.0  0.50295  0.59226  0.17223  1.0000
  C   C1924     1.0  0.94437  0.50562  0.29352  1.0000
  H   H2280     1.0  0.71122  0.66632  0.04828  1.0000
  C   C1925     1.0  0.99689  0.71496  0.02870  1.0000
  H   H2281     1.0  0.66672  0.57387  0.14451  1.0000
  H   H2282     1.0  0.61900  0.58506  0.31120  1.0000
  C   C1926     1.0  0.99590  0.71420  0.27050  1.0000
  H   H2283     1.0  0.80427  0.57623  0.01702  1.0000
  H   H2284     1.0  0.95681  0.53896  0.27710  1.0000
  H   H2285     1.0  0.82750  0.55312  0.03282  1.0000
  C   C1927     1.0  0.76823  0.53028  0.26024  1.0000
  C   C1928     1.0  0.64001  0.59610  0.19909  1.0000
  C   C1929     1.0  0.62600  0.61557  0.17365  1.0000
  C   C1930     1.0  0.62453  0.60755  0.19218  1.0000
  H   H2286     1.0  0.63859  0.58954  0.21344  1.0000
  H   H2287     1.0  0.61374  0.62435  0.16841  1.0000
  H   H2288     1.0  0.61128  0.61013  0.20115  1.0000
  H   H2289     1.0  0.78640  0.56245  0.30596  1.0000
  C   C1931     1.0  0.75575  0.56335  0.23889  1.0000
  C   C1932     1.0  0.68701  0.64117  0.04216  1.0000
  C   C1933     1.0  0.75810  0.52585  0.07597  1.0000
  H   H2290     1.0  0.53274  0.73024  0.07172  1.0000
  C   C1934     1.0  0.59265  0.50713  0.23285  1.0000
  H   H2291     1.0  0.79256  0.50724  0.22811  1.0000
  C   C1935     1.0  0.59437  0.65763  0.30886  1.0000
  C   C1936     1.0  0.67494  0.68331  0.04239  1.0000
  C   C1937     1.0  0.50689  0.60584  0.20147  1.0000
  H   H2292     1.0  0.50836  0.72610  0.07838  1.0000
  H   H2293     1.0  0.76940  0.57583  0.02615  1.0000
  H   H2294     1.0  0.68463  0.64644  0.05657  1.0000
  H   H2295     1.0  0.58744  0.62817  0.31055  1.0000
  H   H2296     1.0  0.57794  0.50975  0.24018  1.0000
  C   C1938     1.0  0.60920  0.67408  0.33255  1.0000
  H   H2297     1.0  0.56876  0.52889  0.21262  1.0000
  C   C1939     1.0  0.58503  0.67568  0.27962  1.0000
  H   H2298     1.0  0.51371  0.61668  0.20838  1.0000
  H   H2299     1.0  0.70941  0.71816  0.00809  1.0000
  N   N129      1.0  0.59216  0.50648  0.21206  1.0000
  H   H2300     1.0  0.75373  0.51481  0.08719  1.0000
  H   H2301     1.0  0.99280  0.69778  0.32513  1.0000
  H   H2302     1.0  0.94456  0.51774  0.24640  1.0000
  H   H2303     1.0  0.00066  0.74438  0.24589  1.0000
  N   N130      1.0  0.95381  0.50921  0.27417  1.0000
  C   C1940     1.0  0.97741  0.71275  0.00206  1.0000
  H   H2304     1.0  0.63129  0.64623  0.31498  1.0000
  C   C1941     1.0  0.67186  0.67878  0.00945  1.0000
  H   H2305     1.0  0.51848  0.72437  0.05397  1.0000
  H   H2306     1.0  0.50714  0.59222  0.15673  1.0000
  S   S512      1.0  0.56165  0.73643  0.09695  1.0000
  C   C1942     1.0  0.69305  0.58632  0.16530  1.0000
  H   H2307     1.0  0.58045  0.52541  0.18963  1.0000
  H   H2308     1.0  0.77135  0.57838  0.25596  1.0000
  C   C1943     1.0  0.68419  0.61620  0.14873  1.0000
  H   H2309     1.0  0.57607  0.66328  0.16884  1.0000
  C   C1944     1.0  0.57786  0.65969  0.27372  1.0000
  N   N131      1.0  0.88366  0.60108  0.22404  1.0000
  C   C1945     1.0  0.87036  0.60717  0.24047  1.0000
  C   C1946     1.0  0.87303  0.60513  0.20687  1.0000
  C   C1947     1.0  0.88846  0.58023  0.22691  1.0000
  C   C1948     1.0  0.90170  0.61056  0.22170  1.0000
  C   C1949     1.0  0.90683  0.62235  0.23533  1.0000
  C   C1950     1.0  0.91523  0.60737  0.20581  1.0000
  C   C1951     1.0  0.92424  0.63063  0.23289  1.0000
  C   C1952     1.0  0.93264  0.61565  0.20359  1.0000
  C   C1953     1.0  0.93712  0.62727  0.21710  1.0000
  H   H2310     1.0  0.86644  0.62284  0.23940  1.0000
  H   H2311     1.0  0.85670  0.60022  0.24148  1.0000
  H   H2312     1.0  0.87674  0.60306  0.25414  1.0000
  H   H2313     1.0  0.87009  0.62075  0.20358  1.0000
  H   H2314     1.0  0.85898  0.59880  0.20867  1.0000
  H   H2315     1.0  0.88095  0.59895  0.19416  1.0000
  H   H2316     1.0  0.89650  0.57669  0.23967  1.0000
  H   H2317     1.0  0.87529  0.57250  0.22893  1.0000
  H   H2318     1.0  0.89748  0.57426  0.21467  1.0000
  H   H2319     1.0  0.89796  0.62497  0.24830  1.0000
  H   H2320     1.0  0.91266  0.59809  0.19517  1.0000
  H   H2321     1.0  0.92814  0.63915  0.24369  1.0000
  H   H2322     1.0  0.94294  0.61276  0.19154  1.0000
  H   H2323     1.0  0.95090  0.63319  0.21565  1.0000
  C   C1954     1.0  0.75639  0.52938  0.24568  1.0000
  C   C1955     1.0  0.58153  0.74368  0.06242  1.0000
  S   S513      1.0  0.51419  0.73122  0.12737  1.0000
  C   C1956     1.0  0.96577  0.52538  0.27409  1.0000
  S   S514      1.0  0.99969  0.66031  0.24919  1.0000
  H   H2324     1.0  0.78377  0.54186  0.09406  1.0000
  H   H2325     1.0  0.75062  0.52354  0.06338  1.0000
  H   H2326     1.0  0.74181  0.54482  0.22317  1.0000
  H   H2327     1.0  0.68651  0.58335  0.13038  1.0000
  H   H2328     1.0  0.96594  0.71492  0.03112  1.0000
  H   H2329     1.0  0.68662  0.64109  0.00468  1.0000
  H   H2330     1.0  0.57321  0.63023  0.28052  1.0000
  H   H2331     1.0  0.81493  0.55936  0.28177  1.0000
  H   H2332     1.0  0.65782  0.70773  0.05360  1.0000
  H   H2333     1.0  0.76375  0.55552  0.30041  1.0000
  H   H2334     1.0  0.68089  0.67945  0.05576  1.0000
  N   N132      1.0  0.67714  0.59765  0.15591  1.0000
  C   C1957     1.0  0.77432  0.54792  0.26446  1.0000
  S   S515      1.0  0.75872  0.64929  0.00292  1.0000
  C   C1958     1.0  0.68058  0.67254  0.02641  1.0000
  C   C1959     1.0  0.78785  0.52720  0.08939  1.0000
  H   H2335     1.0  0.70636  0.58443  0.15548  1.0000
  Fe  Fe257     1.0  0.75026  0.50576  0.13284  1.0000
  H   H2336     1.0  0.99766  0.71599  0.04368  1.0000
  N   N133      1.0  0.77931  0.52457  0.07162  1.0000
  H   H2337     1.0  0.64354  0.71800  0.02360  1.0000
  C   C1960     1.0  0.65924  0.60085  0.16859  1.0000
  H   H2338     1.0  0.71885  0.67235  0.02394  1.0000
  H   H2339     1.0  0.54272  0.60854  0.18604  1.0000
  H   H2340     1.0  0.52970  0.52086  0.24006  1.0000
  C   C1961     1.0  0.79395  0.53080  0.28890  1.0000
  C   C1962     1.0  0.76745  0.56447  0.25351  1.0000
  H   H2341     1.0  0.64336  0.61859  0.14761  1.0000
  C   C1963     1.0  0.57007  0.75169  0.07764  1.0000
  H   H2342     1.0  0.80135  0.57321  0.26493  1.0000
  H   H2343     1.0  0.92773  0.50482  0.26204  1.0000
  C   C1964     1.0  0.58696  0.64167  0.30233  1.0000
  C   C1965     1.0  0.93849  0.51538  0.26134  1.0000
  C   C1966     1.0  0.57882  0.64271  0.28508  1.0000
  C   C1967     1.0  0.58303  0.52512  0.20481  1.0000
  H   H2344     1.0  0.77336  0.57633  0.28854  1.0000
  H   H2345     1.0  0.67405  0.62495  0.13974  1.0000
  C   C1968     1.0  0.65841  0.69479  0.00870  1.0000
  Fe  Fe258     1.0  0.75203  0.61868  0.00797  1.0000
  H   H2346     1.0  0.68645  0.62475  0.16067  1.0000
  H   H2347     1.0  0.57155  0.66040  0.26031  1.0000
  H   H2348     1.0  0.81234  0.55010  0.25950  1.0000
  H   H2349     1.0  0.99269  0.70309  0.26133  1.0000
  C   C1969     1.0  0.53411  0.59908  0.17924  1.0000
  C   C1970     1.0  0.60366  0.58829  0.31426  1.0000
  N   N134      1.0  0.51336  0.60602  0.18096  1.0000
  C   C1971     1.0  0.78563  0.50508  0.06575  1.0000
  H   H2350     1.0  0.59841  0.68768  0.30062  1.0000
  H   H2351     1.0  0.98348  0.72525  0.27060  1.0000
  H   H2352     1.0  0.71010  0.63353  0.01146  1.0000
  S   S516      1.0  0.51448  0.70339  0.17823  1.0000
  H   H2353     1.0  0.50613  0.57744  0.17858  1.0000
  S   S517      1.0  0.76971  0.51927  0.19717  1.0000
  C   C1972     1.0  0.51926  0.65424  0.15355  1.0000
  H   H2354     1.0  0.54879  0.59996  0.32485  1.0000
  H   H2355     1.0  0.87985  0.59429  0.32883  1.0000
  H   H2356     1.0  0.93398  0.51785  0.29784  1.0000
  H   H2357     1.0  0.61662  0.62748  0.32306  1.0000
  H   H2358     1.0  0.97616  0.52320  0.28505  1.0000
  H   H2359     1.0  0.60075  0.51897  0.23629  1.0000
  S   S518      1.0  0.73505  0.50452  0.16228  1.0000
  H   H2360     1.0  0.80209  0.52120  0.27861  1.0000
  H   H2361     1.0  0.95488  0.50289  0.30436  1.0000
  Fe  Fe259     1.0  0.60631  0.60617  0.37909  1.0000
  S   S519      1.0  0.58048  0.62559  0.38882  1.0000
  S   S520      1.0  0.61266  0.59492  0.34975  1.0000
  Fe  Fe260     1.0  0.62664  0.60971  0.41504  1.0000
  S   S521      1.0  0.60220  0.62959  0.42697  1.0000
  S   S522      1.0  0.64961  0.60150  0.43559  1.0000
  Fe  Fe261     1.0  0.58300  0.60940  0.41730  1.0000
  S   S523      1.0  0.55741  0.60329  0.43825  1.0000
  Fe  Fe262     1.0  0.60193  0.64391  0.39775  1.0000
  S   S524      1.0  0.60228  0.67541  0.38850  1.0000
  S   S525      1.0  0.60739  0.58855  0.40703  1.0000
  S   S526      1.0  0.62776  0.62547  0.38636  1.0000
  H   H2362     1.0  0.54300  0.74459  0.44354  1.0000
  S   S527      1.0  0.53927  0.52164  0.47546  1.0000
  H   H2363     1.0  0.81735  0.70853  0.51149  1.0000
  C   C1973     1.0  0.99755  0.71718  0.49692  1.0000
  S   S528      1.0  0.90196  0.71749  0.49021  1.0000
  H   H2364     1.0  0.82220  0.50566  0.42527  1.0000
  N   N135      1.0  0.65491  0.67183  0.42252  1.0000
  S   S529      1.0  0.86670  0.73159  0.52002  1.0000
  Fe  Fe263     1.0  0.89720  0.73847  0.51283  1.0000
  S   S530      1.0  0.92212  0.73640  0.53167  1.0000
  Fe  Fe264     1.0  0.87067  0.71275  0.49559  1.0000
  S   S531      1.0  0.85905  0.68340  0.50096  1.0000
  S   S532      1.0  0.58534  0.74081  0.44618  1.0000
  Fe  Fe265     1.0  0.76476  0.59479  0.43663  1.0000
  S   S533      1.0  0.77487  0.56373  0.44092  1.0000
  S   S534      1.0  0.73994  0.60740  0.41959  1.0000
  Fe  Fe266     1.0  0.80152  0.60738  0.45108  1.0000
  S   S535      1.0  0.81410  0.57691  0.45665  1.0000
  S   S536      1.0  0.81710  0.63473  0.44784  1.0000
  Fe  Fe267     1.0  0.80395  0.57141  0.42865  1.0000
  S   S537      1.0  0.82421  0.55235  0.40959  1.0000
  Fe  Fe268     1.0  0.78421  0.57094  0.46879  1.0000
  S   S538      1.0  0.77499  0.55010  0.49375  1.0000
  S   S539      1.0  0.79336  0.60185  0.42227  1.0000
  S   S540      1.0  0.77205  0.60203  0.46520  1.0000
  C   C1974     1.0  0.51693  0.74482  0.48735  1.0000
  C   C1975     1.0  0.78626  0.53217  0.50927  1.0000
  C   C1976     1.0  0.80620  0.52948  0.51024  1.0000
  C   C1977     1.0  0.86339  0.62298  0.36435  1.0000
  C   C1978     1.0  0.91702  0.71211  0.62255  1.0000
  H   H2365     1.0  0.81535  0.53892  0.50177  1.0000
  N   N136      1.0  0.84789  0.61549  0.39718  1.0000
  H   H2366     1.0  0.64357  0.67324  0.45186  1.0000
  C   C1979     1.0  0.82010  0.71873  0.49899  1.0000
  H   H2367     1.0  0.94154  0.69673  0.65019  1.0000
  C   C1980     1.0  0.59979  0.56790  0.49022  1.0000
  H   H2368     1.0  0.95235  0.73730  0.55584  1.0000
  H   H2369     1.0  0.96004  0.71639  0.51542  1.0000
  C   C1981     1.0  0.84708  0.67032  0.48602  1.0000
  C   C1982     1.0  0.83964  0.65325  0.49346  1.0000
  C   C1983     1.0  0.83023  0.64227  0.48214  1.0000
  C   C1984     1.0  0.82818  0.64822  0.46314  1.0000
  C   C1985     1.0  0.83548  0.66539  0.45574  1.0000
  C   C1986     1.0  0.84483  0.67639  0.46707  1.0000
  H   H2370     1.0  0.84129  0.64839  0.50808  1.0000
  H   H2371     1.0  0.82475  0.62912  0.48807  1.0000
  H   H2372     1.0  0.83404  0.67013  0.44106  1.0000
  H   H2373     1.0  0.85063  0.68936  0.46107  1.0000
  H   H2374     1.0  0.85025  0.53560  0.34571  1.0000
  C   C1987     1.0  0.83937  0.54432  0.35382  1.0000
  C   C1988     1.0  0.83870  0.54320  0.37376  1.0000
  C   C1989     1.0  0.82450  0.55427  0.38453  1.0000
  C   C1990     1.0  0.81103  0.56657  0.37516  1.0000
  C   C1991     1.0  0.81156  0.56751  0.35525  1.0000
  H   H2375     1.0  0.82168  0.63153  0.40757  1.0000
  H   H2376     1.0  0.84921  0.53366  0.38087  1.0000
  H   H2377     1.0  0.80001  0.57516  0.38325  1.0000
  H   H2378     1.0  0.80088  0.57686  0.34817  1.0000
  H   H2379     1.0  0.59436  0.64951  0.35676  1.0000
  H   H2380     1.0  0.69901  0.63507  0.45883  1.0000
  H   H2381     1.0  0.83989  0.50591  0.56705  1.0000
  N   N137      1.0  0.80223  0.72622  0.49037  1.0000
  C   C1992     1.0  0.57643  0.59728  0.33629  1.0000
  H   H2382     1.0  0.94100  0.74012  0.61739  1.0000
  C   C1993     1.0  0.54253  0.54427  0.46376  1.0000
  C   C1994     1.0  0.53150  0.56079  0.46939  1.0000
  C   C1995     1.0  0.53591  0.57875  0.46104  1.0000
  C   C1996     1.0  0.55120  0.58033  0.44686  1.0000
  C   C1997     1.0  0.56179  0.56375  0.44078  1.0000
  C   C1998     1.0  0.55764  0.54583  0.44939  1.0000
  H   H2383     1.0  0.51987  0.55978  0.48047  1.0000
  H   H2384     1.0  0.52757  0.59150  0.46575  1.0000
  H   H2385     1.0  0.57338  0.56474  0.42966  1.0000
  H   H2386     1.0  0.56621  0.53312  0.44491  1.0000
  H   H2387     1.0  0.83986  0.52021  0.58648  1.0000
  C   C1999     1.0  0.59699  0.69346  0.40464  1.0000
  C   C2000     1.0  0.59217  0.68910  0.42393  1.0000
  C   C2001     1.0  0.58864  0.70379  0.43644  1.0000
  C   C2002     1.0  0.58981  0.72294  0.42980  1.0000
  C   C2003     1.0  0.59458  0.72730  0.41050  1.0000
  C   C2004     1.0  0.59819  0.71260  0.39800  1.0000
  H   H2388     1.0  0.59112  0.67445  0.42922  1.0000
  H   H2389     1.0  0.58494  0.70030  0.45135  1.0000
  H   H2390     1.0  0.59556  0.74199  0.40523  1.0000
  H   H2391     1.0  0.60194  0.71612  0.38311  1.0000
  C   C2005     1.0  0.67478  0.60249  0.43051  1.0000
  C   C2006     1.0  0.68264  0.61063  0.41331  1.0000
  C   C2007     1.0  0.70264  0.61177  0.41015  1.0000
  C   C2008     1.0  0.71502  0.60459  0.42401  1.0000
  C   C2009     1.0  0.70718  0.59625  0.44114  1.0000
  C   C2010     1.0  0.68713  0.59533  0.44440  1.0000
  H   H2392     1.0  0.67335  0.61609  0.40245  1.0000
  H   H2393     1.0  0.70858  0.61829  0.39688  1.0000
  H   H2394     1.0  0.71652  0.59077  0.45196  1.0000
  H   H2395     1.0  0.68121  0.58901  0.45776  1.0000
  H   H2396     1.0  0.59266  0.61319  0.46974  1.0000
  C   C2011     1.0  0.61227  0.55881  0.50354  1.0000
  C   C2012     1.0  0.65377  0.68475  0.40503  1.0000
  H   H2397     1.0  0.56336  0.53870  0.50039  1.0000
  C   C2013     1.0  0.78193  0.51100  0.45558  1.0000
  H   H2398     1.0  0.82373  0.50966  0.66102  1.0000
  C   C2014     1.0  0.90839  0.68389  0.60848  1.0000
  H   H2399     1.0  0.78534  0.72549  0.51746  1.0000
  H   H2400     1.0  0.80280  0.70029  0.47586  1.0000
  C   C2015     1.0  0.82571  0.55641  0.34447  1.0000
  C   C2016     1.0  0.79282  0.70992  0.48475  1.0000
  H   H2401     1.0  0.87881  0.52149  0.63490  1.0000
  C   C2017     1.0  0.95732  0.71261  0.50108  1.0000
  H   H2402     1.0  0.64245  0.64582  0.43329  1.0000
  S   S541      1.0  0.86149  0.73628  0.47435  1.0000
  C   C2018     1.0  0.85949  0.58992  0.37423  1.0000
  C   C2019     1.0  0.50442  0.71831  0.50774  1.0000
  H   H2403     1.0  0.80806  0.53706  0.44759  1.0000
  H   H2404     1.0  0.91149  0.73834  0.60479  1.0000
  H   H2405     1.0  0.82979  0.51247  0.52267  1.0000
  C   C2020     1.0  0.93012  0.70824  0.65406  1.0000
  H   H2406     1.0  0.91718  0.70185  0.66103  1.0000
  C   C2021     1.0  0.81246  0.52380  0.45617  1.0000
  H   H2407     1.0  0.59681  0.68520  0.33404  1.0000
  C   C2022     1.0  0.58902  0.60023  0.47879  1.0000
  H   H2408     1.0  0.65153  0.64649  0.40894  1.0000
  H   H2409     1.0  0.94147  0.71204  0.50169  1.0000
  N   N138      1.0  0.96411  0.72680  0.48602  1.0000
  C   C2023     1.0  0.58892  0.64931  0.34259  1.0000
  H   H2410     1.0  0.65343  0.69445  0.44126  1.0000
  H   H2411     1.0  0.52124  0.71451  0.48171  1.0000
  H   H2412     1.0  0.62564  0.60516  0.47165  1.0000
  C   C2024     1.0  0.95794  0.72153  0.46789  1.0000
  H   H2413     1.0  0.58578  0.60423  0.49365  1.0000
  H   H2414     1.0  0.81961  0.61832  0.38742  1.0000
  C   C2025     1.0  0.84739  0.50741  0.57992  1.0000
  C   C2026     1.0  0.91565  0.69214  0.62321  1.0000
  H   H2415     1.0  0.54561  0.72694  0.46244  1.0000
  H   H2416     1.0  0.95400  0.71753  0.62335  1.0000
  H   H2417     1.0  0.50490  0.51233  0.57098  1.0000
  H   H2418     1.0  0.86169  0.63801  0.36657  1.0000
  H   H2419     1.0  0.98566  0.74844  0.45972  1.0000
  H   H2420     1.0  0.61671  0.53647  0.52563  1.0000
  C   C2027     1.0  0.90364  0.71474  0.59165  1.0000
  Fe  Fe269     1.0  0.89266  0.74240  0.47058  1.0000
  H   H2421     1.0  0.83740  0.60442  0.42511  1.0000
  H   H2422     1.0  0.57213  0.56579  0.47931  1.0000
  C   C2028     1.0  0.53507  0.73812  0.45643  1.0000
  C   C2029     1.0  0.62275  0.59230  0.48122  1.0000
  C   C2030     1.0  0.57706  0.54429  0.50133  1.0000
  C   C2031     1.0  0.51485  0.72505  0.49120  1.0000
  H   H2423     1.0  0.89704  0.68873  0.58122  1.0000
  H   H2424     1.0  0.66113  0.69780  0.40600  1.0000
  H   H2425     1.0  0.86228  0.64118  0.39749  1.0000
  H   H2426     1.0  0.61538  0.67226  0.34653  1.0000
  H   H2427     1.0  0.62615  0.56356  0.50500  1.0000
  H   H2428     1.0  0.91715  0.74359  0.65653  1.0000
  H   H2429     1.0  0.83279  0.73821  0.42986  1.0000
  C   C2032     1.0  0.87346  0.50845  0.63151  1.0000
  C   C2033     1.0  0.60734  0.57883  0.45759  1.0000
  C   C2034     1.0  0.95424  0.74568  0.49047  1.0000
  N   N139      1.0  0.92541  0.72133  0.63737  1.0000
  C   C2035     1.0  0.85717  0.60931  0.37877  1.0000
  H   H2430     1.0  0.93829  0.74575  0.49108  1.0000
  C   C2036     1.0  0.71258  0.65028  0.43476  1.0000
  H   H2431     1.0  0.89746  0.73254  0.64906  1.0000
  H   H2432     1.0  0.63045  0.68865  0.43557  1.0000
  C   C2037     1.0  0.98521  0.72774  0.48429  1.0000
  H   H2433     1.0  0.97066  0.74901  0.40318  1.0000
  H   H2434     1.0  0.61898  0.56701  0.45573  1.0000
  C   C2038     1.0  0.67482  0.66483  0.42658  1.0000
  C   C2039     1.0  0.69679  0.64514  0.44674  1.0000
  C   C2040     1.0  0.82936  0.62682  0.39402  1.0000
  C   C2041     1.0  0.86034  0.62748  0.40586  1.0000
  H   H2435     1.0  0.63859  0.68972  0.40245  1.0000
  H   H2436     1.0  0.82840  0.52128  0.45381  1.0000
  H   H2437     1.0  0.85402  0.63145  0.42021  1.0000
  C   C2042     1.0  0.90246  0.69516  0.59272  1.0000
  H   H2438     1.0  0.93833  0.73734  0.41083  1.0000
  H   H2439     1.0  0.62929  0.66008  0.41617  1.0000
  C   C2043     1.0  0.94345  0.72897  0.62906  1.0000
  C   C2044     1.0  0.64521  0.68245  0.43851  1.0000
  H   H2440     1.0  0.62197  0.59659  0.49600  1.0000
  H   H2441     1.0  0.63560  0.58192  0.47851  1.0000
  H   H2442     1.0  0.82319  0.71699  0.45708  1.0000
  H   H2443     1.0  0.57545  0.59650  0.47379  1.0000
  Fe  Fe270     1.0  0.51208  0.51322  0.49289  1.0000
  H   H2444     1.0  0.62679  0.63961  0.33997  1.0000
  C   C2045     1.0  0.60705  0.54309  0.51547  1.0000
  H   H2445     1.0  0.80872  0.52681  0.47123  1.0000
  C   C2046     1.0  0.69128  0.66987  0.41466  1.0000
  H   H2446     1.0  0.83323  0.59059  0.40639  1.0000
  C   C2047     1.0  0.64408  0.65538  0.42017  1.0000
  H   H2447     1.0  0.61125  0.59089  0.44745  1.0000
  C   C2048     1.0  0.87160  0.61756  0.34662  1.0000
  C   C2049     1.0  0.70984  0.66258  0.41876  1.0000
  H   H2448     1.0  0.66003  0.67741  0.39226  1.0000
  C   C2050     1.0  0.91071  0.72312  0.60635  1.0000
  H   H2449     1.0  0.52301  0.73131  0.45156  1.0000
  S   S542      1.0  0.51312  0.50581  0.52412  1.0000
  H   H2450     1.0  0.59403  0.57412  0.45306  1.0000
  H   H2451     1.0  0.66640  0.64739  0.45223  1.0000
  C   C2051     1.0  0.67818  0.65224  0.44275  1.0000
  H   H2452     1.0  0.72223  0.66615  0.40931  1.0000
  C   C2052     1.0  0.58945  0.53591  0.51442  1.0000
  H   H2453     1.0  0.85710  0.58999  0.41402  1.0000
  C   C2053     1.0  0.80714  0.73917  0.47354  1.0000
  H   H2454     1.0  0.90998  0.74940  0.63343  1.0000
  H   H2455     1.0  0.69025  0.67918  0.40195  1.0000
  N   N140      1.0  0.60476  0.58452  0.47732  1.0000
  H   H2456     1.0  0.72696  0.64423  0.43758  1.0000
  H   H2457     1.0  0.83129  0.63993  0.38463  1.0000
  H   H2458     1.0  0.87482  0.61982  0.40750  1.0000
  H   H2459     1.0  0.96405  0.69798  0.49864  1.0000
  C   C2054     1.0  0.84381  0.59937  0.41122  1.0000
  C   C2055     1.0  0.58215  0.55996  0.48935  1.0000
  C   C2056     1.0  0.99407  0.73961  0.46963  1.0000
  H   H2460     1.0  0.94208  0.72079  0.46863  1.0000
  H   H2461     1.0  0.80018  0.51965  0.42235  1.0000
  H   H2462     1.0  0.82748  0.73048  0.50374  1.0000
  C   C2057     1.0  0.81436  0.51450  0.52222  1.0000
  H   H2463     1.0  0.83048  0.71098  0.48886  1.0000
  C   C2058     1.0  0.77466  0.51987  0.52072  1.0000
  S   S543      1.0  0.90882  0.74371  0.44123  1.0000
  H   H2464     1.0  0.92024  0.68258  0.63487  1.0000
  H   H2465     1.0  0.96123  0.73204  0.45589  1.0000
  H   H2466     1.0  0.85495  0.57848  0.38409  1.0000
  H   H2467     1.0  0.75922  0.52182  0.52019  1.0000
  H   H2468     1.0  0.51872  0.50743  0.59087  1.0000
  C   C2059     1.0  0.80657  0.50650  0.43005  1.0000
  H   H2469     1.0  0.77809  0.51543  0.47025  1.0000
  H   H2470     1.0  0.58538  0.52383  0.52377  1.0000
  C   C2060     1.0  0.81821  0.73195  0.45742  1.0000
  H   H2471     1.0  0.86244  0.51018  0.57493  1.0000
  C   C2061     1.0  0.94039  0.74689  0.56114  1.0000
  H   H2472     1.0  0.89925  0.72350  0.57926  1.0000
  H   H2473     1.0  0.78024  0.71498  0.47667  1.0000
  C   C2062     1.0  0.94321  0.74723  0.41973  1.0000
  H   H2474     1.0  0.77542  0.52279  0.44624  1.0000
  C   C2063     1.0  0.82389  0.74400  0.44177  1.0000
  H   H2475     1.0  0.57053  0.60096  0.35029  1.0000
  H   H2476     1.0  0.79603  0.74710  0.51121  1.0000
  N   N141      1.0  0.52806  0.75257  0.47020  1.0000
  H   H2477     1.0  0.77545  0.74197  0.49958  1.0000
  H   H2478     1.0  0.90752  0.66863  0.60918  1.0000
  C   C2064     1.0  0.91188  0.73733  0.64435  1.0000
  H   H2479     1.0  0.57506  0.65852  0.34272  1.0000
  C   C2065     1.0  0.92343  0.74936  0.55178  1.0000
  H   H2480     1.0  0.87623  0.62824  0.33581  1.0000
  H   H2481     1.0  0.95046  0.73564  0.63982  1.0000
  H   H2482     1.0  0.78774  0.70068  0.49728  1.0000
  H   H2483     1.0  0.96510  0.70747  0.46393  1.0000
  H   H2484     1.0  0.93608  0.71582  0.66503  1.0000
  C   C2066     1.0  0.78912  0.73567  0.50523  1.0000
  H   H2485     1.0  0.86383  0.52081  0.60564  1.0000
  H   H2486     1.0  0.99216  0.70809  0.50874  1.0000
  H   H2487     1.0  0.86900  0.56986  0.35318  1.0000
  C   C2067     1.0  0.78280  0.50496  0.53274  1.0000
  C   C2068     1.0  0.86761  0.58470  0.35642  1.0000
  N   N142      1.0  0.80305  0.50741  0.45093  1.0000
  C   C2069     1.0  0.87368  0.59846  0.34265  1.0000
  H   H2488     1.0  0.55455  0.74965  0.48359  1.0000
  C   C2070     1.0  0.86474  0.50784  0.61471  1.0000
  S   S544      1.0  0.97840  0.72361  0.66491  1.0000
  H   H2489     1.0  0.95761  0.74971  0.50450  1.0000
  H   H2490     1.0  0.58577  0.63440  0.34140  1.0000
  H   H2491     1.0  0.50302  0.70319  0.51044  1.0000
  H   H2492     1.0  0.87633  0.54019  0.72788  1.0000
  N   N143      1.0  0.74292  0.62897  0.91043  1.0000
  S   S545      1.0  0.88023  0.53697  0.76783  1.0000
  C   C2071     1.0  0.71600  0.69682  0.98773  1.0000
  C   C2072     1.0  0.52752  0.51246  0.79374  1.0000
  H   H2493     1.0  0.87833  0.54797  0.70329  1.0000
  C   C2073     1.0  0.78725  0.66599  0.91541  1.0000
  Fe  Fe271     1.0  0.95192  0.64109  0.80086  1.0000
  S   S546      1.0  0.97499  0.65877  0.78726  1.0000
  S   S547      1.0  0.93398  0.64861  0.82838  1.0000
  Fe  Fe272     1.0  0.95161  0.61902  0.76527  1.0000
  S   S548      1.0  0.97415  0.63608  0.74914  1.0000
  S   S549      1.0  0.94305  0.59612  0.74754  1.0000
  Fe  Fe273     1.0  0.98914  0.63149  0.77586  1.0000
  Fe  Fe274     1.0  0.95833  0.66192  0.76159  1.0000
  S   S550      1.0  0.95115  0.69220  0.74890  1.0000
  S   S551      1.0  0.96747  0.61316  0.79158  1.0000
  S   S552      1.0  0.93442  0.64543  0.77555  1.0000
  Fe  Fe275     1.0  0.74600  0.64864  0.97513  1.0000
  S   S553      1.0  0.77417  0.63882  0.95910  1.0000
  S   S554      1.0  0.72356  0.66946  0.96130  1.0000
  C   C2074     1.0  0.98758  0.57583  0.72410  1.0000
  H   H2494     1.0  0.87395  0.60361  0.76270  1.0000
  C   C2075     1.0  0.93910  0.73620  0.83030  1.0000
  Fe  Fe276     1.0  0.76634  0.60901  0.96729  1.0000
  S   S555      1.0  0.77356  0.58613  0.94621  1.0000
  S   S556      1.0  0.73746  0.61884  0.98110  1.0000
  Fe  Fe277     1.0  0.90421  0.70657  0.94700  1.0000
  S   S557      1.0  0.92959  0.68597  0.95436  1.0000
  S   S558      1.0  0.87249  0.70151  0.94633  1.0000
  Fe  Fe278     1.0  0.93036  0.73769  0.93100  1.0000
  S   S559      1.0  0.95738  0.71893  0.93669  1.0000
  Fe  Fe279     1.0  0.94304  0.69560  0.92545  1.0000
  S   S560      1.0  0.95966  0.67534  0.90492  1.0000
  Fe  Fe280     1.0  0.94196  0.71112  0.96499  1.0000
  H   H2495     1.0  0.85398  0.57988  0.75511  1.0000
  S   S561      1.0  0.91739  0.71488  0.91765  1.0000
  S   S562      1.0  0.91528  0.73115  0.95974  1.0000
  H   H2496     1.0  0.89141  0.56675  0.78825  1.0000
  N   N144      1.0  0.89303  0.65166  0.91586  1.0000
  H   H2497     1.0  0.54661  0.73130  0.90845  1.0000
  S   S563      1.0  0.71732  0.53169  0.91701  1.0000
  C   C2076     1.0  0.51908  0.53121  0.78980  1.0000
  H   H2498     1.0  0.83570  0.55918  0.69941  1.0000
  H   H2499     1.0  0.96693  0.70415  0.86742  1.0000
  H   H2500     1.0  0.00036  0.57951  0.76838  1.0000
  H   H2501     1.0  0.52789  0.54185  0.78285  1.0000
  C   C2077     1.0  0.88370  0.66786  0.90437  1.0000
  C   C2078     1.0  0.75762  0.57095  0.93870  1.0000
  C   C2079     1.0  0.76488  0.55739  0.92578  1.0000
  C   C2080     1.0  0.75273  0.54537  0.91896  1.0000
  C   C2081     1.0  0.73309  0.54685  0.92490  1.0000
  C   C2082     1.0  0.72578  0.56046  0.93781  1.0000
  C   C2083     1.0  0.73798  0.57243  0.94473  1.0000
  H   H2502     1.0  0.78003  0.55622  0.92095  1.0000
  H   H2503     1.0  0.75856  0.53510  0.90896  1.0000
  H   H2504     1.0  0.71060  0.56169  0.94253  1.0000
  H   H2505     1.0  0.73218  0.58278  0.95470  1.0000
  C   C2084     1.0  0.83214  0.65993  0.97890  1.0000
  C   C2085     1.0  0.82560  0.67318  0.96471  1.0000
  C   C2086     1.0  0.83817  0.68574  0.95494  1.0000
  C   C2087     1.0  0.85742  0.68524  0.95920  1.0000
  C   C2088     1.0  0.86400  0.67190  0.97328  1.0000
  C   C2089     1.0  0.85141  0.65939  0.98310  1.0000
  H   H2506     1.0  0.87873  0.67132  0.97674  1.0000
  H   H2507     1.0  0.52245  0.59636  0.84839  1.0000
  C   C2090     1.0  0.94217  0.65755  0.84850  1.0000
  C   C2091     1.0  0.96046  0.65181  0.85434  1.0000
  C   C2092     1.0  0.96564  0.65755  0.87154  1.0000
  C   C2093     1.0  0.95281  0.66943  0.88287  1.0000
  C   C2094     1.0  0.93490  0.67599  0.87652  1.0000
  C   C2095     1.0  0.92948  0.66980  0.85960  1.0000
  H   H2508     1.0  0.97035  0.64232  0.84601  1.0000
  H   H2509     1.0  0.97961  0.65252  0.87623  1.0000
  H   H2510     1.0  0.92520  0.68568  0.88474  1.0000
  H   H2511     1.0  0.91537  0.67448  0.85511  1.0000
  C   C2096     1.0  0.68947  0.72218  0.98657  1.0000
  C   C2097     1.0  0.68442  0.71529  0.97003  1.0000
  C   C2098     1.0  0.69506  0.69921  0.96245  1.0000
  C   C2099     1.0  0.71083  0.68983  0.97130  1.0000
  H   H2512     1.0  0.74521  0.52164  0.97023  1.0000
  H   H2513     1.0  0.87383  0.66298  0.89485  1.0000
  H   H2514     1.0  0.67225  0.72229  0.96312  1.0000
  H   H2515     1.0  0.69097  0.69397  0.94968  1.0000
  S   S564      1.0  0.61875  0.74971  0.99388  1.0000
  C   C2100     1.0  0.86788  0.54543  0.71575  1.0000
  H   H2516     1.0  0.89881  0.66848  0.93807  1.0000
  C   C2101     1.0  0.89279  0.59812  0.71756  1.0000
  H   H2517     1.0  0.90435  0.60289  0.70765  1.0000
  H   H2518     1.0  0.93103  0.74580  0.82076  1.0000
  C   C2102     1.0  0.97096  0.71528  0.68843  1.0000
  C   C2103     1.0  0.97535  0.69597  0.69423  1.0000
  C   C2104     1.0  0.96949  0.68871  0.71270  1.0000
  C   C2105     1.0  0.95903  0.70069  0.72554  1.0000
  C   C2106     1.0  0.95452  0.71998  0.71969  1.0000
  C   C2107     1.0  0.96047  0.72727  0.70125  1.0000
  C   C2108     1.0  0.99058  0.57972  0.75699  1.0000
  H   H2519     1.0  0.97309  0.67385  0.71701  1.0000
  H   H2520     1.0  0.94642  0.72936  0.72949  1.0000
  H   H2521     1.0  0.97644  0.72284  0.79593  1.0000
  H   H2522     1.0  0.98347  0.68659  0.68443  1.0000
  C   C2109     1.0  0.99434  0.71197  0.98986  1.0000
  C   C2110     1.0  0.89906  0.55206  0.76278  1.0000
  C   C2111     1.0  0.91144  0.55124  0.74615  1.0000
  C   C2112     1.0  0.92508  0.56462  0.74192  1.0000
  C   C2113     1.0  0.92669  0.57876  0.75435  1.0000
  C   C2114     1.0  0.91474  0.57921  0.77125  1.0000
  C   C2115     1.0  0.90091  0.56600  0.77535  1.0000
  H   H2523     1.0  0.91027  0.54055  0.73639  1.0000
  H   H2524     1.0  0.93423  0.56418  0.72879  1.0000
  H   H2525     1.0  0.91580  0.59003  0.78092  1.0000
  H   H2526     1.0  0.73803  0.60158  0.90115  1.0000
  H   H2527     1.0  0.99089  0.53989  0.74150  1.0000
  C   C2116     1.0  0.94914  0.73020  0.86208  1.0000
  H   H2528     1.0  0.72414  0.52254  0.95813  1.0000
  C   C2117     1.0  0.79236  0.64774  0.90938  1.0000
  H   H2529     1.0  0.80742  0.64280  0.90653  1.0000
  H   H2530     1.0  0.57390  0.72100  0.92794  1.0000
  H   H2531     1.0  0.82986  0.56912  0.73962  1.0000
  C   C2118     1.0  0.84028  0.55687  0.73557  1.0000
  H   H2532     1.0  0.91277  0.62678  0.91009  1.0000
  H   H2533     1.0  0.83554  0.58322  0.70622  1.0000
  H   H2534     1.0  0.97926  0.58994  0.72139  1.0000
  C   C2119     1.0  0.84490  0.56986  0.70349  1.0000
  H   H2535     1.0  0.94409  0.73972  0.79032  1.0000
  H   H2536     1.0  0.83147  0.51241  0.82590  1.0000
  H   H2537     1.0  0.84368  0.61357  0.96429  1.0000
  C   C2120     1.0  0.75368  0.66024  0.91774  1.0000
  H   H2538     1.0  0.85664  0.64919  0.99403  1.0000
  H   H2539     1.0  0.75695  0.61312  0.88741  1.0000
  H   H2540     1.0  0.98186  0.59375  0.75670  1.0000
  H   H2541     1.0  0.98468  0.74408  0.95208  1.0000
  H   H2542     1.0  0.51776  0.73884  0.93574  1.0000
  C   C2121     1.0  0.74993  0.61069  0.90200  1.0000
  H   H2543     1.0  0.79428  0.51891  0.80553  1.0000
  C   C2122     1.0  0.73271  0.51366  0.96858  1.0000
  H   H2544     1.0  0.81085  0.67380  0.96132  1.0000
  C   C2123     1.0  0.77820  0.63562  0.90753  1.0000
  H   H2545     1.0  0.76031  0.60193  0.91077  1.0000
  Fe  Fe281     1.0  0.78649  0.63735  0.98718  1.0000
  C   C2124     1.0  0.87327  0.61595  0.95387  1.0000
  H   H2546     1.0  0.83292  0.69603  0.94410  1.0000
  H   H2547     1.0  0.72727  0.63730  0.93669  1.0000
  C   C2125     1.0  0.75832  0.64158  0.91158  1.0000
  C   C2126     1.0  0.56912  0.73599  0.92582  1.0000
  N   N145      1.0  0.00148  0.57657  0.73847  1.0000
  H   H2548     1.0  0.88432  0.57932  0.69877  1.0000
  H   H2549     1.0  0.76396  0.68619  0.92483  1.0000
  S   S565      1.0  0.71940  0.50566  0.86799  1.0000
  S   S566      1.0  0.78048  0.60671  0.99448  1.0000
  N   N146      1.0  0.94921  0.71221  0.80536  1.0000
  C   C2127     1.0  0.94070  0.69377  0.80657  1.0000
  C   C2128     1.0  0.93811  0.72566  0.79239  1.0000
  C   C2129     1.0  0.96926  0.70946  0.79654  1.0000
  C   C2130     1.0  0.94914  0.71874  0.82466  1.0000
  H   H2550     1.0  0.97635  0.56606  0.72879  1.0000
  C   C2131     1.0  0.95918  0.70737  0.83862  1.0000
  H   H2551     1.0  0.95697  0.74215  0.69698  1.0000
  C   C2132     1.0  0.85352  0.62080  0.95412  1.0000
  H   H2552     1.0  0.84700  0.55042  0.74845  1.0000
  H   H2553     1.0  0.92610  0.69472  0.81428  1.0000
  H   H2554     1.0  0.93948  0.68877  0.79229  1.0000
  H   H2555     1.0  0.94956  0.68228  0.81416  1.0000
  Fe  Fe282     1.0  0.72736  0.50763  0.89774  1.0000
  H   H2556     1.0  0.93862  0.72023  0.77802  1.0000
  S   S567      1.0  0.95411  0.71194  0.99395  1.0000
  H   H2557     1.0  0.85965  0.53362  0.71244  1.0000
  H   H2558     1.0  0.96977  0.70499  0.78178  1.0000
  H   H2559     1.0  0.95423  0.74507  0.97053  1.0000
  H   H2560     1.0  0.50366  0.60620  0.82141  1.0000
  C   C2133     1.0  0.95923  0.71313  0.85697  1.0000
  H   H2561     1.0  0.73898  0.66555  0.92183  1.0000
  C   C2134     1.0  0.87921  0.64114  0.92871  1.0000
  C   C2135     1.0  0.86416  0.58489  0.74393  1.0000
  C   C2136     1.0  0.55360  0.74178  0.91484  1.0000
  H   H2562     1.0  0.96689  0.69376  0.83554  1.0000
  H   H2563     1.0  0.89427  0.63195  0.89414  1.0000
  H   H2564     1.0  0.97819  0.69815  0.80436  1.0000
  H   H2565     1.0  0.92264  0.72769  0.79768  1.0000
  C   C2137     1.0  0.84638  0.63543  0.94169  1.0000
  C   C2138     1.0  0.90403  0.63851  0.90261  1.0000
  H   H2566     1.0  0.85239  0.65731  0.92064  1.0000
  H   H2567     1.0  0.51065  0.58423  0.81074  1.0000
  H   H2568     1.0  0.72253  0.61456  0.92974  1.0000
  H   H2569     1.0  0.74487  0.61729  0.93900  1.0000
  H   H2570     1.0  0.53971  0.73953  0.95764  1.0000
  C   C2139     1.0  0.76794  0.67221  0.91959  1.0000
  H   H2571     1.0  0.71994  0.65122  0.90543  1.0000
  H   H2572     1.0  0.71684  0.62911  0.89656  1.0000
  S   S568      1.0  0.76691  0.50655  0.83529  1.0000
  C   C2140     1.0  0.88596  0.62583  0.94128  1.0000
  H   H2573     1.0  0.51896  0.57442  0.86222  1.0000
  H   H2574     1.0  0.91658  0.66859  0.91803  1.0000
  S   S569      1.0  0.81708  0.64349  0.99152  1.0000
  H   H2575     1.0  0.90116  0.62160  0.94168  1.0000
  H   H2576     1.0  0.79828  0.67518  0.91725  1.0000
  H   H2577     1.0  0.99360  0.71060  0.97492  1.0000
  H   H2578     1.0  0.78324  0.62151  0.90333  1.0000
  H   H2579     1.0  0.98045  0.56871  0.76124  1.0000
  C   C2141     1.0  0.72792  0.63873  0.89873  1.0000
  N   N147      1.0  0.85504  0.56271  0.72039  1.0000
  H   H2580     1.0  0.87877  0.60468  0.96372  1.0000
  C   C2142     1.0  0.73395  0.62437  0.92976  1.0000
  H   H2581     1.0  0.89444  0.67565  0.89510  1.0000
  C   C2143     1.0  0.90670  0.65955  0.92707  1.0000
  H   H2582     1.0  0.89932  0.61514  0.73941  1.0000
  H   H2583     1.0  0.73438  0.64381  0.88454  1.0000
  H   H2584     1.0  0.54269  0.50888  0.79007  1.0000
  H   H2585     1.0  0.72370  0.51306  0.98234  1.0000
  H   H2586     1.0  0.67548  0.67188  0.99640  1.0000
  H   H2587     1.0  0.83180  0.54580  0.73107  1.0000
  H   H2588     1.0  0.91438  0.64599  0.89251  1.0000
  C   C2144     1.0  0.86664  0.57747  0.72576  1.0000
  S   S570      1.0  0.59789  0.74145  0.94779  1.0000
  C   C2145     1.0  0.88994  0.60513  0.73545  1.0000
  H   H2589     1.0  0.85501  0.57290  0.69086  1.0000
  H   H2590     1.0  0.94901  0.73448  0.87643  1.0000
  H   H2591     1.0  0.91615  0.64835  0.93440  1.0000
  H   H2592     1.0  0.83099  0.63941  0.94236  1.0000
  Fe  Fe283     1.0  0.87645  0.51001  0.75355  1.0000
  H   H2593     1.0  0.87561  0.67857  0.91359  1.0000
  C   C2146     1.0  0.85893  0.64563  0.92925  1.0000
  C   C2147     1.0  0.70536  0.71291  0.99532  1.0000
  C   C2148     1.0  0.88131  0.58456  0.71270  1.0000
  S   S571      1.0  0.84631  0.50501  0.74810  1.0000
  S   S572      1.0  0.67637  0.74218  0.99687  1.0000
  C   C2149     1.0  0.87561  0.59860  0.74856  1.0000
  H   H2594     1.0  0.50924  0.55421  0.82771  1.0000
  H   H2595     1.0  0.76474  0.50329  0.94705  1.0000
  C   C2150     1.0  0.93914  0.74172  0.84877  1.0000
  C   C2151     1.0  0.57860  0.74945  0.93395  1.0000
  H   H2596     1.0  0.74509  0.50372  0.93298  1.0000
  C   C2152     1.0  0.53487  0.75114  0.96645  1.0000
  C   C2153     1.0  0.51879  0.58153  0.84767  1.0000
  H   H2597     1.0  0.56187  0.50854  0.73495  1.0000
  Fe  Fe284     1.0  0.50584  0.75259  0.88796  1.0000
  H   H2598     1.0  0.53488  0.52314  0.72305  1.0000
  H   H2599     1.0  0.72834  0.68999  0.99445  1.0000
  H   H2600     1.0  0.53065  0.57422  0.83855  1.0000
  H   H2601     1.0  0.99508  0.57144  0.71041  1.0000
  C   C2154     1.0  0.50721  0.53216  0.73598  1.0000
  H   H2602     1.0  0.51260  0.72332  0.95677  1.0000
  C   C2155     1.0  0.50668  0.73549  0.94749  1.0000
  C   C2156     1.0  0.52319  0.51886  0.73296  1.0000
  H   H2603     1.0  0.50691  0.54625  0.72871  1.0000
  C   C2157     1.0  0.79621  0.50351  0.80696  1.0000
  H   H2604     1.0  0.56375  0.75169  0.97431  1.0000
  H   H2605     1.0  0.00270  0.60663  0.73018  1.0000
  H   H2606     1.0  0.65228  0.69964  0.99552  1.0000
  H   H2607     1.0  0.70607  0.65605  0.99856  1.0000
  H   H2608     1.0  0.98457  0.75264  0.98331  1.0000
  H   H2609     1.0  0.55520  0.95420  0.23374  1.0000
  C   C2158     1.0  0.72904  0.98987  0.00644  1.0000
  S   S573      1.0  0.52612  0.77522  0.12508  1.0000
  Fe  Fe285     1.0  0.53080  0.77065  0.15614  1.0000
  S   S574      1.0  0.54142  0.79567  0.16956  1.0000
  Fe  Fe286     1.0  0.52807  0.88033  0.29348  1.0000
  S   S575      1.0  0.54831  0.86884  0.26972  1.0000
  H   H2610     1.0  0.56811  0.98481  0.23477  1.0000
  H   H2611     1.0  0.70591  0.92770  0.00838  1.0000
  S   S576      1.0  0.52385  0.89887  0.24055  1.0000
  Fe  Fe287     1.0  0.52189  0.86894  0.25391  1.0000
  C   C2159     1.0  0.52879  0.80622  0.31501  1.0000
  Fe  Fe288     1.0  0.54856  0.89971  0.25847  1.0000
  S   S577      1.0  0.57550  0.91357  0.24671  1.0000
  N   N148      1.0  0.67502  0.93041  0.01493  1.0000
  S   S578      1.0  0.53026  0.91100  0.28330  1.0000
  C   C2160     1.0  0.50423  0.00208  0.20627  1.0000
  S   S579      1.0  0.58951  0.78980  0.02524  1.0000
  C   C2161     1.0  0.67518  0.94309  0.03049  1.0000
  H   H2612     1.0  0.69914  0.95819  0.01709  1.0000
  C   C2162     1.0  0.62544  0.93791  0.29712  1.0000
  C   C2163     1.0  0.51614  0.98517  0.20467  1.0000
  C   C2164     1.0  0.58268  0.93450  0.25507  1.0000
  C   C2165     1.0  0.57416  0.94183  0.27189  1.0000
  C   C2166     1.0  0.58110  0.95769  0.27879  1.0000
  C   C2167     1.0  0.59624  0.96675  0.26867  1.0000
  C   C2168     1.0  0.60415  0.96002  0.25137  1.0000
  C   C2169     1.0  0.59754  0.94382  0.24473  1.0000
  H   H2613     1.0  0.56250  0.93507  0.27977  1.0000
  H   H2614     1.0  0.57489  0.96279  0.29218  1.0000
  H   H2615     1.0  0.61588  0.96679  0.24348  1.0000
  H   H2616     1.0  0.60417  0.93833  0.23164  1.0000
  H   H2617     1.0  0.99012  0.95228  0.00989  1.0000
  H   H2618     1.0  0.50486  0.83623  0.28247  1.0000
  H   H2619     1.0  0.73887  0.97905  0.99982  1.0000
  C   C2170     1.0  0.53341  0.80797  0.19025  1.0000
  C   C2171     1.0  0.54325  0.82332  0.19433  1.0000
  C   C2172     1.0  0.53716  0.83392  0.21020  1.0000
  C   C2173     1.0  0.52100  0.82938  0.22215  1.0000
  H   H2620     1.0  0.66021  0.90780  0.00602  1.0000
  C   C2174     1.0  0.51743  0.80323  0.20238  1.0000
  H   H2621     1.0  0.54485  0.84572  0.21303  1.0000
  H   H2622     1.0  0.64519  0.92485  0.01926  1.0000
  H   H2623     1.0  0.55227  0.90183  0.32663  1.0000
  C   C2175     1.0  0.58257  0.77484  0.04538  1.0000
  C   C2176     1.0  0.56493  0.77137  0.07671  1.0000
  C   C2177     1.0  0.57107  0.78284  0.06059  1.0000
  H   H2624     1.0  0.55628  0.77775  0.08839  1.0000
  H   H2625     1.0  0.56705  0.79805  0.05996  1.0000
  C   C2178     1.0  0.62146  0.92442  0.28522  1.0000
  H   H2626     1.0  0.52482  0.77647  0.04614  1.0000
  C   C2179     1.0  0.52795  0.96288  0.24842  1.0000
  H   H2627     1.0  0.53160  0.98545  0.20229  1.0000
  H   H2628     1.0  0.98669  0.98678  0.32414  1.0000
  H   H2629     1.0  0.65283  0.95375  0.07408  1.0000
  C   C2180     1.0  0.52333  0.99559  0.25707  1.0000
  C   C2181     1.0  0.55343  0.98356  0.24058  1.0000
  H   H2630     1.0  0.51478  0.84294  0.30287  1.0000
  C   C2182     1.0  0.66290  0.95450  0.06154  1.0000
  C   C2183     1.0  0.68885  0.95669  0.02934  1.0000
  C   C2184     1.0  0.54211  0.99907  0.24890  1.0000
  H   H2631     1.0  0.55567  0.82708  0.18509  1.0000
  C   C2185     1.0  0.59749  0.91222  0.30946  1.0000
  S   S580      1.0  0.52747  0.87240  0.32527  1.0000
  C   C2186     1.0  0.56435  0.91088  0.32280  1.0000
  N   N149      1.0  0.52316  0.81388  0.29613  1.0000
  Fe  Fe289     1.0  0.98295  0.99153  0.00248  1.0000
  H   H2632     1.0  0.69704  0.91030  0.02595  1.0000
  C   C2187     1.0  0.54254  0.79011  0.31669  1.0000
  C   C2188     1.0  0.68952  0.96872  0.04386  1.0000
  C   C2189     1.0  0.54629  0.96587  0.24013  1.0000
  C   C2190     1.0  0.51238  0.76266  0.08033  1.0000
  S   S581      1.0  0.60576  0.98537  0.27892  1.0000
  Fe  Fe290     1.0  0.61075  0.78005  0.00082  1.0000
  C   C2191     1.0  0.57750  0.88778  0.30108  1.0000
  H   H2633     1.0  0.55970  0.92189  0.31168  1.0000
  C   C2192     1.0  0.66214  0.94234  0.04709  1.0000
  H   H2634     1.0  0.74899  0.99605  0.02595  1.0000
  C   C2193     1.0  0.58781  0.75519  0.04638  1.0000
  C   C2194     1.0  0.51125  0.81391  0.21819  1.0000
  H   H2635     1.0  0.58988  0.87763  0.29633  1.0000
  C   C2195     1.0  0.97141  0.92122  0.00165  1.0000
  C   C2196     1.0  0.50817  0.96780  0.20646  1.0000
  H   H2636     1.0  0.52553  0.75495  0.03409  1.0000
  H   H2637     1.0  0.61912  0.94914  0.32437  1.0000
  C   C2197     1.0  0.52645  0.76066  0.04807  1.0000
  H   H2638     1.0  0.50993  0.83697  0.16337  1.0000
  H   H2639     1.0  0.62852  0.92429  0.27096  1.0000
  H   H2640     1.0  0.55107  0.80707  0.28102  1.0000
  C   C2198     1.0  0.65981  0.91705  0.01809  1.0000
  H   H2641     1.0  0.52648  0.75942  0.08639  1.0000
  C   C2199     1.0  0.54041  0.81942  0.28402  1.0000
  Fe  Fe291     1.0  0.50539  0.90857  0.26627  1.0000
  C   C2200     1.0  0.61606  0.93847  0.31526  1.0000
  C   C2201     1.0  0.60773  0.91170  0.29119  1.0000
  H   H2642     1.0  0.60499  0.90209  0.28092  1.0000
  S   S582      1.0  0.99372  0.99035  0.03157  1.0000
  H   H2643     1.0  0.50703  0.80748  0.15302  1.0000
  C   C2202     1.0  0.50892  0.83092  0.29685  1.0000
  C   C2203     1.0  0.67656  0.96766  0.05992  1.0000
  S   S583      1.0  0.51209  0.84268  0.24195  1.0000
  H   H2644     1.0  0.54887  0.78302  0.30436  1.0000
  C   C2204     1.0  0.51454  0.79914  0.28688  1.0000
  H   H2645     1.0  0.56042  0.84448  0.31593  1.0000
  H   H2646     1.0  0.98777  0.93634  0.03101  1.0000
  N   N150      1.0  0.58234  0.89948  0.31607  1.0000
  H   H2647     1.0  0.56552  0.87899  0.30620  1.0000
  H   H2648     1.0  0.50985  0.79135  0.19961  1.0000
  H   H2649     1.0  0.65121  0.93252  0.04926  1.0000
  C   C2205     1.0  0.55735  0.84402  0.33111  1.0000
  H   H2650     1.0  0.67712  0.97708  0.07111  1.0000
  C   C2206     1.0  0.69383  0.91881  0.01259  1.0000
  H   H2651     1.0  0.54776  0.82987  0.29086  1.0000
  H   H2652     1.0  0.51752  0.95462  0.20563  1.0000
  C   C2207     1.0  0.51648  0.97770  0.25680  1.0000
  H   H2653     1.0  0.66169  0.90725  0.03095  1.0000
  H   H2654     1.0  0.70013  0.97900  0.04259  1.0000
  H   H2655     1.0  0.63549  0.94827  0.29209  1.0000
  H   H2656     1.0  0.57281  0.89692  0.28855  1.0000
  C   C2208     1.0  0.99472  0.99728  0.31586  1.0000
  C   C2209     1.0  0.60244  0.92570  0.32148  1.0000
  H   H2657     1.0  0.51280  0.85928  0.18667  1.0000
  H   H2658     1.0  0.53662  0.82606  0.26995  1.0000
  H   H2659     1.0  0.99980  0.77504  0.29998  1.0000
  H   H2660     1.0  0.50976  0.80474  0.27279  1.0000
  H   H2661     1.0  0.52486  0.78645  0.28421  1.0000
  C   C2210     1.0  0.73475  0.99959  0.02129  1.0000
  H   H2662     1.0  0.50996  0.77842  0.07825  1.0000
  C   C2211     1.0  0.52134  0.81461  0.33208  1.0000
  H   H2663     1.0  0.60231  0.87743  0.32754  1.0000
  C   C2212     1.0  0.58882  0.88629  0.33197  1.0000
  H   H2664     1.0  0.51119  0.82717  0.33234  1.0000
  C   C2213     1.0  0.71076  0.99438  0.00004  1.0000
  C   C2214     1.0  0.99786  0.94094  0.01885  1.0000
  H   H2665     1.0  0.54140  0.75674  0.05198  1.0000
  H   H2666     1.0  0.99809  0.77540  0.14494  1.0000
  H   H2667     1.0  0.52264  0.94899  0.24849  1.0000
  H   H2668     1.0  0.96555  0.93240  0.01064  1.0000
  S   S584      1.0  0.50302  0.75752  0.16370  1.0000
  H   H2669     1.0  0.69416  0.90871  0.00131  1.0000
  N   N151      1.0  0.51199  0.75307  0.06261  1.0000
  H   H2670     1.0  0.99281  0.75410  0.27629  1.0000
  H   H2671     1.0  0.00220  0.78323  0.11067  1.0000
  H   H2672     1.0  0.69640  0.77592  0.99989  1.0000
  H   H2673     1.0  0.69333  0.80117  0.99957  1.0000
  H   H2674     1.0  0.71714  0.78901  0.99945  1.0000
  C   C2215     1.0  0.74412  0.97474  0.49267  1.0000
  C   C2216     1.0  0.93770  0.76597  0.44704  1.0000
  S   S585      1.0  0.82965  0.77155  0.50774  1.0000
  H   H2675     1.0  0.50355  0.86363  0.60779  1.0000
  H   H2676     1.0  0.99181  0.92419  0.36189  1.0000
  S   S586      1.0  0.96688  0.80538  0.62809  1.0000
  H   H2677     1.0  0.95832  0.75717  0.47976  1.0000
  H   H2678     1.0  0.96191  0.84741  0.65528  1.0000
  Fe  Fe292     1.0  0.95194  0.77942  0.62418  1.0000
  S   S587      1.0  0.92676  0.77993  0.60604  1.0000
  H   H2679     1.0  0.92581  0.90023  0.66186  1.0000
  H   H2680     1.0  0.87595  0.99561  0.65859  1.0000
  S   S588      1.0  0.75532  0.98301  0.61652  1.0000
  Fe  Fe293     1.0  0.77853  0.00178  0.61968  1.0000
  H   H2681     1.0  0.98102  0.76113  0.55090  1.0000
  H   H2682     1.0  0.59164  0.89398  0.34428  1.0000
  Fe  Fe294     1.0  0.77805  0.95862  0.61968  1.0000
  S   S589      1.0  0.78602  0.93553  0.59885  1.0000
  Fe  Fe295     1.0  0.75083  0.98121  0.64852  1.0000
  S   S590      1.0  0.80174  0.97736  0.62137  1.0000
  Fe  Fe296     1.0  0.71629  0.86837  0.49107  1.0000
  S   S591      1.0  0.73752  0.87269  0.46560  1.0000
  S   S592      1.0  0.68694  0.85618  0.49430  1.0000
  Fe  Fe297     1.0  0.73783  0.89248  0.51534  1.0000
  S   S593      1.0  0.76027  0.89860  0.49158  1.0000
  S   S594      1.0  0.73132  0.90741  0.54271  1.0000
  Fe  Fe298     1.0  0.73612  0.90333  0.47272  1.0000
  S   S595      1.0  0.72722  0.92856  0.45245  1.0000
  Fe  Fe299     1.0  0.76022  0.86739  0.48642  1.0000
  S   S596      1.0  0.78979  0.85220  0.47817  1.0000
  S   S597      1.0  0.71368  0.89926  0.49682  1.0000
  S   S598      1.0  0.73913  0.86099  0.51164  1.0000
  Fe  Fe300     1.0  0.58455  0.77279  0.43820  1.0000
  S   S599      1.0  0.55804  0.78874  0.42739  1.0000
  H   H2683     1.0  0.78881  0.82851  0.53729  1.0000
  Fe  Fe301     1.0  0.60390  0.80979  0.44065  1.0000
  S   S600      1.0  0.57808  0.82825  0.43048  1.0000
  S   S601      1.0  0.63379  0.82048  0.44058  1.0000
  Fe  Fe302     1.0  0.56012  0.80865  0.45020  1.0000
  S   S602      1.0  0.53088  0.81775  0.46614  1.0000
  Fe  Fe303     1.0  0.57775  0.80689  0.40873  1.0000
  S   S603      1.0  0.57751  0.81202  0.37648  1.0000
  S   S604      1.0  0.58596  0.79188  0.46192  1.0000
  S   S605      1.0  0.60424  0.78920  0.41795  1.0000
  C   C2217     1.0  0.51989  0.81207  0.48933  1.0000
  C   C2218     1.0  0.53049  0.80443  0.50430  1.0000
  C   C2219     1.0  0.52102  0.79984  0.52229  1.0000
  S   S606      1.0  0.97920  0.75992  0.62132  1.0000
  H   H2684     1.0  0.51236  0.78067  0.46841  1.0000
  H   H2685     1.0  0.54600  0.80211  0.50205  1.0000
  H   H2686     1.0  0.56583  0.91821  0.33572  1.0000
  C   C2220     1.0  0.75476  0.97616  0.52486  1.0000
  C   C2221     1.0  0.67277  0.84541  0.47934  1.0000
  C   C2222     1.0  0.65399  0.84143  0.48626  1.0000
  C   C2223     1.0  0.64198  0.83339  0.47486  1.0000
  C   C2224     1.0  0.64857  0.82935  0.45627  1.0000
  C   C2225     1.0  0.66742  0.83311  0.44944  1.0000
  C   C2226     1.0  0.67950  0.84093  0.46090  1.0000
  H   H2687     1.0  0.64866  0.84466  0.50054  1.0000
  H   H2688     1.0  0.62756  0.83057  0.48035  1.0000
  H   H2689     1.0  0.67272  0.82993  0.43514  1.0000
  H   H2690     1.0  0.69404  0.84332  0.45548  1.0000
  H   H2691     1.0  0.54664  0.78678  0.36417  1.0000
  C   C2227     1.0  0.53861  0.85533  0.35901  1.0000
  C   C2228     1.0  0.54958  0.84230  0.37070  1.0000
  C   C2229     1.0  0.56432  0.82984  0.36264  1.0000
  C   C2230     1.0  0.56825  0.83091  0.34280  1.0000
  H   H2692     1.0  0.52702  0.86467  0.36541  1.0000
  H   H2693     1.0  0.54637  0.84161  0.38592  1.0000
  C   C2231     1.0  0.96152  0.75386  0.41533  1.0000
  C   C2232     1.0  0.77073  0.92895  0.58262  1.0000
  C   C2233     1.0  0.75076  0.93252  0.58552  1.0000
  C   C2234     1.0  0.73897  0.92581  0.57310  1.0000
  C   C2235     1.0  0.74700  0.91570  0.55754  1.0000
  C   C2236     1.0  0.76701  0.91263  0.55427  1.0000
  C   C2237     1.0  0.77881  0.91915  0.56685  1.0000
  H   H2694     1.0  0.74438  0.94001  0.59762  1.0000
  H   H2695     1.0  0.72350  0.92830  0.57569  1.0000
  H   H2696     1.0  0.77336  0.90482  0.54239  1.0000
  H   H2697     1.0  0.79427  0.91630  0.56457  1.0000
  C   C2238     1.0  0.75710  0.99588  0.52090  1.0000
  C   C2239     1.0  0.80318  0.83164  0.54084  1.0000
  S   S607      1.0  0.77258  0.00195  0.65146  1.0000
  C   C2240     1.0  0.54509  0.76065  0.47592  1.0000
  H   H2698     1.0  0.54110  0.77256  0.48520  1.0000
  C   C2241     1.0  0.54230  0.85615  0.33918  1.0000
  H   H2699     1.0  0.50936  0.77232  0.49931  1.0000
  C   C2242     1.0  0.81868  0.79372  0.49874  1.0000
  C   C2243     1.0  0.82844  0.80579  0.48549  1.0000
  C   C2244     1.0  0.81926  0.82352  0.47919  1.0000
  C   C2245     1.0  0.80021  0.82932  0.48592  1.0000
  C   C2246     1.0  0.79032  0.81711  0.49894  1.0000
  C   C2247     1.0  0.79956  0.79945  0.50538  1.0000
  H   H2700     1.0  0.84312  0.80154  0.48023  1.0000
  H   H2701     1.0  0.82702  0.83284  0.46907  1.0000
  H   H2702     1.0  0.77562  0.82133  0.50413  1.0000
  H   H2703     1.0  0.79186  0.79019  0.51561  1.0000
  H   H2704     1.0  0.55398  0.85491  0.56092  1.0000
  H   H2705     1.0  0.85927  0.94731  0.62674  1.0000
  C   C2248     1.0  0.50815  0.75719  0.50112  1.0000
  H   H2706     1.0  0.95496  0.75444  0.58456  1.0000
  H   H2707     1.0  0.76998  0.97195  0.56971  1.0000
  C   C2249     1.0  0.74147  0.94718  0.44378  1.0000
  C   C2250     1.0  0.76015  0.94776  0.44886  1.0000
  C   C2251     1.0  0.77094  0.96288  0.44155  1.0000
  C   C2252     1.0  0.76319  0.97747  0.42907  1.0000
  C   C2253     1.0  0.74447  0.97695  0.42413  1.0000
  C   C2254     1.0  0.73367  0.96188  0.43148  1.0000
  H   H2708     1.0  0.76636  0.93646  0.45821  1.0000
  H   H2709     1.0  0.78543  0.96316  0.44541  1.0000
  S   S608      1.0  0.77737  0.99600  0.41987  1.0000
  H   H2710     1.0  0.71924  0.96155  0.42747  1.0000
  H   H2711     1.0  0.79395  0.76612  0.48454  1.0000
  H   H2712     1.0  0.99965  0.93952  0.34174  1.0000
  H   H2713     1.0  0.81574  0.98808  0.35226  1.0000
  H   H2714     1.0  0.83489  0.84927  0.53256  1.0000
  N   N152      1.0  0.67651  0.90118  0.44733  1.0000
  C   C2255     1.0  0.67760  0.91735  0.43273  1.0000
  C   C2256     1.0  0.67581  0.90910  0.46614  1.0000
  C   C2257     1.0  0.69446  0.88828  0.44500  1.0000
  C   C2258     1.0  0.65978  0.89064  0.44507  1.0000
  C   C2259     1.0  0.64516  0.88743  0.45996  1.0000
  C   C2260     1.0  0.65788  0.88300  0.42755  1.0000
  C   C2261     1.0  0.62948  0.87758  0.45721  1.0000
  C   C2262     1.0  0.64225  0.87298  0.42505  1.0000
  C   C2263     1.0  0.62802  0.87040  0.43981  1.0000
  H   H2715     1.0  0.66393  0.92687  0.43332  1.0000
  H   H2716     1.0  0.68950  0.92613  0.43471  1.0000
  H   H2717     1.0  0.68055  0.91253  0.41817  1.0000
  H   H2718     1.0  0.67628  0.89754  0.47779  1.0000
  H   H2719     1.0  0.66269  0.91905  0.46887  1.0000
  H   H2720     1.0  0.68840  0.91722  0.46722  1.0000
  H   H2721     1.0  0.69630  0.88160  0.43127  1.0000
  H   H2722     1.0  0.70739  0.89601  0.44568  1.0000
  H   H2723     1.0  0.69473  0.87659  0.45642  1.0000
  H   H2724     1.0  0.64574  0.89186  0.47405  1.0000
  H   H2725     1.0  0.66871  0.88430  0.41577  1.0000
  H   H2726     1.0  0.61881  0.87474  0.46889  1.0000
  H   H2727     1.0  0.64141  0.86658  0.41184  1.0000
  H   H2728     1.0  0.61630  0.86201  0.43803  1.0000
  C   C2264     1.0  0.99477  0.75962  0.54246  1.0000
  H   H2729     1.0  0.84242  0.99010  0.65345  1.0000
  C   C2265     1.0  0.82044  0.98015  0.36541  1.0000
  C   C2266     1.0  0.96797  0.76659  0.42679  1.0000
  S   S609      1.0  0.99168  0.77820  0.65903  1.0000
  H   H2730     1.0  0.80715  0.97476  0.37293  1.0000
  C   C2267     1.0  0.79047  0.85984  0.55684  1.0000
  N   N153      1.0  0.74772  0.96432  0.51119  1.0000
  S   S610      1.0  0.88925  0.76383  0.49282  1.0000
  H   H2731     1.0  0.55967  0.77116  0.33518  1.0000
  Fe  Fe304     1.0  0.85870  0.75556  0.49841  1.0000
  H   H2732     1.0  0.71815  0.96886  0.52250  1.0000
  H   H2733     1.0  0.81094  0.85767  0.51142  1.0000
  C   C2268     1.0  0.54132  0.79178  0.35064  1.0000
  H   H2734     1.0  0.81082  0.86972  0.57474  1.0000
  H   H2735     1.0  0.73286  0.98691  0.49432  1.0000
  H   H2736     1.0  0.73106  0.94810  0.53282  1.0000
  C   C2269     1.0  0.80011  0.86220  0.52313  1.0000
  C   C2270     1.0  0.53418  0.84902  0.54147  1.0000
  H   H2737     1.0  0.72379  0.94772  0.50962  1.0000
  H   H2738     1.0  0.51160  0.84247  0.52546  1.0000
  H   H2739     1.0  0.84176  0.96814  0.39442  1.0000
  C   C2271     1.0  0.72940  0.95700  0.51936  1.0000
  H   H2740     1.0  0.91453  0.91368  0.64315  1.0000
  H   H2741     1.0  0.76515  0.85282  0.54424  1.0000
  H   H2742     1.0  0.82353  0.77292  0.42973  1.0000
  H   H2743     1.0  0.89733  0.78050  0.58074  1.0000
  C   C2272     1.0  0.88007  0.92224  0.66420  1.0000
  C   C2273     1.0  0.79601  0.86827  0.57274  1.0000
  C   C2274     1.0  0.87832  0.93292  0.64655  1.0000
  C   C2275     1.0  0.76274  0.87481  0.58495  1.0000
  H   H2744     1.0  0.54463  0.84966  0.52922  1.0000
  C   C2276     1.0  0.83176  0.98131  0.39597  1.0000
  H   H2745     1.0  0.99683  0.85383  0.35160  1.0000
  C   C2277     1.0  0.50686  0.84659  0.57357  1.0000
  C   C2278     1.0  0.82478  0.85496  0.54431  1.0000
  H   H2746     1.0  0.78603  0.85907  0.51880  1.0000
  H   H2747     1.0  0.89084  0.93713  0.63781  1.0000
  C   C2279     1.0  0.76207  0.94786  0.50732  1.0000
  H   H2748     1.0  0.75751  0.98007  0.48536  1.0000
  H   H2749     1.0  0.74162  0.86642  0.56817  1.0000
  H   H2750     1.0  0.53106  0.85301  0.58866  1.0000
  H   H2751     1.0  0.98290  0.77104  0.51670  1.0000
  C   C2280     1.0  0.90946  0.77121  0.57523  1.0000
  C   C2281     1.0  0.53939  0.85193  0.55935  1.0000
  H   H2752     1.0  0.82965  0.93936  0.64607  1.0000
  H   H2753     1.0  0.83690  0.99009  0.40640  1.0000
  Fe  Fe305     1.0  0.99394  0.78513  0.62752  1.0000
  N   N154      1.0  0.82964  0.99220  0.37739  1.0000
  C   C2282     1.0  0.76843  0.99792  0.55177  1.0000
  C   C2283     1.0  0.95588  0.77277  0.44251  1.0000
  H   H2754     1.0  0.79974  0.87794  0.52346  1.0000
  H   H2755     1.0  0.91038  0.94333  0.66033  1.0000
  C   C2284     1.0  0.75952  0.96796  0.54288  1.0000
  H   H2756     1.0  0.73834  0.98807  0.41453  1.0000
  H   H2757     1.0  0.57779  0.87639  0.33728  1.0000
  H   H2758     1.0  0.89486  0.76366  0.55184  1.0000
  H   H2759     1.0  0.52351  0.77326  0.44658  1.0000
  C   C2285     1.0  0.80196  0.75918  0.47288  1.0000
  C   C2286     1.0  0.52752  0.80734  0.34958  1.0000
  C   C2287     1.0  0.84361  0.93429  0.65086  1.0000
  H   H2760     1.0  0.96264  0.88211  0.65823  1.0000
  H   H2761     1.0  0.55400  0.76647  0.46346  1.0000
  Fe  Fe306     1.0  0.96368  0.79702  0.65928  1.0000
  Fe  Fe307     1.0  0.97446  0.75458  0.65316  1.0000
  H   H2762     1.0  0.75811  0.95311  0.54693  1.0000
  C   C2288     1.0  0.86546  0.99600  0.37658  1.0000
  C   C2289     1.0  0.76627  0.97867  0.55608  1.0000
  S   S611      1.0  0.94629  0.77268  0.65563  1.0000
  H   H2763     1.0  0.81382  0.82539  0.52978  1.0000
  H   H2764     1.0  0.82693  0.87032  0.54455  1.0000
  H   H2765     1.0  0.80590  0.82374  0.55465  1.0000
  H   H2766     1.0  0.92855  0.77082  0.45918  1.0000
  C   C2290     1.0  0.86034  0.93882  0.64004  1.0000
  C   C2291     1.0  0.51554  0.84502  0.53936  1.0000
  H   H2767     1.0  0.75795  0.93954  0.49596  1.0000
  S   S612      1.0  0.99141  0.77423  0.42309  1.0000
  H   H2768     1.0  0.78669  0.88259  0.59822  1.0000
  H   H2769     1.0  0.73886  0.96538  0.48277  1.0000
  H   H2770     1.0  0.82940  0.84721  0.55761  1.0000
  H   H2771     1.0  0.96068  0.78279  0.45131  1.0000
  H   H2772     1.0  0.83043  0.96762  0.36125  1.0000
  C   C2292     1.0  0.90800  0.76166  0.55886  1.0000
  C   C2293     1.0  0.51599  0.76790  0.46015  1.0000
  C   C2294     1.0  0.78225  0.87560  0.58654  1.0000
  H   H2773     1.0  0.52216  0.81432  0.36234  1.0000
  C   C2295     1.0  0.80777  0.77111  0.45719  1.0000
  C   C2296     1.0  0.84801  0.99793  0.36765  1.0000
  C   C2297     1.0  0.52600  0.85078  0.57524  1.0000
  H   H2774     1.0  0.77652  0.95264  0.50270  1.0000
  H   H2775     1.0  0.81769  0.97684  0.40263  1.0000
  H   H2776     1.0  0.52940  0.79393  0.53373  1.0000
  H   H2777     1.0  0.76350  0.93760  0.51991  1.0000
  H   H2778     1.0  0.75213  0.88118  0.59529  1.0000
  S   S613      1.0  0.77181  0.95506  0.65143  1.0000
  Fe  Fe308     1.0  0.79407  0.97580  0.65280  1.0000
  N   N155      1.0  0.80451  0.85235  0.54165  1.0000
  C   C2298     1.0  0.77047  0.85900  0.55587  1.0000
  H   H2779     1.0  0.99745  0.84413  0.64892  1.0000
  C   C2299     1.0  0.75686  0.86651  0.56966  1.0000
  C   C2300     1.0  0.92637  0.76872  0.58463  1.0000
  C   C2301     1.0  0.91150  0.90530  0.65679  1.0000
  S   S614      1.0  0.71957  0.98638  0.66121  1.0000
  H   H2780     1.0  0.51160  0.83856  0.61215  1.0000
  C   C2302     1.0  0.99580  0.76525  0.52320  1.0000
  H   H2781     1.0  0.99796  0.88644  0.33762  1.0000
  H   H2782     1.0  0.69483  0.91747  0.66367  1.0000
  H   H2783     1.0  0.80413  0.78640  0.45729  1.0000
  H   H2784     1.0  0.99163  0.82048  0.65659  1.0000
  H   H2785     1.0  0.59561  0.92666  0.33568  1.0000
  C   C2303     1.0  0.54875  0.78312  0.33425  1.0000
  C   C2304     1.0  0.99931  0.92434  0.34736  1.0000
  C   C2305     1.0  0.94190  0.75657  0.57743  1.0000
  C   C2306     1.0  0.93134  0.75305  0.43574  1.0000
  H   H2786     1.0  0.99025  0.91791  0.33811  1.0000
  H   H2787     1.0  0.57957  0.82126  0.33644  1.0000
  H   H2788     1.0  0.90456  0.89252  0.65385  1.0000
  H   H2789     1.0  0.86646  0.98968  0.39081  1.0000
  H   H2790     1.0  0.93742  0.99494  0.66572  1.0000
  C   C2307     1.0  0.81874  0.76355  0.44169  1.0000
  H   H2791     1.0  0.89531  0.00158  0.37451  1.0000
  C   C2308     1.0  0.84900  0.98334  0.66572  1.0000
  C   C2309     1.0  0.88225  0.00272  0.36735  1.0000
  Fe  Fe309     1.0  0.92415  0.91261  0.92015  1.0000
  S   S615      1.0  0.93033  0.88503  0.90584  1.0000
  S   S616      1.0  0.95036  0.92422  0.93011  1.0000
  Fe  Fe310     1.0  0.88114  0.91488  0.91432  1.0000
  S   S617      1.0  0.88420  0.88750  0.89990  1.0000
  S   S618      1.0  0.85338  0.93439  0.91935  1.0000
  Fe  Fe311     1.0  0.90361  0.87611  0.92251  1.0000
  S   S619      1.0  0.90102  0.84839  0.94090  1.0000
  Fe  Fe312     1.0  0.91077  0.89864  0.88416  1.0000
  S   S620      1.0  0.91778  0.89288  0.85301  1.0000
  S   S621      1.0  0.89853  0.90286  0.93830  1.0000
  S   S622      1.0  0.90658  0.92687  0.89714  1.0000
  C   C2310     1.0  0.73976  0.82333  0.94613  1.0000
  H   H2792     1.0  0.50417  0.77232  0.93412  1.0000
  S   S623      1.0  0.52861  0.76938  0.89760  1.0000
  Fe  Fe313     1.0  0.96137  0.96562  0.72145  1.0000
  S   S624      1.0  0.93202  0.97666  0.73365  1.0000
  S   S625      1.0  0.98978  0.97982  0.71762  1.0000
  Fe  Fe314     1.0  0.94625  0.92790  0.71136  1.0000
  S   S626      1.0  0.91593  0.93654  0.72358  1.0000
  S   S627      1.0  0.95502  0.90578  0.68936  1.0000
  Fe  Fe315     1.0  0.91987  0.96541  0.70899  1.0000
  S   S628      1.0  0.90069  0.98245  0.68802  1.0000
  Fe  Fe316     1.0  0.93023  0.94695  0.74762  1.0000
  S   S629      1.0  0.91758  0.94919  0.77833  1.0000
  S   S630      1.0  0.94942  0.95654  0.69582  1.0000
  S   S631      1.0  0.96038  0.93629  0.73641  1.0000
  C   C2311     1.0  0.95330  0.82920  0.94593  1.0000
  S   S632      1.0  0.52157  0.91787  0.72710  1.0000
  H   H2793     1.0  0.54961  0.83352  0.83758  1.0000
  Fe  Fe317     1.0  0.65186  0.97143  0.75834  1.0000
  S   S633      1.0  0.68167  0.96231  0.74407  1.0000
  Fe  Fe318     1.0  0.61212  0.95568  0.76906  1.0000
  S   S634      1.0  0.60280  0.97798  0.78966  1.0000
  S   S635      1.0  0.59667  0.92920  0.76697  1.0000
  Fe  Fe319     1.0  0.63280  0.97273  0.79943  1.0000
  S   S636      1.0  0.63719  0.96253  0.83031  1.0000
  S   S637      1.0  0.62349  0.97596  0.74579  1.0000
  S   S638      1.0  0.64112  0.94928  0.78005  1.0000
  C   C2312     1.0  0.79268  0.90406  0.97443  1.0000
  Fe  Fe320     1.0  0.63531  0.79621  0.96621  1.0000
  S   S639      1.0  0.64436  0.76676  0.95626  1.0000
  S   S640      1.0  0.64797  0.82089  0.94777  1.0000
  H   H2794     1.0  0.70714  0.85617  0.96630  1.0000
  H   H2795     1.0  0.73008  0.76996  0.97179  1.0000
  S   S641      1.0  0.60396  0.79073  0.97122  1.0000
  S   S642      1.0  0.64523  0.99493  0.77833  1.0000
  Fe  Fe321     1.0  0.73820  0.92977  0.93819  1.0000
  S   S643      1.0  0.72165  0.92843  0.96704  1.0000
  S   S644      1.0  0.76708  0.91211  0.93244  1.0000
  Fe  Fe322     1.0  0.70408  0.95123  0.91927  1.0000
  S   S645      1.0  0.68523  0.95109  0.94679  1.0000
  S   S646      1.0  0.69774  0.96802  0.89119  1.0000
  Fe  Fe323     1.0  0.71085  0.95916  0.96032  1.0000
  S   S647      1.0  0.70269  0.98298  0.98105  1.0000
  Fe  Fe324     1.0  0.69719  0.92037  0.95188  1.0000
  S   S648      1.0  0.67990  0.89764  0.96877  1.0000
  S   S649      1.0  0.72916  0.96104  0.93239  1.0000
  S   S650      1.0  0.71430  0.91998  0.92340  1.0000
  S   S651      1.0  0.93431  0.76637  0.91485  1.0000
  H   H2796     1.0  0.50440  0.79749  0.87846  1.0000
  H   H2797     1.0  0.81097  0.85829  0.97163  1.0000
  H   H2798     1.0  0.67828  0.77802  0.97062  1.0000
  H   H2799     1.0  0.51401  0.80177  0.80222  1.0000
  H   H2800     1.0  0.54659  0.85865  0.81212  1.0000
  H   H2801     1.0  0.97292  0.75893  0.93439  1.0000
  C   C2313     1.0  0.96906  0.79846  0.93782  1.0000
  C   C2314     1.0  0.65685  0.84209  0.95400  1.0000
  C   C2315     1.0  0.66607  0.85381  0.93972  1.0000
  C   C2316     1.0  0.67321  0.87082  0.94390  1.0000
  C   C2317     1.0  0.67112  0.87641  0.96248  1.0000
  C   C2318     1.0  0.66202  0.86461  0.97679  1.0000
  C   C2319     1.0  0.65496  0.84756  0.97262  1.0000
  H   H2802     1.0  0.66762  0.84975  0.92527  1.0000
  H   H2803     1.0  0.68019  0.87965  0.93272  1.0000
  C   C2320     1.0  0.94827  0.82162  0.96420  1.0000
  C   C2321     1.0  0.53206  0.79847  0.84980  1.0000
  C   C2322     1.0  0.65424  0.96439  0.84698  1.0000
  C   C2323     1.0  0.66747  0.97810  0.84458  1.0000
  C   C2324     1.0  0.68049  0.97906  0.85833  1.0000
  C   C2325     1.0  0.68050  0.96640  0.87468  1.0000
  C   C2326     1.0  0.66723  0.95275  0.87711  1.0000
  C   C2327     1.0  0.65418  0.95181  0.86337  1.0000
  H   H2804     1.0  0.66745  0.98820  0.83234  1.0000
  C   C2328     1.0  0.68049  0.93338  0.68631  1.0000
  H   H2805     1.0  0.66703  0.94291  0.88957  1.0000
  H   H2806     1.0  0.64394  0.94124  0.86549  1.0000
  H   H2807     1.0  0.83573  0.90039  0.91177  1.0000
  H   H2808     1.0  0.90008  0.94254  0.68431  1.0000
  C   C2329     1.0  0.71403  0.84230  0.96279  1.0000
  C   C2330     1.0  0.53532  0.83883  0.83403  1.0000
  C   C2331     1.0  0.54236  0.92082  0.73840  1.0000
  C   C2332     1.0  0.55152  0.93764  0.73413  1.0000
  C   C2333     1.0  0.56788  0.94071  0.74310  1.0000
  C   C2334     1.0  0.57541  0.92680  0.75619  1.0000
  C   C2335     1.0  0.56630  0.90998  0.76037  1.0000
  C   C2336     1.0  0.54975  0.90706  0.75168  1.0000
  H   H2809     1.0  0.54589  0.94837  0.72386  1.0000
  H   H2810     1.0  0.57479  0.95370  0.73969  1.0000
  H   H2811     1.0  0.57208  0.89910  0.77042  1.0000
  H   H2812     1.0  0.54286  0.89405  0.75506  1.0000
  H   H2813     1.0  0.93131  0.75501  0.85290  1.0000
  C   C2337     1.0  0.70965  0.98016  0.68462  1.0000
  C   C2338     1.0  0.72007  0.96845  0.69759  1.0000
  C   C2339     1.0  0.71133  0.96329  0.71575  1.0000
  C   C2340     1.0  0.69216  0.96993  0.72126  1.0000
  H   H2814     1.0  0.68995  0.94472  0.68384  1.0000
  H   H2815     1.0  0.71951  0.95406  0.72555  1.0000
  C   C2341     1.0  0.84728  0.96304  0.69468  1.0000
  C   C2342     1.0  0.86634  0.96594  0.69753  1.0000
  C   C2343     1.0  0.87679  0.97782  0.68464  1.0000
  H   H2816     1.0  0.83925  0.95405  0.70491  1.0000
  H   H2817     1.0  0.87279  0.95928  0.70992  1.0000
  C   C2344     1.0  0.70567  0.82576  0.96986  1.0000
  C   C2345     1.0  0.95429  0.88084  0.68827  1.0000
  C   C2346     1.0  0.94938  0.86881  0.70419  1.0000
  C   C2347     1.0  0.94944  0.84905  0.70252  1.0000
  H   H2818     1.0  0.94585  0.87465  0.71783  1.0000
  H   H2819     1.0  0.94594  0.83981  0.71499  1.0000
  C   C2348     1.0  0.95148  0.93914  0.94877  1.0000
  C   C2349     1.0  0.93509  0.94578  0.96006  1.0000
  C   C2350     1.0  0.93675  0.95772  0.97467  1.0000
  C   C2351     1.0  0.95475  0.96309  0.97815  1.0000
  C   C2352     1.0  0.97111  0.95640  0.96691  1.0000
  C   C2353     1.0  0.96947  0.94454  0.95229  1.0000
  H   H2820     1.0  0.92116  0.94175  0.95750  1.0000
  C   C2354     1.0  0.68326  0.91803  0.67495  1.0000
  H   H2821     1.0  0.98502  0.96015  0.96969  1.0000
  H   H2822     1.0  0.98222  0.93938  0.94368  1.0000
  C   C2355     1.0  0.91970  0.90916  0.83267  1.0000
  C   C2356     1.0  0.92569  0.90204  0.81491  1.0000
  C   C2357     1.0  0.92606  0.91421  0.79818  1.0000
  C   C2358     1.0  0.92002  0.93362  0.79902  1.0000
  C   C2359     1.0  0.91436  0.94079  0.81683  1.0000
  C   C2360     1.0  0.91444  0.92870  0.83359  1.0000
  H   H2823     1.0  0.92985  0.88695  0.81405  1.0000
  H   H2824     1.0  0.93038  0.90848  0.78461  1.0000
  H   H2825     1.0  0.90964  0.95577  0.81761  1.0000
  H   H2826     1.0  0.91010  0.93445  0.84713  1.0000
  C   C2361     1.0  0.90942  0.82563  0.93296  1.0000
  C   C2362     1.0  0.90625  0.80929  0.94503  1.0000
  C   C2363     1.0  0.91336  0.79100  0.93954  1.0000
  C   C2364     1.0  0.92394  0.78891  0.92199  1.0000
  C   C2365     1.0  0.92691  0.80524  0.90985  1.0000
  C   C2366     1.0  0.91961  0.82352  0.91525  1.0000
  H   H2827     1.0  0.89836  0.81077  0.95874  1.0000
  H   H2828     1.0  0.91072  0.77856  0.94892  1.0000
  H   H2829     1.0  0.93504  0.80377  0.89624  1.0000
  H   H2830     1.0  0.92217  0.83596  0.90582  1.0000
  C   C2367     1.0  0.82922  0.92851  0.92143  1.0000
  C   C2368     1.0  0.81433  0.94211  0.92753  1.0000
  C   C2369     1.0  0.79507  0.93764  0.93028  1.0000
  C   C2370     1.0  0.79058  0.91941  0.92711  1.0000
  C   C2371     1.0  0.80542  0.90604  0.92041  1.0000
  C   C2372     1.0  0.82457  0.91066  0.91728  1.0000
  H   H2831     1.0  0.81773  0.95609  0.93052  1.0000
  H   H2832     1.0  0.78379  0.94809  0.93538  1.0000
  H   H2833     1.0  0.80205  0.89196  0.91775  1.0000
  N   N156      1.0  0.84737  0.87171  0.96168  1.0000
  C   C2373     1.0  0.84715  0.85068  0.96465  1.0000
  C   C2374     1.0  0.85279  0.87634  0.94133  1.0000
  C   C2375     1.0  0.86249  0.87720  0.97286  1.0000
  C   C2376     1.0  0.82865  0.88246  0.96702  1.0000
  C   C2377     1.0  0.81134  0.87352  0.97136  1.0000
  C   C2378     1.0  0.82708  0.90267  0.96658  1.0000
  C   C2379     1.0  0.79366  0.88427  0.97492  1.0000
  C   C2380     1.0  0.80938  0.91322  0.97045  1.0000
  H   H2834     1.0  0.98976  0.98452  0.89797  1.0000
  H   H2835     1.0  0.66407  0.94646  0.70926  1.0000
  H   H2836     1.0  0.86168  0.84314  0.96110  1.0000
  H   H2837     1.0  0.84267  0.84626  0.97966  1.0000
  H   H2838     1.0  0.69063  0.98973  0.85634  1.0000
  H   H2839     1.0  0.86626  0.86795  0.93624  1.0000
  H   H2840     1.0  0.75290  0.82250  0.93674  1.0000
  H   H2841     1.0  0.87651  0.86861  0.96973  1.0000
  H   H2842     1.0  0.86555  0.89227  0.96961  1.0000
  H   H2843     1.0  0.65873  0.95231  0.99867  1.0000
  H   H2844     1.0  0.83752  0.84518  0.95525  1.0000
  H   H2845     1.0  0.83937  0.91059  0.96241  1.0000
  H   H2846     1.0  0.95408  0.89342  0.97160  1.0000
  H   H2847     1.0  0.73067  0.95938  0.85164  1.0000
  Fe  Fe325     1.0  0.61582  0.99827  0.76709  1.0000
  N   N157      1.0  0.63763  0.92077  0.72034  1.0000
  C   C2381     1.0  0.64598  0.92319  0.73830  1.0000
  C   C2382     1.0  0.62372  0.93746  0.71616  1.0000
  C   C2383     1.0  0.62669  0.90371  0.72350  1.0000
  C   C2384     1.0  0.65314  0.91952  0.70468  1.0000
  C   C2385     1.0  0.65626  0.90408  0.69275  1.0000
  C   C2386     1.0  0.66564  0.93420  0.70089  1.0000
  C   C2387     1.0  0.53327  0.98743  0.78944  1.0000
  H   H2848     1.0  0.99848  0.97699  0.94224  1.0000
  C   C2388     1.0  0.83843  0.97174  0.67883  1.0000
  H   H2849     1.0  0.65189  0.93716  0.73832  1.0000
  H   H2850     1.0  0.63505  0.92253  0.75070  1.0000
  H   H2851     1.0  0.65783  0.91188  0.74101  1.0000
  H   H2852     1.0  0.61697  0.93607  0.70287  1.0000
  H   H2853     1.0  0.63061  0.95102  0.71439  1.0000
  H   H2854     1.0  0.61193  0.93908  0.72778  1.0000
  H   H2855     1.0  0.63625  0.89060  0.72700  1.0000
  H   H2856     1.0  0.61536  0.90514  0.73561  1.0000
  H   H2857     1.0  0.61897  0.90160  0.71100  1.0000
  H   H2858     1.0  0.64745  0.89232  0.69442  1.0000
  C   C2389     1.0  0.95121  0.76057  0.96678  1.0000
  H   H2859     1.0  0.73904  0.79341  0.94882  1.0000
  C   C2390     1.0  0.84478  0.92391  0.66826  1.0000
  H   H2860     1.0  0.52403  0.83401  0.87985  1.0000
  H   H2861     1.0  0.55372  0.96534  0.77843  1.0000
  H   H2862     1.0  0.54646  0.82395  0.86874  1.0000
  C   C2391     1.0  0.86803  0.98643  0.66869  1.0000
  H   H2863     1.0  0.68218  0.99573  0.68020  1.0000
  C   C2392     1.0  0.73157  0.80666  0.95320  1.0000
  Fe  Fe326     1.0  0.61356  0.76070  0.96395  1.0000
  H   H2864     1.0  0.69446  0.97719  0.80301  1.0000
  C   C2393     1.0  0.96371  0.81766  0.93281  1.0000
  H   H2865     1.0  0.72202  0.96598  0.81913  1.0000
  H   H2866     1.0  0.96189  0.99198  0.67013  1.0000
  N   N158      1.0  0.85280  0.92632  0.85641  1.0000
  C   C2394     1.0  0.84570  0.90732  0.86143  1.0000
  C   C2395     1.0  0.87036  0.92738  0.86607  1.0000
  C   C2396     1.0  0.83782  0.94084  0.86405  1.0000
  C   C2397     1.0  0.85763  0.92906  0.83569  1.0000
  C   C2398     1.0  0.87029  0.91529  0.82607  1.0000
  C   C2399     1.0  0.85096  0.94571  0.82471  1.0000
  C   C2400     1.0  0.87575  0.91791  0.80669  1.0000
  C   C2401     1.0  0.85679  0.94830  0.80536  1.0000
  C   C2402     1.0  0.86922  0.93448  0.79640  1.0000
  H   H2867     1.0  0.85706  0.89542  0.85885  1.0000
  H   H2868     1.0  0.84067  0.90545  0.87674  1.0000
  H   H2869     1.0  0.83347  0.90532  0.85316  1.0000
  H   H2870     1.0  0.88182  0.91594  0.86219  1.0000
  H   H2871     1.0  0.86735  0.92593  0.88172  1.0000
  H   H2872     1.0  0.87648  0.94124  0.86231  1.0000
  H   H2873     1.0  0.82426  0.94103  0.85709  1.0000
  H   H2874     1.0  0.83413  0.93798  0.87957  1.0000
  H   H2875     1.0  0.84284  0.95535  0.86241  1.0000
  H   H2876     1.0  0.87676  0.90270  0.83357  1.0000
  H   H2877     1.0  0.84156  0.95711  0.83076  1.0000
  H   H2878     1.0  0.67336  0.89153  0.66920  1.0000
  H   H2879     1.0  0.89218  0.89138  0.68829  1.0000
  H   H2880     1.0  0.52198  0.79386  0.99774  1.0000
  H   H2881     1.0  0.55544  0.77875  0.99436  1.0000
  Fe  Fe327     1.0  0.64884  0.75809  0.98665  1.0000
  H   H2882     1.0  0.77885  0.91237  0.97645  1.0000
  C   C2403     1.0  0.67184  0.94209  0.99703  1.0000
  C   C2404     1.0  0.53862  0.97068  0.78044  1.0000
  C   C2405     1.0  0.68698  0.96546  0.79848  1.0000
  C   C2406     1.0  0.95863  0.85323  0.66894  1.0000
  H   H2883     1.0  0.96694  0.82346  0.91839  1.0000
  H   H2884     1.0  0.67315  0.96507  0.80750  1.0000
  H   H2885     1.0  0.97183  0.99741  0.96027  1.0000
  H   H2886     1.0  0.91348  0.90078  0.69381  1.0000
  H   H2887     1.0  0.97637  0.79021  0.92668  1.0000
  H   H2888     1.0  0.55242  0.78962  0.91770  1.0000
  H   H2889     1.0  0.69513  0.91335  0.85999  1.0000
  C   C2407     1.0  0.57238  0.76880  0.93107  1.0000
  H   H2890     1.0  0.99344  0.77541  0.97650  1.0000
  N   N159      1.0  0.70480  0.79017  0.97280  1.0000
  H   H2891     1.0  0.83161  0.92112  0.67689  1.0000
  C   C2408     1.0  0.71645  0.95390  0.82729  1.0000
  H   H2892     1.0  0.70795  0.75942  0.97277  1.0000
  H   H2893     1.0  0.68416  0.93547  0.77852  1.0000
  H   H2894     1.0  0.97161  0.77355  0.99176  1.0000
  C   C2409     1.0  0.69622  0.92786  0.83208  1.0000
  H   H2895     1.0  0.57955  0.77928  0.93727  1.0000
  C   C2410     1.0  0.53377  0.85324  0.81945  1.0000
  H   H2896     1.0  0.69226  0.82751  0.97869  1.0000
  H   H2897     1.0  0.85200  0.96128  0.79727  1.0000
  N   N160      1.0  0.98294  0.00258  0.93112  1.0000
  C   C2411     1.0  0.67115  0.90344  0.67813  1.0000
  H   H2898     1.0  0.89075  0.91288  0.70091  1.0000
  C   C2412     1.0  0.96971  0.99152  0.92244  1.0000
  H   H2899     1.0  0.94500  0.99437  0.94398  1.0000
  C   C2413     1.0  0.71423  0.93537  0.85741  1.0000
  H   H2900     1.0  0.52956  0.94777  0.76717  1.0000
  H   H2901     1.0  0.73482  0.96319  0.69357  1.0000
  H   H2902     1.0  0.85519  0.89163  0.93828  1.0000
  C   C2414     1.0  0.96365  0.97208  0.89690  1.0000
  C   C2415     1.0  0.95415  0.84112  0.68493  1.0000
  C   C2416     1.0  0.98016  0.76789  0.97912  1.0000
  N   N161      1.0  0.52095  0.81519  0.85827  1.0000
  H   H2903     1.0  0.67303  0.93201  0.80195  1.0000
  H   H2904     1.0  0.94217  0.76649  0.97901  1.0000
  C   C2417     1.0  0.53149  0.82098  0.87365  1.0000
  C   C2418     1.0  0.54430  0.77332  0.98728  1.0000
  H   H2905     1.0  0.53304  0.78580  0.86015  1.0000
  C   C2419     1.0  0.95815  0.91300  0.99215  1.0000
  C   C2420     1.0  0.86268  0.91792  0.67493  1.0000
  H   H2906     1.0  0.73722  0.85402  0.94520  1.0000
  C   C2421     1.0  0.51389  0.99426  0.79200  1.0000
  C   C2422     1.0  0.68178  0.98179  0.70836  1.0000
  C   C2423     1.0  0.95370  0.80248  0.96944  1.0000
  H   H2907     1.0  0.53274  0.80954  0.88534  1.0000
  C   C2424     1.0  0.96430  0.79029  0.95641  1.0000
  C   C2425     1.0  0.52545  0.78177  0.98916  1.0000
  H   H2908     1.0  0.71769  0.93304  0.87201  1.0000
  C   C2426     1.0  0.96436  0.89911  0.97955  1.0000
  C   C2427     1.0  0.95079  0.98882  0.93068  1.0000
  H   H2909     1.0  0.84140  0.87308  0.93257  1.0000
  H   H2910     1.0  0.93075  0.00221  0.70027  1.0000
  H   H2911     1.0  0.52526  0.79440  0.83743  1.0000
  H   H2912     1.0  0.71270  0.94957  0.77159  1.0000
  H   H2913     1.0  0.68582  0.91910  0.82802  1.0000
  C   C2428     1.0  0.73099  0.84110  0.95088  1.0000
  H   H2914     1.0  0.68580  0.79336  0.95043  1.0000
  H   H2915     1.0  0.72608  0.93440  0.78828  1.0000
  C   C2429     1.0  0.95889  0.87292  0.67066  1.0000
  N   N162      1.0  0.96919  0.76989  0.96213  1.0000
  H   H2916     1.0  0.72432  0.95994  0.78866  1.0000
  H   H2917     1.0  0.54708  0.80121  0.84484  1.0000
  C   C2430     1.0  0.71543  0.77205  0.96679  1.0000
  N   N163      1.0  0.89931  0.91659  0.67093  1.0000
  C   C2431     1.0  0.70384  0.94263  0.81970  1.0000
  H   H2918     1.0  0.78050  0.87731  0.97753  1.0000
  H   H2919     1.0  0.92400  0.96278  0.98334  1.0000
  H   H2920     1.0  0.98857  0.88207  0.96696  1.0000
  C   C2432     1.0  0.55697  0.77460  0.91998  1.0000
  H   H2921     1.0  0.94847  0.84385  0.94170  1.0000
  H   H2922     1.0  0.66702  0.98699  0.71235  1.0000
  S   S652      1.0  0.64132  0.78780  0.99632  1.0000
  H   H2923     1.0  0.87427  0.93682  0.78157  1.0000
  C   C2433     1.0  0.94530  0.96956  0.90543  1.0000
  C   C2434     1.0  0.51546  0.75936  0.96813  1.0000
  S   S653      1.0  0.81417  0.96768  0.67635  1.0000
  C   C2435     1.0  0.51121  0.77494  0.97976  1.0000
  C   C2436     1.0  0.71416  0.80741  0.96530  1.0000
  H   H2924     1.0  0.64784  0.83878  0.98376  1.0000
  H   H2925     1.0  0.99917  0.85106  0.68162  1.0000
  C   C2437     1.0  0.68534  0.79123  0.96616  1.0000
  H   H2926     1.0  0.51464  0.87095  0.80206  1.0000
  H   H2927     1.0  0.96866  0.96519  0.88401  1.0000
  S   S654      1.0  0.95506  0.81600  0.68392  1.0000
  C   C2438     1.0  0.51880  0.83103  0.84346  1.0000
  H   H2928     1.0  0.67012  0.93314  0.98524  1.0000
  H   H2929     1.0  0.94905  0.79713  0.98361  1.0000
  C   C2439     1.0  0.89876  0.90489  0.68927  1.0000
  H   H2930     1.0  0.66032  0.86872  0.99122  1.0000
  H   H2931     1.0  0.99303  0.82778  0.68925  1.0000
  N   N164      1.0  0.69863  0.94680  0.79999  1.0000
  H   H2932     1.0  0.80846  0.92866  0.96947  1.0000
  H   H2933     1.0  0.68341  0.96949  0.78369  1.0000
  C   C2440     1.0  0.69044  0.98676  0.69012  1.0000
  H   H2934     1.0  0.92327  0.93038  0.67838  1.0000
  C   C2441     1.0  0.70148  0.92431  0.85059  1.0000
  H   H2935     1.0  0.69513  0.91783  0.79468  1.0000
  C   C2442     1.0  0.51579  0.86032  0.81386  1.0000
  H   H2936     1.0  0.94300  0.91800  0.99402  1.0000
  H   H2937     1.0  0.50724  0.95315  0.74284  1.0000
  H   H2938     1.0  0.68408  0.95051  0.99207  1.0000
  C   C2443     1.0  0.71622  0.94768  0.78664  1.0000
  H   H2939     1.0  0.98100  0.98542  0.77817  1.0000
  C   C2444     1.0  0.68728  0.93231  0.79358  1.0000
  H   H2940     1.0  0.54420  0.99504  0.79449  1.0000
  C   C2445     1.0  0.72158  0.95022  0.84584  1.0000
  C   C2446     1.0  0.99131  0.99567  0.77909  1.0000
  H   H2941     1.0  0.88585  0.90743  0.79978  1.0000
  C   C2447     1.0  0.98093  0.75926  0.94715  1.0000
  H   H2942     1.0  0.71649  0.77146  0.95112  1.0000
  C   C2448     1.0  0.54753  0.76115  0.91182  1.0000
  H   H2943     1.0  0.85830  0.87513  0.98832  1.0000
  H   H2944     1.0  0.95611  0.00052  0.70245  1.0000
  C   C2449     1.0  0.50476  0.96699  0.77668  1.0000
  H   H2945     1.0  0.94238  0.76215  0.95449  1.0000
  C   C2450     1.0  0.52464  0.96063  0.77412  1.0000
  H   H2946     1.0  0.67560  0.80316  0.97196  1.0000
  C   C2451     1.0  0.97565  0.98302  0.90514  1.0000
  H   H2947     1.0  0.86244  0.91028  0.68869  1.0000
  S   S655      1.0  0.95628  0.97780  0.99691  1.0000
  S   S656      1.0  0.50954  0.86167  0.72977  1.0000
  H   H2948     1.0  0.93624  0.96058  0.89934  1.0000
  H   H2949     1.0  0.93959  0.83051  0.97413  1.0000
  C   C2452     1.0  0.93881  0.97808  0.92214  1.0000
  H   H2950     1.0  0.92466  0.97569  0.92893  1.0000
  C   C2453     1.0  0.54896  0.75803  0.97598  1.0000
  C   C2454     1.0  0.98383  0.89287  0.97684  1.0000
  H   H2951     1.0  0.99473  0.76554  0.94288  1.0000
  C   C2455     1.0  0.99721  0.90080  0.98643  1.0000
  C   C2456     1.0  0.00123  0.99063  0.93404  1.0000
  C   C2457     1.0  0.70290  0.78908  0.99381  1.0000
  C   C2458     1.0  0.90867  0.93393  0.67353  1.0000
  C   C2459     1.0  0.99147  0.91559  0.99876  1.0000
  Fe  Fe328     1.0  0.50291  0.89310  0.73304  1.0000
  H   H2952     1.0  0.50665  0.92829  0.76907  1.0000
  C   C2460     1.0  0.99783  0.00239  0.72093  1.0000
