data_image0
_chemical_formula_structural       CSHFeSHFe2SCSFeS2FeS2FeSFeS3FeSHFeS2FeSFeS2FeS2FeS2FeSFeS3C6H4C6H4C6H3NC6H6CHCHCH3CH5NH3CH3CH2CHCH2C2HCHCHCHSCH2CHCH2CH5FeCHC2H3CHCHCNHC2H3NC6H12CHSHCH2C5SH3C2HC2NHCHCH2CH2CHC2HCH2SH6SH2S2H3SCHCHC2HFeS2FeS2FeSFeHS2FeS2FeSFeSFeS3C4H3C6H4C3H2C6H4CH3CH2C9H4CHCHC2H3C3H2CH2N2HCH2NC9H14C2H3CHCH2CHC2H3C4H4C2HCHC3HNHCH4CH13C2HS4H2FeS2FeS2FeCFeS3FeS2FeS2FeSFe2S2C6H4FeH6CSHC2HC5H5C4H2FeC6H4C6H5FeHS2HC2H2CH3CHC2NC2H2CH2CH2CHFeHCHC4H3CHC2HCHC2H2CH3SH2C2SC3H2CSFeC2FeH3CSCH2CH2CFeNH2SH8CHCH6CNHCHFeS2FeSCFeSFeS3FeSHFeS2FeSFeS2FeS2FeS2FeSFeS3FeSFeS2FeHFeS3C6H4C6H4C6H4C6H4CH3SH3C4HC2H5CNHCHC3H2CNC9H14NH3C3H3NC9H12CNH2CH6CHCH4NH2C3HCH2C3H3SH3CS2H2CH2CHCHCHC2HC2H2CHCHCHCNHCH2CHCH3CHCSHC2H3C2HCH6NCH3C3H2NCHC2H2CH2CH2C2HC2H3CHFeS3CH2CFeSH3C3SCHCFeSCSFeS2FeS2FeSFeS3FeS2FeS2FeSFeS3C6H7CH2C6H4C3FeCH2C9H6C2H3C2H7CHCHC4HCH2CHCHNCHCHC3HCH7CH2C2HC3H5C3HCH2C2HCNCHC2H2FeH5CHC2H4CHCH3SCH2NH2CHCNCH2CH4C3H2CH2C5H2CHC3HCH3C8HC2H2NHCHCH2NC2H7NSCSH2C3H2NC4HC2H4C2H2FeH2SCHCH2FeS2FeS2FeS2FeCSFeS2FeS2FeSFeS3FeS2FeS2FeSFeS3CH2SCH2CH4CHCHCSH2C2HC6H6SCHC2H3C2HFe2C6H5CH3C2HC7H4NC5H10C2H2CHCHCHSC3HC2FeH2CHCHC5H2SHCHNCFeNCH2CHCH4C2H4NH4CHSH3CSHCHC2H5CHCHC2H3CHCH2CH4CFeS2FeS2FeSFeS3FeS2FeS2FeSFeS3HCH10C6H4C6H4C6H7C3HCH5C3HCH2C6H4C6H4CH4NH4CHCH5C2HCHCNHCHSHCSHCHCHCH3C2H4CH2CHCHCHC3HCHC2H3SH6CHCH2CHC2SHCHCHSFeH2CHCHC2H6CH2CH2CH3CHNC6HCNC2HC3HNCHC3HNCH3C2HC5HC2HC2HC2HFeSCH2CH4C3H3FeS2FeS2FeHFeS3FeS2FeS2FeSFeHS2C6H4C6H4C6H3C6H5CNCHC7H4C3NH2C2NH3CH2CHSH2CH3C2H2C4H3C2H2C3SH3CH5NC2H6SC4HCH5C3NC3FeC2HC3H5CH5CH3CNSH2C2H2C2H3CH2CH3C3SH2CH6NSNHCHCH2CH4CH2SH3CH3CHC2NH2CHCH3SFeS2FeSFeSHSHCSHFeSFeSHSH2SFeSFeS2H3SH2SFeSCHCSC3H4C5NCH4C6H4C2HCHCHC2H3CHCHC4HCH4C3H2CH4C6H5C3HFeC2NH3SHC2HCH2CHC3H2C2SH3SHCNCHC5HNC2H4CHCH2SHSCH3CHC2HSCH4NCFe2CFeHSH2CSH2FeHFeC2H7CNC2NCH4FeC4SCH2CSCHSHC2H2CFeHC5H3C3HCHC2H2C2HC2HC3NH3NCHCHCH2CH3SCHC2H2CH2C2H3CH4SH4C2HCHS2FeS2FeS2FeSFeS3FeS2FeS2FeSFeS3CH2C4HCH2C5HC2HC2HC6H2C8H4C2HCHCHC2HSHCHC6H6CHC6H4CH4SCH4CHC5HC2H2CFeC2HNHSH2FeHC2FeH3NHC2S2CH2CHSC3HCH3CSCH2C2H2FeH4CNH3CSHCH6CNHCH6C3FeHCH3C4H2FeCHSCHCHC3H3C2H2C3HNHC4H3CH4C2H6C4HSCH3C4HCHC2H2NH2C3SH2CHCSCHCH3CH3CHCHNCNH5C4SC2HSHCHCHC2HCH2CSHCFeS2FeS2FeSFeS3FeS2FeS2FeSFeS3C3HC4HC7H4C2HC2H3CHCHC6H5CH4CHCSH6C6H5C3NC5HCHCH3CH6CHCHNC3H8C5H7CHCHNCH3CHCHC2HC3NHCH5C2H2C2HCNH4CHC2H5C3NH3C3H6FeC3H2CHCHC2H2C3HCHC3NC4HFeC3SH4CH3C2HC2H2CSH5C2SCSHCH4NSH2NH2FeS2FeSHFeSFeS3NSHFeSCFeSFeHSCFeS2FeSCFeSFeS3FeS2FeH2FeH2CS2CSH2CHC2H4C6H7NC4SH2CH4C2HCH2C6H4C6H5C5H2C4H2C4HCH2C2H2CHCSCSCH2SC2NC9H15CH2CHC2HCHC2HCNH2FeHC2H2NCH2CH5CHNHCH3CH2CHSCHCHCHCH11C2HC3HC2H
_chemical_formula_sum              "C1200 S320 H1440 Fe160 N80"
_cell_length_a       81.1163
_cell_length_b       81.0446
_cell_length_c       37.5368
_cell_angle_alpha    88.6393
_cell_angle_beta     88.739
_cell_angle_gamma    79.2733

_space_group_name_H-M_alt    "P 1"
_space_group_IT_number       1

loop_
  _space_group_symop_operation_xyz
  'x, y, z'

loop_
  _atom_site_type_symbol
  _atom_site_label
  _atom_site_symmetry_multiplicity
  _atom_site_fract_x
  _atom_site_fract_y
  _atom_site_fract_z
  _atom_site_occupancy
  C   C1        1.0  0.14481  0.11666  0.51328  1.0000
  S   S1        1.0  0.04997  0.21922  0.73717  1.0000
  H   H1        1.0  0.15870  0.00128  0.58987  1.0000
  Fe  Fe1       1.0  0.06563  0.22936  0.64299  1.0000
  S   S2        1.0  0.05864  0.20449  0.65666  1.0000
  H   H2        1.0  0.00390  0.22544  0.47880  1.0000
  Fe  Fe2       1.0  0.03618  0.21955  0.68545  1.0000
  Fe  Fe3       1.0  0.07315  0.20613  0.70663  1.0000
  S   S3        1.0  0.09723  0.18789  0.72314  1.0000
  C   C2        1.0  0.24538  0.08517  0.42061  1.0000
  S   S4        1.0  0.08053  0.23095  0.69198  1.0000
  Fe  Fe4       1.0  0.20153  0.09259  0.70839  1.0000
  S   S5        1.0  0.17989  0.07936  0.72193  1.0000
  S   S6        1.0  0.21870  0.09575  0.75483  1.0000
  Fe  Fe5       1.0  0.19008  0.09849  0.63124  1.0000
  S   S7        1.0  0.16822  0.08545  0.63927  1.0000
  S   S8        1.0  0.19300  0.11071  0.57745  1.0000
  Fe  Fe6       1.0  0.16382  0.10020  0.68988  1.0000
  S   S9        1.0  0.13668  0.11248  0.70415  1.0000
  Fe  Fe7       1.0  0.18607  0.06593  0.67014  1.0000
  S   S10       1.0  0.19234  0.03758  0.66072  1.0000
  S   S11       1.0  0.18490  0.11427  0.68008  1.0000
  S   S12       1.0  0.20852  0.07816  0.65823  1.0000
  Fe  Fe8       1.0  0.05889  0.22851  0.32733  1.0000
  S   S13       1.0  0.05357  0.20586  0.29871  1.0000
  H   H3        1.0  0.00909  0.20261  0.44055  1.0000
  Fe  Fe9       1.0  0.04787  0.21492  0.39919  1.0000
  S   S14       1.0  0.04165  0.19188  0.37490  1.0000
  S   S15       1.0  0.03756  0.21808  0.45560  1.0000
  Fe  Fe10      1.0  0.06635  0.19022  0.34464  1.0000
  S   S16       1.0  0.08137  0.16306  0.34068  1.0000
  Fe  Fe11      1.0  0.02969  0.20918  0.33171  1.0000
  S   S17       1.0  0.07322  0.21262  0.37160  1.0000
  S   S18       1.0  0.03443  0.23247  0.35765  1.0000
  Fe  Fe12      1.0  0.20786  0.07379  0.33203  1.0000
  S   S19       1.0  0.18581  0.07850  0.29485  1.0000
  S   S20       1.0  0.23674  0.06963  0.32691  1.0000
  Fe  Fe13      1.0  0.18475  0.06942  0.39636  1.0000
  S   S21       1.0  0.16115  0.07364  0.36466  1.0000
  S   S22       1.0  0.18543  0.06095  0.45404  1.0000
  Fe  Fe14      1.0  0.17684  0.05695  0.32445  1.0000
  S   S23       1.0  0.16773  0.03557  0.29678  1.0000
  Fe  Fe15      1.0  0.17147  0.09487  0.33802  1.0000
  S   S24       1.0  0.15760  0.12238  0.33276  1.0000
  S   S25       1.0  0.19956  0.05133  0.35825  1.0000
  S   S26       1.0  0.19429  0.09156  0.37307  1.0000
  C   C3        1.0  0.10273  0.15209  0.33857  1.0000
  C   C4        1.0  0.10597  0.13438  0.33735  1.0000
  C   C5        1.0  0.12256  0.12507  0.33548  1.0000
  C   C6        1.0  0.13627  0.13334  0.33473  1.0000
  C   C7        1.0  0.13304  0.15103  0.33616  1.0000
  C   C8        1.0  0.11645  0.16034  0.33817  1.0000
  H   H4        1.0  0.09551  0.12781  0.33751  1.0000
  H   H5        1.0  0.12471  0.11152  0.33421  1.0000
  H   H6        1.0  0.14348  0.15764  0.33542  1.0000
  H   H7        1.0  0.11428  0.17390  0.33895  1.0000
  C   C9        1.0  0.19102  0.09702  0.54281  1.0000
  C   C10       1.0  0.19144  0.07999  0.55030  1.0000
  C   C11       1.0  0.19001  0.06904  0.52270  1.0000
  C   C12       1.0  0.18798  0.07505  0.48748  1.0000
  C   C13       1.0  0.18775  0.09208  0.47981  1.0000
  C   C14       1.0  0.18934  0.10305  0.50747  1.0000
  H   H8        1.0  0.19304  0.07517  0.57737  1.0000
  H   H9        1.0  0.19044  0.05586  0.52881  1.0000
  H   H10       1.0  0.18617  0.09677  0.45270  1.0000
  H   H11       1.0  0.18910  0.11623  0.50161  1.0000
  C   C15       1.0  0.06719  0.22821  0.55248  1.0000
  C   C16       1.0  0.07460  0.22822  0.51830  1.0000
  C   C17       1.0  0.06579  0.22485  0.48822  1.0000
  C   C18       1.0  0.04951  0.22161  0.49231  1.0000
  C   C19       1.0  0.04220  0.22149  0.52652  1.0000
  C   C20       1.0  0.05103  0.22469  0.55655  1.0000
  H   H12       1.0  0.18109  0.01943  0.36347  1.0000
  H   H13       1.0  0.07147  0.22504  0.46189  1.0000
  H   H14       1.0  0.04411  0.22788  0.22742  1.0000
  N   N1        1.0  0.02147  0.24679  0.23142  1.0000
  C   C21       1.0  0.10778  0.16733  0.71130  1.0000
  C   C22       1.0  0.09926  0.15392  0.70852  1.0000
  C   C23       1.0  0.10832  0.13732  0.70552  1.0000
  C   C24       1.0  0.12600  0.13388  0.70440  1.0000
  C   C25       1.0  0.13451  0.14739  0.70532  1.0000
  C   C26       1.0  0.12546  0.16394  0.70928  1.0000
  H   H15       1.0  0.08570  0.15621  0.71070  1.0000
  H   H16       1.0  0.10156  0.12701  0.70489  1.0000
  H   H17       1.0  0.14806  0.14509  0.70417  1.0000
  H   H18       1.0  0.13223  0.17413  0.71191  1.0000
  H   H19       1.0  0.15501  0.13481  0.40402  1.0000
  H   H20       1.0  0.16754  0.12459  0.43999  1.0000
  C   C27       1.0  0.15545  0.01011  0.68134  1.0000
  H   H21       1.0  0.01040  0.23236  0.19421  1.0000
  C   C28       1.0  0.24106  0.09344  0.75564  1.0000
  H   H22       1.0  0.13658  0.15400  0.44162  1.0000
  C   C29       1.0  0.22571  0.06635  0.42778  1.0000
  H   H23       1.0  0.17382  0.01576  0.55221  1.0000
  H   H24       1.0  0.00925  0.18794  0.70739  1.0000
  H   H25       1.0  0.22450  0.06529  0.39852  1.0000
  C   C30       1.0  0.23785  0.03436  0.25453  1.0000
  H   H26       1.0  0.16733  0.15540  0.59144  1.0000
  H   H27       1.0  0.15818  0.03600  0.68762  1.0000
  H   H28       1.0  0.23444  0.08552  0.25515  1.0000
  H   H29       1.0  0.15761  0.11264  0.41023  1.0000
  H   H30       1.0  0.10307  0.20507  0.56366  1.0000
  N   N2        1.0  0.24263  0.06903  0.43712  1.0000
  H   H31       1.0  0.24568  0.08474  0.39091  1.0000
  H   H32       1.0  0.10750  0.14053  0.79361  1.0000
  H   H33       1.0  0.15071  0.00909  0.27758  1.0000
  C   C31       1.0  0.14965  0.14003  0.60821  1.0000
  H   H34       1.0  0.14766  0.07060  0.48426  1.0000
  H   H35       1.0  0.15002  0.14613  0.47749  1.0000
  H   H36       1.0  0.12755  0.14674  0.48160  1.0000
  C   C32       1.0  0.14802  0.08701  0.52823  1.0000
  H   H37       1.0  0.14354  0.09309  0.43933  1.0000
  H   H38       1.0  0.17283  0.03777  0.50625  1.0000
  C   C33       1.0  0.12505  0.17001  0.60505  1.0000
  H   H39       1.0  0.11058  0.18463  0.54589  1.0000
  C   C34       1.0  0.12082  0.15435  0.61591  1.0000
  H   H40       1.0  0.12755  0.11485  0.41065  1.0000
  H   H41       1.0  0.24155  0.09399  0.81301  1.0000
  C   C35       1.0  0.16931  0.02594  0.49985  1.0000
  C   C36       1.0  0.13298  0.13962  0.61715  1.0000
  H   H42       1.0  0.99995  0.18112  0.24480  1.0000
  C   C37       1.0  0.11646  0.19788  0.62909  1.0000
  H   H43       1.0  0.20226  0.99938  0.76832  1.0000
  C   C38       1.0  0.01154  0.23369  0.22344  1.0000
  H   H44       1.0  0.14645  0.18147  0.58893  1.0000
  C   C39       1.0  0.17411  0.01116  0.35065  1.0000
  H   H45       1.0  0.11653  0.19252  0.65670  1.0000
  S   S27       1.0  0.00329  0.21257  0.30926  1.0000
  C   C40       1.0  0.18039  0.02132  0.66398  1.0000
  H   H46       1.0  0.02961  0.21899  0.52986  1.0000
  H   H47       1.0  0.14287  0.01207  0.69271  1.0000
  C   C41       1.0  0.16409  0.02371  0.67845  1.0000
  H   H48       1.0  0.10828  0.15316  0.62440  1.0000
  C   C42       1.0  0.15426  0.15518  0.59790  1.0000
  H   H49       1.0  0.09333  0.17922  0.63835  1.0000
  H   H50       1.0  0.20934  0.99931  0.72262  1.0000
  C   C43       1.0  0.18782  0.00527  0.65216  1.0000
  H   H51       1.0  0.24509  0.09274  0.69884  1.0000
  H   H52       1.0  0.23132  0.99838  0.21770  1.0000
  H   H53       1.0  0.09117  0.17445  0.59178  1.0000
  H   H54       1.0  0.00379  0.18013  0.34601  1.0000
  H   H55       1.0  0.12887  0.20143  0.62380  1.0000
  Fe  Fe16      1.0  0.05643  0.24392  0.71792  1.0000
  C   C44       1.0  0.16611  0.01618  0.31848  1.0000
  H   H56       1.0  0.01752  0.22114  0.23447  1.0000
  C   C45       1.0  0.11289  0.19351  0.56657  1.0000
  C   C46       1.0  0.16988  0.01321  0.52587  1.0000
  H   H57       1.0  0.22279  0.05467  0.44063  1.0000
  H   H58       1.0  0.14905  0.10606  0.56635  1.0000
  H   H59       1.0  0.21744  0.02084  0.25785  1.0000
  C   C47       1.0  0.14221  0.16998  0.59645  1.0000
  H   H60       1.0  0.08708  0.23101  0.51503  1.0000
  C   C48       1.0  0.15976  0.00836  0.45690  1.0000
  H   H61       1.0  0.14466  0.12908  0.52320  1.0000
  C   C49       1.0  0.24366  0.06956  0.47642  1.0000
  N   N3        1.0  0.11251  0.18584  0.60286  1.0000
  H   H62       1.0  0.08592  0.19552  0.60670  1.0000
  C   C50       1.0  0.23360  0.08278  0.49558  1.0000
  C   C51       1.0  0.15710  0.00523  0.30225  1.0000
  H   H63       1.0  0.10647  0.17113  0.79617  1.0000
  H   H64       1.0  0.16403  0.03339  0.44527  1.0000
  H   H65       1.0  0.15909  0.12863  0.60987  1.0000
  N   N4        1.0  0.16600  0.12808  0.79949  1.0000
  C   C52       1.0  0.16727  0.11703  0.76824  1.0000
  C   C53       1.0  0.18097  0.13626  0.79818  1.0000
  C   C54       1.0  0.16687  0.11750  0.83238  1.0000
  C   C55       1.0  0.14983  0.14012  0.79910  1.0000
  C   C56       1.0  0.14876  0.15782  0.80080  1.0000
  C   C57       1.0  0.13445  0.13421  0.79719  1.0000
  H   H66       1.0  0.16486  0.12461  0.74320  1.0000
  H   H67       1.0  0.17993  0.10892  0.76571  1.0000
  H   H68       1.0  0.15812  0.10838  0.76952  1.0000
  H   H69       1.0  0.18110  0.14431  0.77373  1.0000
  H   H70       1.0  0.19292  0.12682  0.79736  1.0000
  H   H71       1.0  0.18158  0.14395  0.82211  1.0000
  H   H72       1.0  0.15668  0.11001  0.83392  1.0000
  H   H73       1.0  0.17896  0.10836  0.83375  1.0000
  H   H74       1.0  0.16569  0.12535  0.85658  1.0000
  H   H75       1.0  0.15970  0.16356  0.80221  1.0000
  H   H76       1.0  0.13422  0.12097  0.79536  1.0000
  H   H77       1.0  0.20039  0.00330  0.64076  1.0000
  C   C58       1.0  0.13323  0.16879  0.80007  1.0000
  H   H78       1.0  0.02699  0.23560  0.28322  1.0000
  S   S28       1.0  0.00790  0.22213  0.67728  1.0000
  H   H79       1.0  0.22500  0.09261  0.48208  1.0000
  C   C59       1.0  0.15590  0.12465  0.42483  1.0000
  H   H80       1.0  0.23516  0.09587  0.42726  1.0000
  H   H81       1.0  0.12955  0.12787  0.62626  1.0000
  C   C60       1.0  0.16431  0.02351  0.46542  1.0000
  C   C61       1.0  0.03884  0.24085  0.21765  1.0000
  C   C62       1.0  0.11904  0.14529  0.79643  1.0000
  C   C63       1.0  0.14726  0.10352  0.53860  1.0000
  C   C64       1.0  0.14643  0.08352  0.49246  1.0000
  S   S29       1.0  0.07829  0.23261  0.58980  1.0000
  H   H82       1.0  0.15038  0.07685  0.54784  1.0000
  H   H83       1.0  0.24415  0.07103  0.58085  1.0000
  H   H84       1.0  0.04523  0.22469  0.58278  1.0000
  C   C65       1.0  0.13866  0.14419  0.46326  1.0000
  C   C66       1.0  0.14410  0.09653  0.46688  1.0000
  H   H85       1.0  0.13262  0.18227  0.80044  1.0000
  C   C67       1.0  0.09502  0.18350  0.61028  1.0000
  C   C68       1.0  0.22981  0.02118  0.24657  1.0000
  N   N5        1.0  0.14089  0.12701  0.44871  1.0000
  H   H86       1.0  0.12497  0.19753  0.56007  1.0000
  C   C69       1.0  0.12588  0.12624  0.42724  1.0000
  H   H87       1.0  0.10697  0.20979  0.62886  1.0000
  C   C70       1.0  0.14307  0.11353  0.47650  1.0000
  H   H88       1.0  0.12304  0.13706  0.40804  1.0000
  H   H89       1.0  0.21570  0.07684  0.43638  1.0000
  C   C71       1.0  0.11843  0.16254  0.79786  1.0000
  H   H90       1.0  0.11454  0.12638  0.44453  1.0000
  H   H91       1.0  0.00794  0.22977  0.41243  1.0000
  C   C72       1.0  0.23404  0.08336  0.53273  1.0000
  H   H92       1.0  0.23171  0.04423  0.27205  1.0000
  C   C73       1.0  0.24418  0.07066  0.55199  1.0000
  C   C74       1.0  0.23765  0.00857  0.22400  1.0000
  H   H93       1.0  0.22619  0.09357  0.54679  1.0000
  C   C75       1.0  0.16549  0.99754  0.51803  1.0000
  H   H94       1.0  0.03930  0.24092  0.18800  1.0000
  H   H95       1.0  0.15572  0.00658  0.43011  1.0000
  S   S30       1.0  0.04230  0.24441  0.66707  1.0000
  H   H96       1.0  0.00227  0.24574  0.73906  1.0000
  H   H97       1.0  0.99884  0.23638  0.23623  1.0000
  H   H98       1.0  0.04785  0.24860  0.22671  1.0000
  H   H99       1.0  0.03518  0.29201  0.80520  1.0000
  H   H100      1.0  0.00557  0.44187  0.84387  1.0000
  H   H101      1.0  0.01431  0.28474  0.76526  1.0000
  S   S31       1.0  0.06732  0.24889  0.29112  1.0000
  H   H102      1.0  0.09894  0.41546  0.18897  1.0000
  H   H103      1.0  0.07258  0.39299  0.18278  1.0000
  S   S32       1.0  0.04859  0.26568  0.75691  1.0000
  S   S33       1.0  0.03614  0.48535  0.25641  1.0000
  H   H104      1.0  0.00640  0.32616  0.23508  1.0000
  H   H105      1.0  0.00011  0.46682  0.33952  1.0000
  H   H106      1.0  0.06935  0.45726  0.56352  1.0000
  S   S34       1.0  0.05058  0.47263  0.68002  1.0000
  C   C76       1.0  0.06612  0.27953  0.25619  1.0000
  H   H107      1.0  0.02161  0.43727  0.81001  1.0000
  C   C77       1.0  0.04469  0.29648  0.78902  1.0000
  H   H108      1.0  0.04655  0.48901  0.42150  1.0000
  C   C78       1.0  0.00148  0.44001  0.75433  1.0000
  C   C79       1.0  0.01448  0.26357  0.21601  1.0000
  H   H109      1.0  0.02152  0.42281  0.32996  1.0000
  Fe  Fe17      1.0  0.04706  0.38583  0.21841  1.0000
  S   S35       1.0  0.03655  0.39039  0.16354  1.0000
  S   S36       1.0  0.05706  0.40521  0.25133  1.0000
  Fe  Fe18      1.0  0.04147  0.34856  0.22234  1.0000
  S   S37       1.0  0.03052  0.35061  0.16728  1.0000
  S   S38       1.0  0.03859  0.32749  0.26332  1.0000
  Fe  Fe19      1.0  0.05102  0.36470  0.15092  1.0000
  S   S39       1.0  0.06589  0.36160  0.09844  1.0000
  Fe  Fe20      1.0  0.01698  0.37612  0.18329  1.0000
  H   H110      1.0  0.02686  0.46091  0.21047  1.0000
  S   S40       1.0  0.06331  0.36079  0.20501  1.0000
  S   S41       1.0  0.02616  0.37348  0.23929  1.0000
  Fe  Fe21      1.0  0.03941  0.37544  0.88813  1.0000
  S   S42       1.0  0.06357  0.37477  0.85621  1.0000
  S   S43       1.0  0.03082  0.37258  0.94629  1.0000
  Fe  Fe22      1.0  0.01859  0.38390  0.82073  1.0000
  S   S44       1.0  0.04072  0.38356  0.78417  1.0000
  Fe  Fe23      1.0  0.05196  0.36020  0.81558  1.0000
  S   S45       1.0  0.06643  0.33836  0.78320  1.0000
  Fe  Fe24      1.0  0.05017  0.39809  0.82677  1.0000
  S   S46       1.0  0.05929  0.42291  0.81647  1.0000
  S   S47       1.0  0.02883  0.35959  0.84904  1.0000
  S   S48       1.0  0.02719  0.39968  0.86176  1.0000
  C   C80       1.0  0.06610  0.29193  0.74274  1.0000
  C   C81       1.0  0.06978  0.30799  0.74918  1.0000
  C   C82       1.0  0.06084  0.31846  0.77532  1.0000
  C   C83       1.0  0.04815  0.31264  0.79499  1.0000
  H   H111      1.0  0.07312  0.28405  0.72263  1.0000
  H   H112      1.0  0.07967  0.31226  0.73386  1.0000
  H   H113      1.0  0.04124  0.32042  0.81538  1.0000
  C   C84       1.0  0.05604  0.36505  0.05627  1.0000
  C   C85       1.0  0.06597  0.36465  0.02494  1.0000
  C   C86       1.0  0.05854  0.36717  0.99104  1.0000
  C   C87       1.0  0.04106  0.37002  0.98812  1.0000
  C   C88       1.0  0.03115  0.37055  0.01950  1.0000
  C   C89       1.0  0.03856  0.36817  0.05335  1.0000
  H   H114      1.0  0.07949  0.36221  0.02685  1.0000
  H   H115      1.0  0.06635  0.36667  0.96721  1.0000
  H   H116      1.0  0.01763  0.37276  0.01765  1.0000
  H   H117      1.0  0.03075  0.36855  0.07716  1.0000
  C   C90       1.0  0.04733  0.30577  0.27100  1.0000
  C   C91       1.0  0.05988  0.29678  0.24908  1.0000
  C   C92       1.0  0.04117  0.29721  0.30005  1.0000
  H   H118      1.0  0.06487  0.30310  0.22675  1.0000
  H   H119      1.0  0.03175  0.30401  0.31773  1.0000
  C   C93       1.0  0.05573  0.43683  0.77875  1.0000
  C   C94       1.0  0.05918  0.45316  0.78115  1.0000
  C   C95       1.0  0.05706  0.46447  0.75165  1.0000
  C   C96       1.0  0.05185  0.45945  0.71899  1.0000
  C   C97       1.0  0.04851  0.44306  0.71651  1.0000
  C   C98       1.0  0.05023  0.43189  0.74626  1.0000
  H   H120      1.0  0.06357  0.45710  0.80602  1.0000
  H   H121      1.0  0.05992  0.47692  0.75395  1.0000
  H   H122      1.0  0.04467  0.43893  0.69132  1.0000
  H   H123      1.0  0.04779  0.41930  0.74377  1.0000
  C   C99       1.0  0.05591  0.45925  0.57180  1.0000
  H   H124      1.0  0.04236  0.27366  0.32938  1.0000
  H   H125      1.0  0.02445  0.44048  0.30192  1.0000
  H   H126      1.0  0.00296  0.48147  0.22954  1.0000
  C   C100      1.0  0.00465  0.34112  0.93582  1.0000
  H   H127      1.0  0.02628  0.49051  0.77909  1.0000
  H   H128      1.0  0.01481  0.34392  0.91744  1.0000
  C   C101      1.0  0.00264  0.42304  0.26795  1.0000
  C   C102      1.0  0.06785  0.41485  0.12780  1.0000
  C   C103      1.0  0.08682  0.42017  0.17555  1.0000
  C   C104      1.0  0.04230  0.46307  0.25556  1.0000
  C   C105      1.0  0.05369  0.45408  0.27964  1.0000
  C   C106      1.0  0.05814  0.43641  0.27774  1.0000
  C   C107      1.0  0.05105  0.42747  0.25225  1.0000
  C   C108      1.0  0.03959  0.43644  0.22829  1.0000
  C   C109      1.0  0.03541  0.45412  0.22972  1.0000
  H   H129      1.0  0.05922  0.46074  0.29950  1.0000
  H   H130      1.0  0.06709  0.42962  0.29632  1.0000
  H   H131      1.0  0.03407  0.42977  0.20846  1.0000
  H   H132      1.0  0.05003  0.44982  0.55816  1.0000
  C   C110      1.0  0.09819  0.40720  0.12135  1.0000
  H   H133      1.0  0.05683  0.48655  0.60977  1.0000
  C   C111      1.0  0.06370  0.40604  0.09803  1.0000
  H   H134      1.0  0.01984  0.27295  0.70774  1.0000
  C   C112      1.0  0.04073  0.43397  0.12074  1.0000
  C   C113      1.0  0.05976  0.27094  0.28494  1.0000
  H   H135      1.0  0.00922  0.25246  0.28232  1.0000
  H   H136      1.0  0.02260  0.46968  0.56984  1.0000
  H   H137      1.0  0.07702  0.42102  0.19705  1.0000
  C   C114      1.0  0.06150  0.48055  0.46716  1.0000
  C   C115      1.0  0.03135  0.48840  0.46911  1.0000
  C   C116      1.0  0.03706  0.42493  0.09176  1.0000
  H   H138      1.0  0.03015  0.25670  0.27894  1.0000
  H   H139      1.0  0.01973  0.49310  0.45548  1.0000
  C   C117      1.0  0.03006  0.47853  0.58085  1.0000
  H   H140      1.0  0.02421  0.46092  0.77853  1.0000
  H   H141      1.0  0.01450  0.44124  0.74675  1.0000
  N   N6        1.0  0.08373  0.40886  0.14681  1.0000
  N   N7        1.0  0.04696  0.47658  0.56363  1.0000
  H   H142      1.0  0.07367  0.47380  0.51627  1.0000
  C   C118      1.0  0.05602  0.48859  0.58037  1.0000
  H   H143      1.0  0.02522  0.42859  0.07824  1.0000
  H   H144      1.0  0.04560  0.40377  0.05817  1.0000
  N   N8        1.0  0.09651  0.36888  0.73600  1.0000
  C   C119      1.0  0.08194  0.36353  0.71951  1.0000
  C   C120      1.0  0.11211  0.36042  0.71777  1.0000
  C   C121      1.0  0.09717  0.36276  0.77368  1.0000
  C   C122      1.0  0.09496  0.38734  0.73214  1.0000
  C   C123      1.0  0.09431  0.39807  0.76179  1.0000
  C   C124      1.0  0.09420  0.39513  0.69773  1.0000
  C   C125      1.0  0.09322  0.41540  0.75700  1.0000
  C   C126      1.0  0.09278  0.41253  0.69334  1.0000
  C   C127      1.0  0.09230  0.42264  0.72295  1.0000
  H   H145      1.0  0.08097  0.36666  0.69062  1.0000
  H   H146      1.0  0.08268  0.34967  0.72210  1.0000
  H   H147      1.0  0.06995  0.36951  0.73271  1.0000
  H   H148      1.0  0.11196  0.36296  0.68856  1.0000
  H   H149      1.0  0.11399  0.34650  0.72137  1.0000
  H   H150      1.0  0.12331  0.36462  0.72852  1.0000
  H   H151      1.0  0.08542  0.36798  0.78864  1.0000
  H   H152      1.0  0.09838  0.34883  0.77572  1.0000
  H   H153      1.0  0.10807  0.36593  0.78773  1.0000
  H   H154      1.0  0.09434  0.39352  0.78908  1.0000
  H   H155      1.0  0.09458  0.38781  0.67394  1.0000
  H   H156      1.0  0.09249  0.42337  0.78006  1.0000
  H   H157      1.0  0.09195  0.41825  0.66689  1.0000
  H   H158      1.0  0.09088  0.43617  0.71963  1.0000
  C   C128      1.0  0.05359  0.28601  0.76283  1.0000
  C   C129      1.0  0.01734  0.29284  0.20352  1.0000
  H   H159      1.0  0.00859  0.34392  0.96288  1.0000
  H   H160      1.0  0.01636  0.25539  0.76305  1.0000
  H   H161      1.0  0.11039  0.40376  0.13518  1.0000
  C   C130      1.0  0.04647  0.47968  0.52455  1.0000
  H   H162      1.0  0.99789  0.33057  0.79339  1.0000
  C   C131      1.0  0.01299  0.46989  0.78463  1.0000
  H   H163      1.0  0.09492  0.38711  0.17826  1.0000
  H   H164      1.0  0.08177  0.38264  0.14351  1.0000
  C   C132      1.0  0.04725  0.27995  0.30690  1.0000
  H   H165      1.0  0.06908  0.48761  0.56996  1.0000
  C   C133      1.0  0.04643  0.48601  0.44980  1.0000
  C   C134      1.0  0.04854  0.41101  0.08039  1.0000
  H   H166      1.0  0.09818  0.41917  0.10616  1.0000
  H   H167      1.0  0.00161  0.46406  0.29208  1.0000
  H   H168      1.0  0.00518  0.32029  0.30095  1.0000
  C   C135      1.0  0.00064  0.28653  0.75988  1.0000
  C   C136      1.0  0.99842  0.26742  0.20008  1.0000
  C   C137      1.0  0.00823  0.43693  0.81651  1.0000
  C   C138      1.0  0.02195  0.24800  0.27064  1.0000
  H   H169      1.0  0.09808  0.39714  0.10172  1.0000
  H   H170      1.0  0.07585  0.27276  0.23905  1.0000
  H   H171      1.0  0.00462  0.32742  0.93479  1.0000
  H   H172      1.0  0.03171  0.44474  0.12968  1.0000
  C   C139      1.0  0.02356  0.27689  0.21786  1.0000
  C   C140      1.0  0.05588  0.42908  0.13861  1.0000
  H   H173      1.0  0.05781  0.43655  0.16105  1.0000
  C   C141      1.0  0.08327  0.39218  0.16344  1.0000
  H   H174      1.0  0.03088  0.47594  0.61017  1.0000
  C   C142      1.0  0.00622  0.27343  0.70318  1.0000
  C   C143      1.0  0.01771  0.43664  0.32587  1.0000
  C   C144      1.0  0.03127  0.48530  0.50594  1.0000
  H   H175      1.0  0.08722  0.43304  0.16498  1.0000
  N   N9        1.0  0.99925  0.44176  0.32234  1.0000
  H   H176      1.0  0.07197  0.39491  0.08861  1.0000
  C   C145      1.0  0.06159  0.47746  0.50396  1.0000
  H   H177      1.0  0.02245  0.44271  0.34887  1.0000
  H   H178      1.0  0.00839  0.35731  0.78784  1.0000
  H   H179      1.0  0.05577  0.45637  0.60104  1.0000
  H   H180      1.0  0.01614  0.41994  0.26989  1.0000
  C   C146      1.0  0.01431  0.48683  0.78505  1.0000
  H   H181      1.0  0.02296  0.49161  0.57751  1.0000
  H   H182      1.0  0.07322  0.47945  0.45208  1.0000
  H   H183      1.0  0.99895  0.35621  0.13062  1.0000
  H   H184      1.0  0.03557  0.27508  0.23052  1.0000
  H   H185      1.0  0.00722  0.42342  0.81731  1.0000
  H   H186      1.0  0.02479  0.30265  0.20478  1.0000
  H   H187      1.0  0.00541  0.26255  0.68617  1.0000
  H   H188      1.0  0.01916  0.48770  0.51922  1.0000
  H   H189      1.0  0.00096  0.42640  0.75271  1.0000
  H   H190      1.0  0.99784  0.37345  0.91168  1.0000
  H   H191      1.0  0.00150  0.28512  0.68752  1.0000
  H   H192      1.0  0.00492  0.34775  0.24386  1.0000
  H   H193      1.0  0.00403  0.34205  0.30753  1.0000
  C   C147      1.0  0.00170  0.29613  0.18760  1.0000
  C   C148      1.0  0.00290  0.25672  0.75587  1.0000
  H   H194      1.0  0.00363  0.40771  0.22144  1.0000
  S   S49       1.0  0.04358  0.56353  0.24513  1.0000
  S   S50       1.0  0.03860  0.54785  0.34794  1.0000
  S   S51       1.0  0.02634  0.54919  0.65875  1.0000
  S   S52       1.0  0.06049  0.55438  0.72918  1.0000
  H   H195      1.0  0.08269  0.60369  0.70148  1.0000
  H   H196      1.0  0.04812  0.60740  0.32405  1.0000
  Fe  Fe25      1.0  0.05368  0.65682  0.18438  1.0000
  S   S53       1.0  0.03057  0.65761  0.15242  1.0000
  S   S54       1.0  0.06674  0.63391  0.21633  1.0000
  Fe  Fe26      1.0  0.05504  0.69363  0.16548  1.0000
  S   S55       1.0  0.03206  0.69668  0.13162  1.0000
  S   S56       1.0  0.06653  0.71705  0.17035  1.0000
  Fe  Fe27      1.0  0.02178  0.68285  0.17645  1.0000
  C   C149      1.0  0.00022  0.49903  0.79236  1.0000
  Fe  Fe28      1.0  0.04302  0.67130  0.10996  1.0000
  S   S57       1.0  0.03681  0.66248  0.05543  1.0000
  S   S58       1.0  0.04388  0.68126  0.21176  1.0000
  S   S59       1.0  0.06706  0.66900  0.14038  1.0000
  Fe  Fe29      1.0  0.04608  0.65311  0.78499  1.0000
  S   S60       1.0  0.03632  0.65503  0.84167  1.0000
  S   S61       1.0  0.04395  0.63440  0.74129  1.0000
  Fe  Fe30      1.0  0.05055  0.69047  0.78144  1.0000
  S   S62       1.0  0.04126  0.69550  0.83765  1.0000
  S   S63       1.0  0.05544  0.70781  0.73514  1.0000
  Fe  Fe31      1.0  0.05652  0.67002  0.85139  1.0000
  S   S64       1.0  0.07171  0.66734  0.90215  1.0000
  Fe  Fe32      1.0  0.02179  0.68034  0.82553  1.0000
  Fe  Fe33      1.0  0.04841  0.53815  0.69224  1.0000
  S   S65       1.0  0.06775  0.66609  0.79558  1.0000
  S   S66       1.0  0.02954  0.67735  0.76854  1.0000
  C   C150      1.0  0.04655  0.66492  0.01321  1.0000
  C   C151      1.0  0.03810  0.66203  0.98232  1.0000
  C   C152      1.0  0.04546  0.66321  0.94823  1.0000
  C   C153      1.0  0.06161  0.66687  0.94462  1.0000
  C   C154      1.0  0.07015  0.66965  0.97555  1.0000
  C   C155      1.0  0.06259  0.66887  0.00968  1.0000
  H   H197      1.0  0.02578  0.65880  0.98467  1.0000
  H   H198      1.0  0.03878  0.66095  0.92476  1.0000
  H   H199      1.0  0.08264  0.67248  0.97304  1.0000
  H   H200      1.0  0.06929  0.67108  0.03317  1.0000
  Fe  Fe34      1.0  0.04502  0.50149  0.67756  1.0000
  H   H201      1.0  0.00080  0.67597  0.08604  1.0000
  H   H202      1.0  0.08317  0.62369  0.05624  1.0000
  H   H203      1.0  0.03026  0.58698  0.31649  1.0000
  H   H204      1.0  0.01394  0.57886  0.72460  1.0000
  H   H205      1.0  0.10163  0.67326  0.70002  1.0000
  H   H206      1.0  0.03466  0.53293  0.42874  1.0000
  C   C156      1.0  0.00776  0.72158  0.76025  1.0000
  S   S67       1.0  0.06329  0.51875  0.30060  1.0000
  H   H207      1.0  0.01068  0.65780  0.21127  1.0000
  C   C157      1.0  0.06363  0.72905  0.20956  1.0000
  C   C158      1.0  0.05612  0.73866  0.70372  1.0000
  H   H208      1.0  0.10310  0.61761  0.12289  1.0000
  C   C159      1.0  0.10310  0.73322  0.24617  1.0000
  C   C160      1.0  0.06024  0.73119  0.27391  1.0000
  C   C161      1.0  0.06119  0.72166  0.24283  1.0000
  C   C162      1.0  0.09022  0.62529  0.12339  1.0000
  C   C163      1.0  0.99963  0.56077  0.78463  1.0000
  H   H209      1.0  0.05892  0.72520  0.29963  1.0000
  H   H210      1.0  0.06063  0.70844  0.24477  1.0000
  H   H211      1.0  0.99882  0.64567  0.79505  1.0000
  H   H212      1.0  0.07227  0.60665  0.05844  1.0000
  H   H213      1.0  0.00412  0.71020  0.77287  1.0000
  C   C164      1.0  0.05584  0.72965  0.73617  1.0000
  C   C165      1.0  0.05627  0.73811  0.76810  1.0000
  C   C166      1.0  0.06459  0.74620  0.20762  1.0000
  C   C167      1.0  0.08180  0.63030  0.69357  1.0000
  H   H214      1.0  0.05580  0.73226  0.67885  1.0000
  H   H215      1.0  0.05616  0.73134  0.79328  1.0000
  Fe  Fe35      1.0  0.04117  0.50570  0.29454  1.0000
  C   C168      1.0  0.05517  0.57661  0.73291  1.0000
  C   C169      1.0  0.04666  0.58682  0.70604  1.0000
  C   C170      1.0  0.04328  0.60443  0.70930  1.0000
  C   C171      1.0  0.04809  0.61210  0.73966  1.0000
  C   C172      1.0  0.05639  0.60191  0.76681  1.0000
  C   C173      1.0  0.06008  0.58429  0.76320  1.0000
  H   H216      1.0  0.04297  0.58115  0.68239  1.0000
  H   H217      1.0  0.03691  0.61216  0.68803  1.0000
  H   H218      1.0  0.06034  0.60762  0.79015  1.0000
  H   H219      1.0  0.06684  0.57654  0.78398  1.0000
  C   C174      1.0  0.04919  0.58370  0.24041  1.0000
  C   C175      1.0  0.06227  0.58819  0.25943  1.0000
  C   C176      1.0  0.06725  0.60376  0.25224  1.0000
  C   C177      1.0  0.05901  0.61514  0.22656  1.0000
  C   C178      1.0  0.04562  0.61085  0.20831  1.0000
  C   C179      1.0  0.04093  0.59513  0.21482  1.0000
  H   H220      1.0  0.06887  0.57949  0.27888  1.0000
  H   H221      1.0  0.07768  0.60691  0.26640  1.0000
  H   H222      1.0  0.03915  0.61942  0.18851  1.0000
  H   H223      1.0  0.03101  0.59171  0.19947  1.0000
  H   H224      1.0  0.09914  0.65630  0.64526  1.0000
  Fe  Fe36      1.0  0.03683  0.52937  0.61862  1.0000
  H   H225      1.0  0.07287  0.55927  0.18575  1.0000
  S   S68       1.0  0.03357  0.50756  0.35249  1.0000
  S   S69       1.0  0.06010  0.51931  0.65035  1.0000
  H   H226      1.0  0.00300  0.72698  0.23034  1.0000
  C   C180      1.0  0.05859  0.52269  0.45147  1.0000
  C   C181      1.0  0.09714  0.61345  0.74037  1.0000
  H   H227      1.0  0.08056  0.51363  0.48261  1.0000
  H   H228      1.0  0.01252  0.60424  0.75808  1.0000
  C   C182      1.0  0.06623  0.58920  0.11982  1.0000
  H   H229      1.0  0.09888  0.72328  0.26167  1.0000
  H   H230      1.0  0.02711  0.73869  0.23186  1.0000
  H   H231      1.0  0.00581  0.65964  0.87789  1.0000
  C   C183      1.0  0.10724  0.73082  0.21024  1.0000
  H   H232      1.0  0.07334  0.63071  0.67160  1.0000
  C   C184      1.0  0.03342  0.53366  0.48632  1.0000
  C   C185      1.0  0.07707  0.60003  0.13036  1.0000
  N   N10       1.0  0.07771  0.61578  0.10992  1.0000
  C   C186      1.0  0.06104  0.62690  0.11197  1.0000
  C   C187      1.0  0.00059  0.73672  0.81458  1.0000
  H   H233      1.0  0.09447  0.60304  0.17290  1.0000
  H   H234      1.0  0.05625  0.56671  0.13147  1.0000
  C   C188      1.0  0.02481  0.59998  0.31116  1.0000
  H   H235      1.0  0.00541  0.51278  0.40057  1.0000
  H   H236      1.0  0.05578  0.65658  0.67832  1.0000
  C   C189      1.0  0.00450  0.58980  0.71809  1.0000
  H   H237      1.0  0.05707  0.67846  0.67945  1.0000
  H   H238      1.0  0.06102  0.63912  0.09775  1.0000
  C   C190      1.0  0.00810  0.60511  0.29913  1.0000
  H   H239      1.0  0.02556  0.54924  0.77517  1.0000
  Fe  Fe37      1.0  0.04563  0.54354  0.29004  1.0000
  H   H240      1.0  0.02035  0.53966  0.48695  1.0000
  C   C191      1.0  0.08202  0.61208  0.07193  1.0000
  H   H241      1.0  0.10077  0.60142  0.75404  1.0000
  C   C192      1.0  0.06217  0.66583  0.69117  1.0000
  C   C193      1.0  0.11229  0.74367  0.18997  1.0000
  C   C194      1.0  0.09726  0.64331  0.73588  1.0000
  C   C195      1.0  0.08534  0.66044  0.64904  1.0000
  H   H242      1.0  0.01070  0.64175  0.71459  1.0000
  H   H243      1.0  0.00283  0.52202  0.51061  1.0000
  H   H244      1.0  0.05729  0.62953  0.14027  1.0000
  C   C196      1.0  0.01699  0.55926  0.78831  1.0000
  H   H245      1.0  0.05838  0.59217  0.09683  1.0000
  C   C197      1.0  0.08512  0.58060  0.18096  1.0000
  C   C198      1.0  0.01260  0.58386  0.82466  1.0000
  H   H246      1.0  0.01768  0.59282  0.84016  1.0000
  C   C199      1.0  0.02346  0.57081  0.80812  1.0000
  H   H247      1.0  0.09062  0.63688  0.10707  1.0000
  C   C200      1.0  0.06491  0.57459  0.13941  1.0000
  C   C201      1.0  0.03532  0.61163  0.31548  1.0000
  H   H248      1.0  0.02151  0.72027  0.76442  1.0000
  H   H249      1.0  0.00449  0.57674  0.33719  1.0000
  C   C202      1.0  0.06736  0.51917  0.48357  1.0000
  H   H250      1.0  0.09414  0.60308  0.06936  1.0000
  H   H251      1.0  0.01400  0.62966  0.77603  1.0000
  H   H252      1.0  0.99832  0.63224  0.21642  1.0000
  S   S70       1.0  0.02267  0.51066  0.64330  1.0000
  H   H253      1.0  0.08165  0.67281  0.63500  1.0000
  H   H254      1.0  0.10996  0.62667  0.77646  1.0000
  C   C203      1.0  0.00271  0.62252  0.29175  1.0000
  C   C204      1.0  0.02970  0.62857  0.30737  1.0000
  S   S71       1.0  0.03057  0.53390  0.55946  1.0000
  C   C205      1.0  0.05913  0.52264  0.51691  1.0000
  C   C206      1.0  0.04157  0.53002  0.45311  1.0000
  C   C207      1.0  0.00350  0.60457  0.73724  1.0000
  H   H255      1.0  0.08705  0.62961  0.15112  1.0000
  H   H256      1.0  0.09198  0.57749  0.20543  1.0000
  C   C208      1.0  0.08701  0.61473  0.71062  1.0000
  S   S72       1.0  0.03551  0.51928  0.72151  1.0000
  Fe  Fe38      1.0  0.05425  0.52227  0.35852  1.0000
  C   C209      1.0  0.04202  0.52978  0.51848  1.0000
  C   C210      1.0  0.08770  0.67558  0.70213  1.0000
  Fe  Fe39      1.0  0.01867  0.53293  0.33903  1.0000
  H   H257      1.0  0.05104  0.62134  0.09978  1.0000
  H   H258      1.0  0.07906  0.65149  0.63494  1.0000
  H   H259      1.0  0.00580  0.72113  0.73108  1.0000
  C   C211      1.0  0.08645  0.59532  0.16178  1.0000
  S   S73       1.0  0.02425  0.53018  0.28106  1.0000
  C   C212      1.0  0.08676  0.64509  0.70561  1.0000
  H   H260      1.0  0.05823  0.66606  0.71971  1.0000
  H   H261      1.0  0.08299  0.68770  0.68782  1.0000
  C   C213      1.0  0.10227  0.62769  0.75294  1.0000
  H   H262      1.0  0.06608  0.51994  0.54125  1.0000
  H   H263      1.0  0.08381  0.67788  0.73048  1.0000
  C   C214      1.0  0.07434  0.57030  0.16991  1.0000
  Fe  Fe40      1.0  0.01436  0.52939  0.68551  1.0000
  N   N11       1.0  0.08070  0.66149  0.68750  1.0000
  H   H264      1.0  0.10148  0.65382  0.74744  1.0000
  H   H265      1.0  0.03693  0.56964  0.81047  1.0000
  S   S74       1.0  0.06903  0.51731  0.40990  1.0000
  H   H266      1.0  0.01500  0.56972  0.29566  1.0000
  H   H267      1.0  0.00543  0.50010  0.70108  1.0000
  H   H268      1.0  0.03811  0.63744  0.30958  1.0000
  H   H269      1.0  0.01403  0.73577  0.82148  1.0000
  H   H270      1.0  0.10618  0.71908  0.19795  1.0000
  H   H271      1.0  0.00119  0.51220  0.79171  1.0000
  H   H272      1.0  0.00837  0.64573  0.08242  1.0000
  H   H273      1.0  0.01384  0.74570  0.19427  1.0000
  C   C215      1.0  0.00295  0.57608  0.30788  1.0000
  H   H274      1.0  0.04952  0.50174  0.57546  1.0000
  C   C216      1.0  0.01339  0.63402  0.29571  1.0000
  H   H275      1.0  0.00914  0.58566  0.24156  1.0000
  H   H276      1.0  0.11546  0.74172  0.16197  1.0000
  H   H277      1.0  0.00907  0.64719  0.28897  1.0000
  H   H278      1.0  0.00037  0.64317  0.12656  1.0000
  H   H279      1.0  0.00403  0.50950  0.22054  1.0000
  H   H280      1.0  0.00235  0.66362  0.03271  1.0000
  C   C217      1.0  0.00028  0.63354  0.78091  1.0000
  N   N12       1.0  0.99824  0.73735  0.77545  1.0000
  H   H281      1.0  0.99808  0.65922  0.73673  1.0000
  C   C218      1.0  0.99764  0.64720  0.72329  1.0000
  H   H282      1.0  0.00328  0.49691  0.27916  1.0000
  Fe  Fe41      1.0  0.18460  0.92818  0.60802  1.0000
  S   S75       1.0  0.15680  0.93541  0.61609  1.0000
  S   S76       1.0  0.19444  0.93429  0.55367  1.0000
  Fe  Fe42      1.0  0.19090  0.92160  0.68782  1.0000
  S   S77       1.0  0.16308  0.92786  0.70059  1.0000
  C   C219      1.0  0.23586  0.92334  0.77147  1.0000
  Fe  Fe43      1.0  0.15925  0.91254  0.65266  1.0000
  S   S78       1.0  0.14418  0.89169  0.63992  1.0000
  Fe  Fe44      1.0  0.16332  0.94987  0.66260  1.0000
  S   S79       1.0  0.15173  0.97716  0.67398  1.0000
  S   S80       1.0  0.18731  0.90477  0.64243  1.0000
  S   S81       1.0  0.19087  0.94401  0.65194  1.0000
  Fe  Fe45      1.0  0.03213  0.82732  0.64276  1.0000
  S   S82       1.0  0.04326  0.80002  0.63703  1.0000
  H   H283      1.0  0.10444  0.79393  0.20783  1.0000
  Fe  Fe46      1.0  0.06658  0.83713  0.66007  1.0000
  S   S83       1.0  0.07981  0.81020  0.65575  1.0000
  S   S84       1.0  0.07908  0.85890  0.67852  1.0000
  Fe  Fe47      1.0  0.06398  0.80969  0.60740  1.0000
  S   S85       1.0  0.07472  0.79791  0.55618  1.0000
  Fe  Fe48      1.0  0.05778  0.80296  0.68598  1.0000
  S   S86       1.0  0.05205  0.83696  0.60964  1.0000
  S   S87       1.0  0.04530  0.82997  0.69380  1.0000
  Fe  Fe49      1.0  0.17658  0.90385  0.37583  1.0000
  S   S88       1.0  0.15126  0.92000  0.38203  1.0000
  S   S89       1.0  0.18814  0.88834  0.42268  1.0000
  Fe  Fe50      1.0  0.17981  0.91357  0.29780  1.0000
  S   S90       1.0  0.15406  0.93010  0.29795  1.0000
  S   S91       1.0  0.01062  0.82473  0.25239  1.0000
  Fe  Fe51      1.0  0.16201  0.93948  0.34983  1.0000
  S   S92       1.0  0.16195  0.96539  0.37265  1.0000
  Fe  Fe52      1.0  0.14548  0.90886  0.33015  1.0000
  S   S93       1.0  0.11988  0.90005  0.32828  1.0000
  S   S94       1.0  0.18793  0.92385  0.34786  1.0000
  S   S95       1.0  0.17066  0.89179  0.32559  1.0000
  Fe  Fe53      1.0  0.05579  0.78764  0.31615  1.0000
  S   S96       1.0  0.05751  0.80620  0.27180  1.0000
  Fe  Fe54      1.0  0.04180  0.81535  0.36820  1.0000
  S   S97       1.0  0.04202  0.83595  0.32716  1.0000
  S   S98       1.0  0.03054  0.82295  0.42202  1.0000
  Fe  Fe55      1.0  0.03174  0.81838  0.29146  1.0000
  H   H284      1.0  0.02758  0.77210  0.26083  1.0000
  Fe  Fe56      1.0  0.06783  0.82186  0.31228  1.0000
  S   S99       1.0  0.09325  0.83075  0.30594  1.0000
  S   S100      1.0  0.02966  0.79909  0.33364  1.0000
  S   S101      1.0  0.06795  0.80200  0.35548  1.0000
  C   C220      1.0  0.11286  0.88050  0.32280  1.0000
  C   C221      1.0  0.09550  0.88027  0.32456  1.0000
  C   C222      1.0  0.08926  0.86527  0.31981  1.0000
  C   C223      1.0  0.10031  0.85015  0.31313  1.0000
  C   C224      1.0  0.11767  0.85032  0.31190  1.0000
  C   C225      1.0  0.12391  0.86531  0.31679  1.0000
  H   H285      1.0  0.08677  0.89189  0.32900  1.0000
  H   H286      1.0  0.07588  0.86552  0.32055  1.0000
  H   H287      1.0  0.12642  0.83879  0.30676  1.0000
  H   H288      1.0  0.13727  0.86516  0.31532  1.0000
  C   C226      1.0  0.06171  0.80384  0.51946  1.0000
  C   C227      1.0  0.06672  0.79740  0.48581  1.0000
  C   C228      1.0  0.05707  0.80296  0.45576  1.0000
  C   C229      1.0  0.04234  0.81492  0.45932  1.0000
  C   C230      1.0  0.03708  0.82100  0.49310  1.0000
  C   C231      1.0  0.04669  0.81542  0.52313  1.0000
  H   H289      1.0  0.07821  0.78828  0.48290  1.0000
  H   H290      1.0  0.06110  0.79797  0.42997  1.0000
  H   H291      1.0  0.12446  0.80552  0.40209  1.0000
  H   H292      1.0  0.04256  0.82024  0.54903  1.0000
  C   C232      1.0  0.19271  0.92116  0.51792  1.0000
  C   C233      1.0  0.19079  0.92825  0.48351  1.0000
  C   C234      1.0  0.18918  0.91823  0.45433  1.0000
  C   C235      1.0  0.19015  0.90093  0.45920  1.0000
  C   C236      1.0  0.19245  0.89373  0.49350  1.0000
  C   C237      1.0  0.19340  0.90389  0.52300  1.0000
  H   H293      1.0  0.19042  0.94157  0.47934  1.0000
  H   H294      1.0  0.18735  0.92392  0.42804  1.0000
  H   H295      1.0  0.19331  0.88032  0.49732  1.0000
  H   H296      1.0  0.19507  0.89833  0.54948  1.0000
  C   C238      1.0  0.12590  0.88290  0.65113  1.0000
  C   C239      1.0  0.11426  0.88944  0.67767  1.0000
  C   C240      1.0  0.10006  0.88201  0.68537  1.0000
  C   C241      1.0  0.09716  0.86792  0.66674  1.0000
  C   C242      1.0  0.10881  0.86137  0.64022  1.0000
  C   C243      1.0  0.12302  0.86880  0.63252  1.0000
  H   H297      1.0  0.11618  0.90024  0.69233  1.0000
  H   H298      1.0  0.09124  0.88722  0.70602  1.0000
  H   H299      1.0  0.10691  0.85053  0.62566  1.0000
  H   H300      1.0  0.13189  0.86352  0.61204  1.0000
  C   C244      1.0  0.16409  0.98442  0.35008  1.0000
  H   H301      1.0  0.12706  0.85461  0.71521  1.0000
  H   H302      1.0  0.22127  0.88236  0.76893  1.0000
  H   H303      1.0  0.22672  0.91128  0.35617  1.0000
  S   S102      1.0  0.06028  0.78563  0.73531  1.0000
  H   H304      1.0  0.13358  0.84221  0.82625  1.0000
  H   H305      1.0  0.14887  0.98128  0.30543  1.0000
  H   H306      1.0  0.09621  0.80485  0.24660  1.0000
  C   C245      1.0  0.00422  0.78597  0.55618  1.0000
  C   C246      1.0  0.12549  0.78191  0.25839  1.0000
  C   C247      1.0  0.00585  0.75142  0.76052  1.0000
  C   C248      1.0  0.18805  0.95922  0.27910  1.0000
  H   H307      1.0  0.22479  0.86970  0.39957  1.0000
  C   C249      1.0  0.16114  0.96871  0.53367  1.0000
  C   C250      1.0  0.23305  0.98074  0.78705  1.0000
  H   H308      1.0  0.00933  0.77513  0.28862  1.0000
  H   H309      1.0  0.22770  0.92533  0.79475  1.0000
  H   H310      1.0  0.05811  0.76164  0.79223  1.0000
  H   H311      1.0  0.18504  0.97962  0.64518  1.0000
  H   H312      1.0  0.00003  0.76363  0.77238  1.0000
  C   C251      1.0  0.23219  0.88152  0.78555  1.0000
  N   N13       1.0  0.21072  0.97463  0.74641  1.0000
  H   H313      1.0  0.01613  0.79003  0.55152  1.0000
  C   C252      1.0  0.22445  0.96060  0.22311  1.0000
  H   H314      1.0  0.02316  0.75500  0.28832  1.0000
  C   C253      1.0  0.24154  0.96081  0.22673  1.0000
  C   C254      1.0  0.17917  0.99175  0.65487  1.0000
  C   C255      1.0  0.09818  0.79229  0.23393  1.0000
  H   H315      1.0  0.18932  0.96594  0.30403  1.0000
  H   H316      1.0  0.23442  0.87923  0.28032  1.0000
  C   C256      1.0  0.11292  0.75909  0.20540  1.0000
  N   N14       1.0  0.13983  0.90427  0.52673  1.0000
  C   C257      1.0  0.12762  0.91023  0.55587  1.0000
  C   C258      1.0  0.15173  0.88955  0.54099  1.0000
  C   C259      1.0  0.14918  0.91795  0.51786  1.0000
  C   C260      1.0  0.13194  0.89968  0.49404  1.0000
  C   C261      1.0  0.14207  0.89314  0.46438  1.0000
  C   C262      1.0  0.11425  0.90227  0.48981  1.0000
  C   C263      1.0  0.13496  0.88966  0.43245  1.0000
  C   C264      1.0  0.10728  0.89891  0.45756  1.0000
  C   C265      1.0  0.11762  0.89272  0.42889  1.0000
  H   H317      1.0  0.12045  0.90035  0.56470  1.0000
  H   H318      1.0  0.13404  0.91345  0.58000  1.0000
  H   H319      1.0  0.11873  0.92185  0.54801  1.0000
  H   H320      1.0  0.14522  0.87888  0.54744  1.0000
  H   H321      1.0  0.15763  0.89257  0.56601  1.0000
  H   H322      1.0  0.16225  0.88504  0.52217  1.0000
  H   H323      1.0  0.14066  0.92935  0.50755  1.0000
  H   H324      1.0  0.15574  0.92153  0.54143  1.0000
  H   H325      1.0  0.15899  0.91428  0.49698  1.0000
  H   H326      1.0  0.15562  0.89107  0.46521  1.0000
  H   H327      1.0  0.10551  0.90716  0.51079  1.0000
  H   H328      1.0  0.20765  0.95295  0.77822  1.0000
  H   H329      1.0  0.09378  0.90146  0.45449  1.0000
  H   H330      1.0  0.19318  0.96437  0.19004  1.0000
  N   N15       1.0  0.19432  0.96734  0.24699  1.0000
  H   H331      1.0  0.24201  0.88132  0.87245  1.0000
  H   H332      1.0  0.19488  0.94608  0.28256  1.0000
  H   H333      1.0  0.22355  0.98763  0.80445  1.0000
  C   C266      1.0  0.20183  0.96648  0.77479  1.0000
  C   C267      1.0  0.20264  0.99260  0.74289  1.0000
  C   C268      1.0  0.15617  0.98939  0.31780  1.0000
  H   H334      1.0  0.17445  0.95875  0.27737  1.0000
  H   H335      1.0  0.12590  0.79440  0.26987  1.0000
  H   H336      1.0  0.13334  0.77210  0.27520  1.0000
  N   N16       1.0  0.09672  0.81547  0.76337  1.0000
  C   C269      1.0  0.08048  0.82513  0.75073  1.0000
  C   C270      1.0  0.10328  0.80229  0.73725  1.0000
  C   C271      1.0  0.09327  0.80684  0.79733  1.0000
  C   C272      1.0  0.10884  0.82695  0.76656  1.0000
  C   C273      1.0  0.11305  0.83633  0.73637  1.0000
  C   C274      1.0  0.11664  0.82931  0.79916  1.0000
  C   C275      1.0  0.12424  0.84744  0.73864  1.0000
  C   C276      1.0  0.12784  0.84047  0.80113  1.0000
  C   C277      1.0  0.13160  0.84954  0.77096  1.0000
  H   H337      1.0  0.07577  0.83605  0.76798  1.0000
  H   H338      1.0  0.08144  0.83016  0.72320  1.0000
  H   H339      1.0  0.07063  0.81722  0.75026  1.0000
  H   H340      1.0  0.11548  0.79472  0.74583  1.0000
  H   H341      1.0  0.10536  0.80763  0.71037  1.0000
  H   H342      1.0  0.09436  0.79351  0.73378  1.0000
  H   H343      1.0  0.08767  0.81600  0.81788  1.0000
  H   H344      1.0  0.08409  0.79834  0.79358  1.0000
  H   H345      1.0  0.10483  0.79880  0.80790  1.0000
  H   H346      1.0  0.10752  0.83535  0.71071  1.0000
  H   H347      1.0  0.11422  0.82279  0.82356  1.0000
  H   H348      1.0  0.19255  0.97498  0.53769  1.0000
  C   C278      1.0  0.21618  0.88261  0.33640  1.0000
  N   N17       1.0  0.23179  0.88427  0.35482  1.0000
  H   H349      1.0  0.07264  0.85750  0.48095  1.0000
  H   H350      1.0  0.10016  0.79365  0.30363  1.0000
  C   C279      1.0  0.21253  0.96721  0.24991  1.0000
  H   H351      1.0  0.05904  0.84373  0.46633  1.0000
  H   H352      1.0  0.23504  0.91484  0.68336  1.0000
  H   H353      1.0  0.21324  0.95278  0.71349  1.0000
  H   H354      1.0  0.23839  0.90142  0.39338  1.0000
  H   H355      1.0  0.14797  0.97115  0.52430  1.0000
  H   H356      1.0  0.21803  0.88203  0.83453  1.0000
  C   C280      1.0  0.06623  0.85360  0.45750  1.0000
  H   H357      1.0  0.07633  0.84051  0.37344  1.0000
  C   C281      1.0  0.21773  0.91529  0.24624  1.0000
  H   H358      1.0  0.05676  0.86467  0.44891  1.0000
  H   H359      1.0  0.22138  0.90869  0.19093  1.0000
  H   H360      1.0  0.09469  0.86483  0.43912  1.0000
  H   H361      1.0  0.21420  0.97227  0.68943  1.0000
  N   N18       1.0  0.07836  0.84754  0.42828  1.0000
  H   H362      1.0  0.07778  0.87304  0.40942  1.0000
  H   H363      1.0  0.08290  0.82977  0.49434  1.0000
  C   C282      1.0  0.08691  0.86156  0.41722  1.0000
  C   C283      1.0  0.09104  0.83266  0.43847  1.0000
  C   C284      1.0  0.09176  0.82523  0.47326  1.0000
  H   H364      1.0  0.10391  0.80548  0.50838  1.0000
  C   C285      1.0  0.22860  0.97317  0.75576  1.0000
  H   H365      1.0  0.02949  0.75711  0.20679  1.0000
  H   H366      1.0  0.06278  0.83225  0.40470  1.0000
  C   C286      1.0  0.06854  0.84338  0.39799  1.0000
  C   C287      1.0  0.10325  0.82514  0.41311  1.0000
  C   C288      1.0  0.10389  0.81113  0.48182  1.0000
  H   H367      1.0  0.09542  0.85841  0.39372  1.0000
  H   H368      1.0  0.10348  0.83006  0.38607  1.0000
  H   H369      1.0  0.05819  0.85392  0.39073  1.0000
  S   S103      1.0  0.00444  0.83609  0.63062  1.0000
  H   H370      1.0  0.19648  0.94493  0.21599  1.0000
  H   H371      1.0  0.02574  0.83033  0.49599  1.0000
  H   H372      1.0  0.21662  0.90126  0.39144  1.0000
  C   C289      1.0  0.11563  0.80404  0.45628  1.0000
  S   S104      1.0  0.20769  0.91852  0.73671  1.0000
  S   S105      1.0  0.19698  0.91107  0.24842  1.0000
  H   H373      1.0  0.18704  0.99230  0.26801  1.0000
  H   H374      1.0  0.06663  0.75197  0.18201  1.0000
  C   C290      1.0  0.21878  0.97431  0.27991  1.0000
  H   H375      1.0  0.16966  0.96286  0.51192  1.0000
  H   H376      1.0  0.12490  0.79303  0.46308  1.0000
  C   C291      1.0  0.05794  0.76424  0.73492  1.0000
  H   H377      1.0  0.13161  0.78170  0.23155  1.0000
  C   C292      1.0  0.11534  0.81106  0.42199  1.0000
  H   H378      1.0  0.18840  0.96695  0.76827  1.0000
  C   C293      1.0  0.22512  0.92093  0.27577  1.0000
  H   H379      1.0  0.11225  0.89057  0.40357  1.0000
  C   C294      1.0  0.22700  0.91297  0.21403  1.0000
  C   C295      1.0  0.05707  0.75586  0.70306  1.0000
  H   H380      1.0  0.14016  0.85829  0.77257  1.0000
  C   C296      1.0  0.10063  0.78077  0.29336  1.0000
  C   C297      1.0  0.24435  0.88111  0.84404  1.0000
  H   H381      1.0  0.05749  0.76255  0.67786  1.0000
  H   H382      1.0  0.16192  0.95900  0.55536  1.0000
  C   C298      1.0  0.24201  0.96406  0.73500  1.0000
  H   H383      1.0  0.00643  0.80919  0.68378  1.0000
  C   C299      1.0  0.24174  0.92370  0.27346  1.0000
  H   H384      1.0  0.99898  0.81290  0.40269  1.0000
  C   C300      1.0  0.15473  0.99067  0.57620  1.0000
  H   H385      1.0  0.19465  0.96786  0.70644  1.0000
  C   C301      1.0  0.23561  0.87009  0.38085  1.0000
  N   N19       1.0  0.10804  0.77894  0.25678  1.0000
  H   H386      1.0  0.21809  0.92309  0.30043  1.0000
  C   C302      1.0  0.16043  0.99546  0.48257  1.0000
  H   H387      1.0  0.00376  0.79065  0.61225  1.0000
  H   H388      1.0  0.11694  0.76864  0.18857  1.0000
  C   C303      1.0  0.05741  0.75529  0.76742  1.0000
  H   H389      1.0  0.06414  0.76898  0.23686  1.0000
  C   C304      1.0  0.22920  0.92012  0.73858  1.0000
  H   H390      1.0  0.23996  0.95748  0.71129  1.0000
  H   H391      1.0  0.14299  0.88506  0.40990  1.0000
  H   H392      1.0  0.17150  0.98569  0.24166  1.0000
  C   C305      1.0  0.18997  0.95832  0.21551  1.0000
  H   H393      1.0  0.21748  0.87041  0.32265  1.0000
  C   C306      1.0  0.20823  0.96654  0.71238  1.0000
  S   S106      1.0  0.06157  0.75928  0.31215  1.0000
  H   H394      1.0  0.18453  0.96933  0.58020  1.0000
  C   C307      1.0  0.23040  0.88146  0.82254  1.0000
  C   C308      1.0  0.23594  0.97414  0.28354  1.0000
  H   H395      1.0  0.08561  0.78938  0.22845  1.0000
  H   H396      1.0  0.20542  0.88301  0.35547  1.0000
  H   H397      1.0  0.17628  0.95810  0.21488  1.0000
  C   C309      1.0  0.18528  0.98496  0.24417  1.0000
  C   C310      1.0  0.22828  0.90022  0.37471  1.0000
  H   H398      1.0  0.14169  0.99516  0.56695  1.0000
  C   C311      1.0  0.06316  0.75587  0.23866  1.0000
  H   H399      1.0  0.08752  0.77848  0.29395  1.0000
  H   H400      1.0  0.21247  0.89298  0.31649  1.0000
  H   H401      1.0  0.20198  0.97251  0.80099  1.0000
  H   H402      1.0  0.21042  0.97997  0.30095  1.0000
  H   H403      1.0  0.18974  0.99159  0.22059  1.0000
  H   H404      1.0  0.22103  0.95477  0.19951  1.0000
  N   N20       1.0  0.16616  0.98429  0.54615  1.0000
  C   C312      1.0  0.16298  0.99401  0.66984  1.0000
  H   H405      1.0  0.00129  0.78050  0.50132  1.0000
  H   H406      1.0  0.00882  0.78262  0.21005  1.0000
  H   H407      1.0  0.18784  0.99024  0.57231  1.0000
  C   C313      1.0  0.18350  0.97960  0.55963  1.0000
  C   C314      1.0  0.99949  0.77530  0.22129  1.0000
  C   C315      1.0  0.24635  0.88416  0.33020  1.0000
  H   H408      1.0  0.15427  0.98078  0.59714  1.0000
  H   H409      1.0  0.24654  0.87102  0.39751  1.0000
  N   N21       1.0  0.00770  0.76027  0.24193  1.0000
  C   C316      1.0  0.01727  0.76584  0.27121  1.0000
  H   H410      1.0  0.18935  0.99411  0.73424  1.0000
  C   C317      1.0  0.24567  0.88127  0.29303  1.0000
  C   C318      1.0  0.24359  0.91599  0.21152  1.0000
  H   H411      1.0  0.23851  0.85785  0.36704  1.0000
  H   H412      1.0  0.01953  0.74960  0.76608  1.0000
  C   C319      1.0  0.23995  0.91741  0.70880  1.0000
  H   H413      1.0  0.15695  0.98400  0.47375  1.0000
  H   H414      1.0  0.00473  0.75246  0.73101  1.0000
  C   C320      1.0  0.01999  0.74994  0.21770  1.0000
  H   H415      1.0  0.17925  0.99168  0.39128  1.0000
  H   H416      1.0  0.10806  0.77201  0.31282  1.0000
  C   C321      1.0  0.17308  0.99539  0.36631  1.0000
  C   C322      1.0  0.10811  0.76221  0.24160  1.0000
  H   H417      1.0  0.09954  0.74971  0.28946  1.0000
  C   C323      1.0  0.06135  0.74828  0.27203  1.0000
  C   C324      1.0  0.10350  0.74864  0.26181  1.0000
  H   H418      1.0  0.24045  0.97926  0.30708  1.0000
  H   H419      1.0  0.99912  0.82384  0.45846  1.0000
  H   H420      1.0  0.99900  0.82475  0.52293  1.0000
  C   C325      1.0  0.24731  0.96724  0.25714  1.0000
  H   H421      1.0  0.24740  0.92785  0.29664  1.0000
  Fe  Fe57      1.0  0.47416  0.07128  0.30698  1.0000
  S   S107      1.0  0.46912  0.06765  0.36556  1.0000
  S   S108      1.0  0.45551  0.07101  0.26181  1.0000
  S   S109      1.0  0.49032  0.09094  0.31466  1.0000
  C   C326      1.0  0.40866  0.00242  0.19338  1.0000
  H   H422      1.0  0.32778  0.00859  0.96518  1.0000
  H   H423      1.0  0.28905  0.02519  0.14701  1.0000
  C   C327      1.0  0.33373  0.01356  0.84608  1.0000
  Fe  Fe58      1.0  0.48664  0.08570  0.37373  1.0000
  S   S110      1.0  0.48093  0.10644  0.41420  1.0000
  H   H424      1.0  0.28335  0.05629  0.73420  1.0000
  H   H425      1.0  0.36292  0.02365  0.10163  1.0000
  H   H426      1.0  0.36262  0.13434  0.61419  1.0000
  C   C328      1.0  0.27730  0.02302  0.16056  1.0000
  C   C329      1.0  0.41930  0.02383  0.22489  1.0000
  C   C330      1.0  0.48012  0.01417  0.38182  1.0000
  S   S111      1.0  0.47443  0.09577  0.68282  1.0000
  C   C331      1.0  0.46446  0.01305  0.54328  1.0000
  H   H427      1.0  0.33867  0.03444  0.74951  1.0000
  C   C332      1.0  0.48014  0.12085  0.51672  1.0000
  Fe  Fe59      1.0  0.46291  0.07242  0.68300  1.0000
  S   S112      1.0  0.43661  0.06674  0.69572  1.0000
  C   C333      1.0  0.34782  0.01293  0.02308  1.0000
  S   S113      1.0  0.47145  0.06645  0.62618  1.0000
  Fe  Fe60      1.0  0.35798  0.07332  0.21972  1.0000
  S   S114      1.0  0.36813  0.05979  0.17053  1.0000
  S   S115      1.0  0.37534  0.07994  0.26229  1.0000
  Fe  Fe61      1.0  0.32102  0.07284  0.20039  1.0000
  S   S116      1.0  0.32904  0.05908  0.14930  1.0000
  S   S117      1.0  0.29246  0.08053  0.20894  1.0000
  Fe  Fe62      1.0  0.34915  0.04363  0.18244  1.0000
  S   S118      1.0  0.35832  0.01578  0.18131  1.0000
  Fe  Fe63      1.0  0.34727  0.07657  0.14126  1.0000
  S   S119      1.0  0.35580  0.08715  0.08859  1.0000
  S   S120      1.0  0.34003  0.05587  0.23398  1.0000
  S   S121      1.0  0.33820  0.09161  0.19008  1.0000
  Fe  Fe64      1.0  0.35449  0.08464  0.82236  1.0000
  S   S122      1.0  0.35488  0.06869  0.87234  1.0000
  S   S123      1.0  0.37747  0.09580  0.80582  1.0000
  Fe  Fe65      1.0  0.31780  0.08254  0.80574  1.0000
  S   S124      1.0  0.31557  0.06631  0.85403  1.0000
  S   S125      1.0  0.29893  0.08857  0.76019  1.0000
  Fe  Fe66      1.0  0.32915  0.08331  0.88410  1.0000
  S   S126      1.0  0.31830  0.08756  0.94043  1.0000
  Fe  Fe67      1.0  0.34144  0.05273  0.83993  1.0000
  S   S127      1.0  0.35022  0.02477  0.84275  1.0000
  S   S128      1.0  0.32945  0.10099  0.83646  1.0000
  S   S129      1.0  0.34298  0.06736  0.78903  1.0000
  C   C334      1.0  0.34528  0.08700  0.04757  1.0000
  C   C335      1.0  0.32840  0.08549  0.04646  1.0000
  C   C336      1.0  0.32033  0.08595  0.01346  1.0000
  C   C337      1.0  0.32912  0.08743  0.98114  1.0000
  C   C338      1.0  0.34610  0.08860  0.98219  1.0000
  C   C339      1.0  0.35406  0.08860  0.01527  1.0000
  H   H428      1.0  0.32145  0.08435  0.07105  1.0000
  H   H429      1.0  0.30717  0.08514  0.01300  1.0000
  H   H430      1.0  0.35300  0.08984  0.95758  1.0000
  H   H431      1.0  0.36711  0.08982  0.01581  1.0000
  H   H432      1.0  0.29274  0.00234  0.76792  1.0000
  H   H433      1.0  0.29480  0.06566  0.28163  1.0000
  H   H434      1.0  0.31581  0.03383  0.86802  1.0000
  C   C340      1.0  0.28170  0.07003  0.27575  1.0000
  H   H435      1.0  0.33242  0.02549  0.12909  1.0000
  H   H436      1.0  0.43927  0.11064  0.24688  1.0000
  C   C341      1.0  0.42038  0.07530  0.72645  1.0000
  C   C342      1.0  0.40506  0.06951  0.72604  1.0000
  C   C343      1.0  0.39206  0.07519  0.75090  1.0000
  C   C344      1.0  0.39405  0.08712  0.77601  1.0000
  C   C345      1.0  0.40918  0.09328  0.77579  1.0000
  C   C346      1.0  0.42235  0.08730  0.75142  1.0000
  H   H437      1.0  0.40324  0.06054  0.70634  1.0000
  H   H438      1.0  0.38039  0.07058  0.75019  1.0000
  H   H439      1.0  0.41079  0.10268  0.79477  1.0000
  H   H440      1.0  0.43400  0.09196  0.75203  1.0000
  C   C347      1.0  0.48227  0.10534  0.46148  1.0000
  C   C348      1.0  0.48605  0.09023  0.48144  1.0000
  C   C349      1.0  0.48675  0.09052  0.51926  1.0000
  Fe  Fe68      1.0  0.48469  0.08820  0.62781  1.0000
  C   C350      1.0  0.39480  0.00663  0.77205  1.0000
  H   H441      1.0  0.37578  0.03943  0.25664  1.0000
  H   H442      1.0  0.34931  0.00696  0.94893  1.0000
  C   C351      1.0  0.35800  0.02503  0.07484  1.0000
  C   C352      1.0  0.37841  0.10258  0.16385  1.0000
  C   C353      1.0  0.43681  0.00675  0.73923  1.0000
  C   C354      1.0  0.43326  0.07283  0.26319  1.0000
  C   C355      1.0  0.42491  0.07092  0.23146  1.0000
  C   C356      1.0  0.40731  0.07242  0.23094  1.0000
  C   C357      1.0  0.39771  0.07634  0.26206  1.0000
  C   C358      1.0  0.40604  0.07815  0.29386  1.0000
  C   C359      1.0  0.42371  0.07624  0.29455  1.0000
  H   H443      1.0  0.43211  0.06845  0.20693  1.0000
  H   H444      1.0  0.40119  0.07090  0.20628  1.0000
  H   H445      1.0  0.39877  0.08125  0.31810  1.0000
  H   H446      1.0  0.42989  0.07782  0.31917  1.0000
  H   H447      1.0  0.29229  0.01835  0.86930  1.0000
  H   H448      1.0  0.46419  0.03324  0.25635  1.0000
  C   C360      1.0  0.46459  0.04920  0.51725  1.0000
  C   C361      1.0  0.47431  0.02243  0.64936  1.0000
  H   H449      1.0  0.31236  0.03553  0.98764  1.0000
  H   H450      1.0  0.47238  0.03501  0.65919  1.0000
  H   H451      1.0  0.47787  0.13281  0.52990  1.0000
  C   C362      1.0  0.48291  0.99835  0.36663  1.0000
  C   C363      1.0  0.46375  0.02239  0.38980  1.0000
  H   H452      1.0  0.34637  0.05511  0.01189  1.0000
  H   H453      1.0  0.46158  0.03472  0.40137  1.0000
  H   H454      1.0  0.34374  0.14337  0.75322  1.0000
  H   H455      1.0  0.33244  0.12982  0.77872  1.0000
  H   H456      1.0  0.35455  0.12430  0.77377  1.0000
  H   H457      1.0  0.41939  0.01249  0.67970  1.0000
  H   H458      1.0  0.40412  0.03782  0.75954  1.0000
  C   C364      1.0  0.39503  0.02371  0.33266  1.0000
  H   H459      1.0  0.47939  0.01323  0.45730  1.0000
  C   C365      1.0  0.35427  0.01118  0.05758  1.0000
  H   H460      1.0  0.46130  0.02219  0.21647  1.0000
  C   C366      1.0  0.26929  0.02645  0.78519  1.0000
  C   C367      1.0  0.37843  0.13203  0.15335  1.0000
  C   C368      1.0  0.35509  0.04073  0.05797  1.0000
  C   C369      1.0  0.34295  0.00548  0.16529  1.0000
  H   H461      1.0  0.39187  0.12386  0.63269  1.0000
  C   C370      1.0  0.47360  0.00957  0.48162  1.0000
  H   H462      1.0  0.44922  0.01952  0.66319  1.0000
  H   H463      1.0  0.25678  0.03397  0.79249  1.0000
  C   C371      1.0  0.47266  0.01909  0.51320  1.0000
  H   H464      1.0  0.34813  0.05347  0.95285  1.0000
  C   C372      1.0  0.45018  0.01432  0.38415  1.0000
  H   H465      1.0  0.38015  0.14409  0.16501  1.0000
  N   N22       1.0  0.44561  0.01733  0.26101  1.0000
  C   C373      1.0  0.45471  0.02863  0.24004  1.0000
  H   H466      1.0  0.35270  0.12448  0.19048  1.0000
  C   C374      1.0  0.38129  0.01311  0.27158  1.0000
  H   H467      1.0  0.45625  0.04955  0.49395  1.0000
  C   C375      1.0  0.24906  0.09304  0.78870  1.0000
  C   C376      1.0  0.48944  0.03822  0.48315  1.0000
  C   C377      1.0  0.38477  0.11718  0.68583  1.0000
  H   H468      1.0  0.33220  0.01757  0.92333  1.0000
  C   C378      1.0  0.36467  0.12288  0.20529  1.0000
  H   H469      1.0  0.34516  0.00172  0.01134  1.0000
  H   H470      1.0  0.28918  0.05906  0.79744  1.0000
  H   H471      1.0  0.44616  0.04001  0.23000  1.0000
  H   H472      1.0  0.41916  0.02574  0.78949  1.0000
  H   H473      1.0  0.46735  0.00772  0.29268  1.0000
  H   H474      1.0  0.29802  0.03817  0.19619  1.0000
  H   H475      1.0  0.39926  0.99883  0.17653  1.0000
  C   C379      1.0  0.26013  0.08349  0.23582  1.0000
  H   H476      1.0  0.36205  0.03373  0.94554  1.0000
  H   H477      1.0  0.26188  0.04746  0.54931  1.0000
  C   C380      1.0  0.33153  0.01324  0.13986  1.0000
  C   C381      1.0  0.31218  0.03640  0.76048  1.0000
  H   H478      1.0  0.31047  0.01088  0.10758  1.0000
  C   C382      1.0  0.28195  0.04905  0.80441  1.0000
  C   C383      1.0  0.38124  0.03018  0.27651  1.0000
  C   C384      1.0  0.25099  0.09235  0.72450  1.0000
  H   H479      1.0  0.49638  0.00376  0.70516  1.0000
  H   H480      1.0  0.26235  0.05493  0.74751  1.0000
  H   H481      1.0  0.47638  0.13226  0.46451  1.0000
  H   H482      1.0  0.39690  0.02842  0.19335  1.0000
  H   H483      1.0  0.48985  0.07896  0.53460  1.0000
  C   C385      1.0  0.45831  0.00321  0.27505  1.0000
  C   C386      1.0  0.31784  0.02124  0.85847  1.0000
  C   C387      1.0  0.25508  0.05539  0.42074  1.0000
  H   H484      1.0  0.26814  0.05653  0.42716  1.0000
  C   C388      1.0  0.32838  0.02768  0.75292  1.0000
  H   H485      1.0  0.38789  0.04875  0.31061  1.0000
  H   H486      1.0  0.42584  0.03860  0.75461  1.0000
  C   C389      1.0  0.33681  0.01534  0.95100  1.0000
  C   C390      1.0  0.31910  0.00497  0.12769  1.0000
  H   H487      1.0  0.34462  0.04088  0.91692  1.0000
  C   C391      1.0  0.34869  0.04019  0.94517  1.0000
  N   N23       1.0  0.37956  0.11856  0.18117  1.0000
  C   C392      1.0  0.34496  0.02880  0.00486  1.0000
  H   H488      1.0  0.48193  0.04036  0.45841  1.0000
  C   C393      1.0  0.38810  0.03548  0.30692  1.0000
  C   C394      1.0  0.27511  0.04732  0.74265  1.0000
  H   H489      1.0  0.27603  0.09046  0.70211  1.0000
  H   H490      1.0  0.31042  0.04994  0.76150  1.0000
  Fe  Fe69      1.0  0.49300  0.04866  0.36417  1.0000
  H   H491      1.0  0.44649  0.03037  0.31036  1.0000
  H   H492      1.0  0.31528  0.04408  0.94357  1.0000
  H   H493      1.0  0.38597  0.11962  0.25482  1.0000
  H   H494      1.0  0.43756  0.02041  0.39131  1.0000
  H   H495      1.0  0.38796  0.12888  0.13167  1.0000
  C   C395      1.0  0.43297  0.01191  0.23823  1.0000
  H   H496      1.0  0.27274  0.06163  0.32639  1.0000
  C   C396      1.0  0.39514  0.00661  0.32802  1.0000
  C   C397      1.0  0.34298  0.13002  0.75928  1.0000
  H   H497      1.0  0.36641  0.10350  0.14945  1.0000
  H   H498      1.0  0.38859  0.09876  0.14376  1.0000
  H   H499      1.0  0.36603  0.13425  0.14002  1.0000
  H   H500      1.0  0.46286  0.01977  0.56804  1.0000
  C   C398      1.0  0.40735  0.01911  0.20290  1.0000
  H   H501      1.0  0.29138  0.00680  0.24104  1.0000
  C   C399      1.0  0.46115  0.01357  0.65196  1.0000
  H   H502      1.0  0.44572  0.01555  0.73438  1.0000
  H   H503      1.0  0.32093  0.05423  0.98171  1.0000
  H   H504      1.0  0.39760  0.11249  0.69391  1.0000
  S   S130      1.0  0.48584  0.05632  0.70700  1.0000
  C   C400      1.0  0.27658  0.09064  0.75953  1.0000
  H   H505      1.0  0.33081  0.10130  0.75407  1.0000
  H   H506      1.0  0.43823  0.10844  0.18152  1.0000
  N   N24       1.0  0.33800  0.03131  0.96853  1.0000
  H   H507      1.0  0.42991  0.01852  0.30818  1.0000
  H   H508      1.0  0.48212  0.03560  0.57206  1.0000
  C   C401      1.0  0.26912  0.06778  0.30112  1.0000
  H   H509      1.0  0.25651  0.08959  0.21049  1.0000
  C   C402      1.0  0.38154  0.12353  0.65139  1.0000
  N   N25       1.0  0.34081  0.12095  0.72629  1.0000
  C   C403      1.0  0.34132  0.10299  0.73558  1.0000
  H   H510      1.0  0.31380  0.12653  0.73299  1.0000
  H   H511      1.0  0.35313  0.09720  0.74903  1.0000
  C   C404      1.0  0.42725  0.11266  0.23375  1.0000
  H   H512      1.0  0.26180  0.04608  0.48485  1.0000
  H   H513      1.0  0.40034  0.02782  0.35642  1.0000
  H   H514      1.0  0.36410  0.11273  0.22561  1.0000
  H   H515      1.0  0.27253  0.09137  0.81636  1.0000
  C   C405      1.0  0.27729  0.07793  0.24286  1.0000
  C   C406      1.0  0.32091  0.04167  0.97046  1.0000
  C   C407      1.0  0.32378  0.12785  0.71272  1.0000
  H   H516      1.0  0.32236  0.14147  0.70583  1.0000
  H   H517      1.0  0.33924  0.13347  0.65520  1.0000
  C   C408      1.0  0.42662  0.11134  0.19692  1.0000
  H   H518      1.0  0.41302  0.11633  0.28268  1.0000
  H   H519      1.0  0.41776  0.03695  0.23129  1.0000
  C   C409      1.0  0.26858  0.09111  0.72646  1.0000
  C   C410      1.0  0.48376  0.10595  0.53696  1.0000
  C   C411      1.0  0.30457  0.01240  0.85962  1.0000
  C   C412      1.0  0.35456  0.12237  0.70040  1.0000
  C   C413      1.0  0.35167  0.12884  0.66504  1.0000
  H   H520      1.0  0.32090  0.12095  0.68902  1.0000
  H   H521      1.0  0.34030  0.09556  0.71143  1.0000
  C   C414      1.0  0.41243  0.11587  0.25388  1.0000
  H   H522      1.0  0.39269  0.01768  0.78828  1.0000
  C   C415      1.0  0.48982  0.01493  0.63478  1.0000
  C   C416      1.0  0.43724  0.02652  0.29224  1.0000
  C   C417      1.0  0.37152  0.11671  0.71001  1.0000
  H   H523      1.0  0.37468  0.11171  0.73636  1.0000
  C   C418      1.0  0.41115  0.11330  0.18005  1.0000
  H   H524      1.0  0.36467  0.13485  0.21923  1.0000
  H   H525      1.0  0.41134  0.11188  0.15149  1.0000
  H   H526      1.0  0.35775  0.05156  0.07168  1.0000
  C   C419      1.0  0.30213  0.01005  0.76339  1.0000
  C   C420      1.0  0.29858  0.02783  0.76669  1.0000
  C   C421      1.0  0.26667  0.09156  0.79069  1.0000
  C   C422      1.0  0.39688  0.11777  0.23735  1.0000
  C   C423      1.0  0.29093  0.00792  0.21145  1.0000
  C   C424      1.0  0.25395  0.05679  0.49689  1.0000
  C   C425      1.0  0.36505  0.12940  0.64106  1.0000
  C   C426      1.0  0.39577  0.11667  0.19972  1.0000
  H   H527      1.0  0.37909  0.09220  0.18398  1.0000
  C   C427      1.0  0.25196  0.07332  0.29403  1.0000
  C   C428      1.0  0.34861  0.04264  0.02361  1.0000
  H   H528      1.0  0.25427  0.05575  0.39108  1.0000
  H   H529      1.0  0.42861  0.03832  0.28461  1.0000
  N   N26       1.0  0.27867  0.02295  0.19992  1.0000
  H   H530      1.0  0.25908  0.04572  0.24689  1.0000
  C   C429      1.0  0.41690  0.02999  0.76131  1.0000
  H   H531      1.0  0.37568  0.00995  0.24746  1.0000
  C   C430      1.0  0.31834  0.00150  0.75519  1.0000
  H   H532      1.0  0.25280  0.04275  0.42930  1.0000
  H   H533      1.0  0.30385  0.00847  0.20149  1.0000
  N   N27       1.0  0.28151  0.03735  0.77471  1.0000
  C   C431      1.0  0.25359  0.00907  0.20941  1.0000
  C   C432      1.0  0.45797  0.99825  0.54202  1.0000
  H   H534      1.0  0.46873  0.06154  0.51793  1.0000
  H   H535      1.0  0.27371  0.01830  0.80876  1.0000
  H   H536      1.0  0.26701  0.03320  0.15132  1.0000
  H   H537      1.0  0.48845  0.07847  0.46763  1.0000
  H   H538      1.0  0.27438  0.03906  0.71969  1.0000
  H   H539      1.0  0.40264  0.02822  0.69659  1.0000
  H   H540      1.0  0.42367  0.03222  0.69348  1.0000
  N   N28       1.0  0.47905  0.03505  0.51483  1.0000
  S   S131      1.0  0.49685  0.05042  0.30529  1.0000
  C   C433      1.0  0.25413  0.05741  0.53413  1.0000
  S   S132      1.0  0.48498  0.10786  0.58392  1.0000
  H   H541      1.0  0.28773  0.04227  0.82838  1.0000
  H   H542      1.0  0.28749  0.03860  0.23838  1.0000
  C   C434      1.0  0.25370  0.03507  0.23981  1.0000
  C   C435      1.0  0.41606  0.02238  0.70009  1.0000
  C   C436      1.0  0.28556  0.03802  0.20922  1.0000
  H   H543      1.0  0.45681  0.04825  0.54174  1.0000
  H   H544      1.0  0.26707  0.01830  0.76302  1.0000
  N   N29       1.0  0.41908  0.01555  0.73686  1.0000
  C   C437      1.0  0.47930  0.12054  0.47951  1.0000
  C   C438      1.0  0.38838  0.00074  0.29719  1.0000
  C   C439      1.0  0.33147  0.01027  0.75035  1.0000
  C   C440      1.0  0.48955  0.03503  0.54678  1.0000
  H   H545      1.0  0.49498  0.04968  0.48604  1.0000
  C   C441      1.0  0.45305  0.99827  0.36969  1.0000
  C   C442      1.0  0.40762  0.00366  0.74518  1.0000
  H   H546      1.0  0.25923  0.99897  0.19216  1.0000
  H   H547      1.0  0.27720  0.04981  0.20019  1.0000
  H   H548      1.0  0.40058  0.99800  0.34888  1.0000
  H   H549      1.0  0.49581  0.04614  0.54712  1.0000
  C   C443      1.0  0.49214  0.99848  0.62264  1.0000
  C   C444      1.0  0.26205  0.02244  0.21661  1.0000
  H   H550      1.0  0.25746  0.08831  0.42912  1.0000
  H   H551      1.0  0.43936  0.00065  0.76593  1.0000
  Fe  Fe70      1.0  0.49487  0.05202  0.65063  1.0000
  H   H552      1.0  0.27490  0.01089  0.15055  1.0000
  H   H553      1.0  0.26916  0.05575  0.81215  1.0000
  S   S133      1.0  0.49722  0.02345  0.39099  1.0000
  C   C445      1.0  0.24754  0.08119  0.26114  1.0000
  H   H554      1.0  0.34410  0.00351  0.74519  1.0000
  C   C446      1.0  0.46353  0.99700  0.64084  1.0000
  H   H555      1.0  0.35631  0.99908  0.07134  1.0000
  H   H556      1.0  0.37448  0.99769  0.79967  1.0000
  Fe  Fe71      1.0  0.44295  0.93478  0.29643  1.0000
  S   S134      1.0  0.43382  0.93982  0.35287  1.0000
  S   S135      1.0  0.42666  0.93257  0.24846  1.0000
  Fe  Fe72      1.0  0.44755  0.96138  0.34840  1.0000
  S   S136      1.0  0.43640  0.98776  0.36350  1.0000
  S   S137      1.0  0.45518  0.95743  0.29149  1.0000
  Fe  Fe73      1.0  0.44464  0.92813  0.68844  1.0000
  S   S138      1.0  0.44506  0.93931  0.63306  1.0000
  S   S139      1.0  0.42067  0.91770  0.70043  1.0000
  Fe  Fe74      1.0  0.45713  0.95867  0.65802  1.0000
  C   C447      1.0  0.25957  0.88166  0.27052  1.0000
  S   S140      1.0  0.45493  0.94881  0.71377  1.0000
  Fe  Fe75      1.0  0.29196  0.92700  0.19765  1.0000
  S   S141      1.0  0.29035  0.93460  0.13925  1.0000
  S   S142      1.0  0.27214  0.92453  0.24086  1.0000
  Fe  Fe76      1.0  0.32952  0.92979  0.20228  1.0000
  S   S143      1.0  0.33098  0.93735  0.14460  1.0000
  S   S144      1.0  0.34849  0.92914  0.24692  1.0000
  Fe  Fe77      1.0  0.30581  0.95359  0.15343  1.0000
  S   S145      1.0  0.30125  0.97955  0.12921  1.0000
  Fe  Fe78      1.0  0.31562  0.91775  0.13316  1.0000
  S   S146      1.0  0.32498  0.90295  0.08348  1.0000
  S   S147      1.0  0.30531  0.94787  0.21177  1.0000
  S   S148      1.0  0.31625  0.90841  0.19075  1.0000
  Fe  Fe79      1.0  0.30136  0.95841  0.83776  1.0000
  S   S149      1.0  0.31371  0.94891  0.78647  1.0000
  S   S150      1.0  0.29026  0.98539  0.84650  1.0000
  Fe  Fe80      1.0  0.30720  0.92424  0.87505  1.0000
  S   S151      1.0  0.32052  0.91163  0.82639  1.0000
  S   S152      1.0  0.29741  0.91251  0.92525  1.0000
  Fe  Fe81      1.0  0.33366  0.93401  0.82124  1.0000
  S   S153      1.0  0.36118  0.93718  0.81586  1.0000
  Fe  Fe82      1.0  0.29955  0.92766  0.79523  1.0000
  S   S154      1.0  0.28606  0.91863  0.74879  1.0000
  S   S155      1.0  0.32179  0.94510  0.87259  1.0000
  S   S156      1.0  0.28567  0.93871  0.84366  1.0000
  C   C448      1.0  0.32919  0.98139  0.16714  1.0000
  H   H557      1.0  0.38903  0.98238  0.23539  1.0000
  H   H558      1.0  0.36551  0.98331  0.32211  1.0000
  S   S157      1.0  0.48364  0.94527  0.64866  1.0000
  C   C449      1.0  0.38580  0.98052  0.75946  1.0000
  H   H559      1.0  0.32538  0.97507  0.82846  1.0000
  H   H560      1.0  0.25798  0.92606  0.80019  1.0000
  C   C450      1.0  0.26398  0.92014  0.74532  1.0000
  H   H561      1.0  0.25298  0.98490  0.82119  1.0000
  H   H562      1.0  0.44403  0.98500  0.23605  1.0000
  H   H563      1.0  0.34946  0.96913  0.05969  1.0000
  H   H564      1.0  0.49625  0.94051  0.48802  1.0000
  C   C451      1.0  0.25873  0.96276  0.74504  1.0000
  H   H565      1.0  0.45397  0.97782  0.50972  1.0000
  C   C452      1.0  0.46935  0.99058  0.35995  1.0000
  H   H566      1.0  0.26557  0.91456  0.68934  1.0000
  C   C453      1.0  0.40628  0.97323  0.29499  1.0000
  S   S158      1.0  0.48080  0.90911  0.57936  1.0000
  H   H567      1.0  0.26791  0.86858  0.89751  1.0000
  H   H568      1.0  0.40715  0.95960  0.29044  1.0000
  C   C454      1.0  0.27561  0.88754  0.32038  1.0000
  C   C455      1.0  0.32321  0.98790  0.83721  1.0000
  H   H569      1.0  0.32814  0.96928  0.17860  1.0000
  C   C456      1.0  0.31735  0.90737  0.03960  1.0000
  C   C457      1.0  0.30077  0.91519  0.03308  1.0000
  C   C458      1.0  0.29498  0.91744  0.99777  1.0000
  C   C459      1.0  0.30581  0.91244  0.96860  1.0000
  C   C460      1.0  0.32251  0.90512  0.97515  1.0000
  C   C461      1.0  0.32814  0.90232  0.01044  1.0000
  H   H570      1.0  0.29224  0.91886  0.05526  1.0000
  H   H571      1.0  0.28192  0.92270  0.99309  1.0000
  H   H572      1.0  0.33088  0.90078  0.95309  1.0000
  H   H573      1.0  0.34091  0.89604  0.01518  1.0000
  H   H574      1.0  0.36839  0.98426  0.25589  1.0000
  H   H575      1.0  0.46596  0.99622  0.25335  1.0000
  S   S159      1.0  0.47186  0.94707  0.36919  1.0000
  C   C462      1.0  0.46348  0.92342  0.47842  1.0000
  H   H576      1.0  0.41188  0.97410  0.32146  1.0000
  C   C463      1.0  0.33746  0.97397  0.92929  1.0000
  C   C464      1.0  0.34197  0.98941  0.17838  1.0000
  H   H577      1.0  0.26067  0.96663  0.26035  1.0000
  H   H578      1.0  0.35986  0.96056  0.00271  1.0000
  H   H579      1.0  0.28514  0.89869  0.81441  1.0000
  C   C465      1.0  0.38411  0.99518  0.77892  1.0000
  C   C466      1.0  0.47896  0.98948  0.62573  1.0000
  H   H580      1.0  0.27557  0.96900  0.78387  1.0000
  Fe  Fe83      1.0  0.48096  0.93370  0.70299  1.0000
  Fe  Fe84      1.0  0.45908  0.92501  0.36891  1.0000
  C   C467      1.0  0.40403  0.92395  0.73196  1.0000
  C   C468      1.0  0.38879  0.91826  0.72809  1.0000
  C   C469      1.0  0.37542  0.92240  0.75303  1.0000
  C   C470      1.0  0.37725  0.93206  0.78258  1.0000
  C   C471      1.0  0.39250  0.93775  0.78642  1.0000
  C   C472      1.0  0.40575  0.93387  0.76116  1.0000
  H   H581      1.0  0.38732  0.91051  0.70577  1.0000
  H   H582      1.0  0.36384  0.91786  0.74974  1.0000
  H   H583      1.0  0.39412  0.94514  0.80926  1.0000
  H   H584      1.0  0.41741  0.93822  0.76476  1.0000
  H   H585      1.0  0.31070  0.97726  0.92490  1.0000
  C   C473      1.0  0.31310  0.95526  0.04706  1.0000
  H   H586      1.0  0.32085  0.98790  0.75384  1.0000
  H   H587      1.0  0.47157  0.97880  0.34644  1.0000
  H   H588      1.0  0.39945  0.96580  0.71779  1.0000
  C   C474      1.0  0.48179  0.89541  0.51391  1.0000
  C   C475      1.0  0.47799  0.89455  0.47789  1.0000
  H   H589      1.0  0.41449  0.97798  0.27470  1.0000
  C   C476      1.0  0.38744  0.87494  0.60751  1.0000
  C   C477      1.0  0.40499  0.93128  0.24849  1.0000
  C   C478      1.0  0.39592  0.92957  0.28008  1.0000
  C   C479      1.0  0.37867  0.92896  0.27895  1.0000
  C   C480      1.0  0.37026  0.92997  0.24633  1.0000
  C   C481      1.0  0.37929  0.93178  0.21474  1.0000
  C   C482      1.0  0.39656  0.93240  0.21587  1.0000
  H   H590      1.0  0.40222  0.92855  0.30535  1.0000
  H   H591      1.0  0.37182  0.92747  0.30351  1.0000
  H   H592      1.0  0.37301  0.93254  0.18947  1.0000
  H   H593      1.0  0.40345  0.93368  0.19127  1.0000
  N   N30       1.0  0.43525  0.89046  0.59101  1.0000
  C   C483      1.0  0.44452  0.88876  0.62500  1.0000
  C   C484      1.0  0.44641  0.88072  0.56390  1.0000
  C   C485      1.0  0.43214  0.90835  0.57929  1.0000
  C   C486      1.0  0.41897  0.88490  0.59629  1.0000
  C   C487      1.0  0.41379  0.87269  0.57460  1.0000
  H   H594      1.0  0.44597  0.87576  0.63627  1.0000
  H   H595      1.0  0.45731  0.89182  0.62141  1.0000
  H   H596      1.0  0.43820  0.89744  0.64566  1.0000
  H   H597      1.0  0.44903  0.86708  0.57085  1.0000
  H   H598      1.0  0.45881  0.88471  0.56196  1.0000
  H   H599      1.0  0.44106  0.88266  0.53672  1.0000
  H   H600      1.0  0.42471  0.91662  0.59942  1.0000
  H   H601      1.0  0.44410  0.91303  0.57480  1.0000
  H   H602      1.0  0.42514  0.91021  0.55390  1.0000
  H   H603      1.0  0.42147  0.86675  0.55295  1.0000
  C   C488      1.0  0.27236  0.88035  0.88960  1.0000
  C   C489      1.0  0.26061  0.88089  0.82880  1.0000
  H   H604      1.0  0.33887  0.93157  0.01967  1.0000
  H   H605      1.0  0.33939  0.97737  0.90162  1.0000
  C   C490      1.0  0.34123  0.93986  0.04146  1.0000
  H   H606      1.0  0.31213  0.94966  0.07427  1.0000
  C   C491      1.0  0.30716  0.99588  0.84810  1.0000
  H   H607      1.0  0.28792  0.99605  0.20131  1.0000
  C   C492      1.0  0.39205  0.88709  0.62887  1.0000
  H   H608      1.0  0.28490  0.88600  0.26617  1.0000
  S   S160      1.0  0.44717  0.98589  0.64685  1.0000
  C   C493      1.0  0.28143  0.89729  0.84286  1.0000
  C   C494      1.0  0.45916  0.98920  0.51068  1.0000
  C   C495      1.0  0.33259  0.96340  0.00079  1.0000
  H   H609      1.0  0.28394  0.88060  0.90499  1.0000
  C   C496      1.0  0.40750  0.89208  0.62329  1.0000
  C   C497      1.0  0.33606  0.96816  0.06343  1.0000
  Fe  Fe85      1.0  0.47126  0.92488  0.62765  1.0000
  H   H610      1.0  0.32834  0.98102  0.06144  1.0000
  H   H611      1.0  0.30823  0.94690  0.02844  1.0000
  C   C498      1.0  0.39826  0.86781  0.58036  1.0000
  H   H612      1.0  0.26343  0.88905  0.37120  1.0000
  C   C499      1.0  0.42200  0.99038  0.20567  1.0000
  H   H613      1.0  0.28719  0.89029  0.33062  1.0000
  C   C500      1.0  0.46895  0.90848  0.45968  1.0000
  C   C501      1.0  0.31769  0.98921  0.14197  1.0000
  C   C502      1.0  0.43404  0.99498  0.22767  1.0000
  C   C503      1.0  0.31880  0.96866  0.97775  1.0000
  C   C504      1.0  0.24796  0.88114  0.76984  1.0000
  H   H614      1.0  0.42301  0.97735  0.19822  1.0000
  H   H615      1.0  0.38361  0.89271  0.64993  1.0000
  S   S161      1.0  0.46747  0.91809  0.31212  1.0000
  H   H616      1.0  0.24920  0.88173  0.74102  1.0000
  C   C505      1.0  0.47604  0.90999  0.53319  1.0000
  H   H617      1.0  0.33866  0.93349  0.06706  1.0000
  N   N31       1.0  0.27555  0.88134  0.85051  1.0000
  C   C506      1.0  0.26187  0.88699  0.34326  1.0000
  Fe  Fe86      1.0  0.47889  0.94145  0.31177  1.0000
  N   N32       1.0  0.38874  0.98253  0.29293  1.0000
  C   C507      1.0  0.34881  0.96430  0.98674  1.0000
  H   H618      1.0  0.38394  0.97748  0.34870  1.0000
  H   H619      1.0  0.45224  0.99429  0.29136  1.0000
  C   C508      1.0  0.27442  0.88498  0.28406  1.0000
  H   H620      1.0  0.45640  0.93425  0.46469  1.0000
  C   C509      1.0  0.39813  0.97728  0.73280  1.0000
  H   H621      1.0  0.30599  0.96843  0.98590  1.0000
  H   H622      1.0  0.49550  0.99223  0.35935  1.0000
  H   H623      1.0  0.33463  0.96360  0.09135  1.0000
  H   H624      1.0  0.30038  0.86676  0.85844  1.0000
  C   C510      1.0  0.26195  0.88095  0.79100  1.0000
  C   C511      1.0  0.25310  0.92359  0.77474  1.0000
  H   H625      1.0  0.38249  0.96460  0.25602  1.0000
  H   H626      1.0  0.34883  0.99054  0.82737  1.0000
  H   H627      1.0  0.28499  0.85492  0.84458  1.0000
  H   H628      1.0  0.49078  0.98084  0.74830  1.0000
  N   N33       1.0  0.33063  0.95682  0.03750  1.0000
  H   H629      1.0  0.39456  0.85845  0.56360  1.0000
  H   H630      1.0  0.25064  0.91401  0.18671  1.0000
  H   H631      1.0  0.35079  0.98331  0.19797  1.0000
  H   H632      1.0  0.37543  0.87112  0.61194  1.0000
  C   C512      1.0  0.40883  0.98869  0.72551  1.0000
  H   H633      1.0  0.48894  0.88447  0.52719  1.0000
  S   S162      1.0  0.47042  0.91198  0.68167  1.0000
  H   H634      1.0  0.30453  0.96770  0.04741  1.0000
  H   H635      1.0  0.37826  0.96269  0.31894  1.0000
  H   H636      1.0  0.27146  0.90824  0.84940  1.0000
  C   C513      1.0  0.35117  0.96935  0.95141  1.0000
  S   S163      1.0  0.46456  0.90573  0.41420  1.0000
  H   H637      1.0  0.46745  0.98805  0.45581  1.0000
  C   C514      1.0  0.46680  0.92409  0.51537  1.0000
  H   H638      1.0  0.46232  0.93547  0.52990  1.0000
  C   C515      1.0  0.38187  0.97838  0.25855  1.0000
  C   C516      1.0  0.26261  0.97032  0.77589  1.0000
  H   H639      1.0  0.29257  0.89823  0.85890  1.0000
  H   H640      1.0  0.49213  0.91038  0.36896  1.0000
  H   H641      1.0  0.48214  0.88292  0.46399  1.0000
  H   H642      1.0  0.29394  0.86813  0.81340  1.0000
  H   H643      1.0  0.41037  0.90170  0.64032  1.0000
  C   C517      1.0  0.28925  0.86715  0.84128  1.0000
  H   H644      1.0  0.35486  0.94010  0.04111  1.0000
  C   C518      1.0  0.25111  0.92118  0.24143  1.0000
  H   H645      1.0  0.48061  0.97693  0.61562  1.0000
  C   C519      1.0  0.46686  0.99491  0.48047  1.0000
  C   C520      1.0  0.32131  0.97385  0.94252  1.0000
  H   H646      1.0  0.25861  0.88008  0.24206  1.0000
  H   H647      1.0  0.26309  0.89138  0.89896  1.0000
  H   H648      1.0  0.37756  0.97161  0.76513  1.0000
  C   C521      1.0  0.25728  0.91721  0.71230  1.0000
  H   H649      1.0  0.27374  0.88150  0.77737  1.0000
  C   C522      1.0  0.37869  0.97627  0.32198  1.0000
  H   H650      1.0  0.41806  0.98568  0.70425  1.0000
  H   H651      1.0  0.45187  0.99383  0.56549  1.0000
  C   C523      1.0  0.24981  0.97929  0.79687  1.0000
  H   H652      1.0  0.26875  0.95540  0.72929  1.0000
  H   H653      1.0  0.25051  0.95518  0.20657  1.0000
  H   H654      1.0  0.36373  0.96923  0.94072  1.0000
  H   H655      1.0  0.44016  0.99682  0.71904  1.0000
  C   C524      1.0  0.33652  0.99671  0.83642  1.0000
  Fe  Fe87      1.0  0.65294  0.08409  0.19146  1.0000
  S   S164      1.0  0.66412  0.06195  0.15860  1.0000
  S   S165      1.0  0.66692  0.09767  0.23014  1.0000
  Fe  Fe88      1.0  0.61666  0.08008  0.17582  1.0000
  S   S166      1.0  0.62537  0.05748  0.14196  1.0000
  S   S167      1.0  0.58887  0.09122  0.18506  1.0000
  Fe  Fe89      1.0  0.64437  0.04965  0.18464  1.0000
  S   S168      1.0  0.65166  0.02410  0.20984  1.0000
  Fe  Fe90      1.0  0.64426  0.07178  0.11792  1.0000
  S   S169      1.0  0.65185  0.06671  0.05944  1.0000
  S   S170      1.0  0.63428  0.07095  0.22018  1.0000
  S   S171      1.0  0.63442  0.09527  0.14903  1.0000
  Fe  Fe91      1.0  0.65011  0.08663  0.78772  1.0000
  S   S172      1.0  0.65523  0.07390  0.84125  1.0000
  S   S173      1.0  0.66768  0.09765  0.74954  1.0000
  Fe  Fe92      1.0  0.61328  0.08090  0.78686  1.0000
  S   S174      1.0  0.61545  0.06766  0.84036  1.0000
  S   S175      1.0  0.59295  0.08231  0.74481  1.0000
  Fe  Fe93      1.0  0.62949  0.08752  0.85753  1.0000
  S   S176      1.0  0.62436  0.10004  0.91148  1.0000
  Fe  Fe94      1.0  0.64099  0.05491  0.82118  1.0000
  S   S177      1.0  0.65164  0.02736  0.82669  1.0000
  S   S178      1.0  0.62531  0.10212  0.80522  1.0000
  S   S179      1.0  0.63791  0.06636  0.76649  1.0000
  H   H656      1.0  0.55650  0.12515  0.63010  1.0000
  C   C525      1.0  0.67349  0.08770  0.92395  1.0000
  H   H657      1.0  0.66202  0.11161  0.97228  1.0000
  H   H658      1.0  0.52735  0.04596  0.18565  1.0000
  H   H659      1.0  0.53359  0.05134  0.22874  1.0000
  H   H660      1.0  0.49951  0.02356  0.54822  1.0000
  H   H661      1.0  0.63369  0.10068  0.27085  1.0000
  H   H662      1.0  0.59603  0.00456  0.73125  1.0000
  H   H663      1.0  0.74270  0.00815  0.72094  1.0000
  H   H664      1.0  0.60827  0.01057  0.76583  1.0000
  H   H665      1.0  0.58793  0.00580  0.77615  1.0000
  H   H666      1.0  0.53458  0.09593  0.63833  1.0000
  C   C526      1.0  0.68995  0.09317  0.74883  1.0000
  C   C527      1.0  0.69865  0.09868  0.71939  1.0000
  C   C528      1.0  0.71634  0.09582  0.71810  1.0000
  C   C529      1.0  0.72550  0.08766  0.74661  1.0000
  C   C530      1.0  0.71680  0.08211  0.77605  1.0000
  C   C531      1.0  0.69912  0.08473  0.77707  1.0000
  H   H667      1.0  0.69166  0.10527  0.69747  1.0000
  H   H668      1.0  0.72285  0.10018  0.69532  1.0000
  H   H669      1.0  0.72377  0.07577  0.79824  1.0000
  H   H670      1.0  0.69259  0.08046  0.79991  1.0000
  C   C532      1.0  0.64238  0.07560  0.01942  1.0000
  C   C533      1.0  0.64594  0.06659  0.98771  1.0000
  C   C534      1.0  0.63973  0.07354  0.95478  1.0000
  C   C535      1.0  0.63039  0.08989  0.95296  1.0000
  C   C536      1.0  0.62666  0.09883  0.98470  1.0000
  C   C537      1.0  0.63248  0.09168  0.01782  1.0000
  H   H671      1.0  0.65367  0.05417  0.98861  1.0000
  H   H672      1.0  0.64264  0.06645  0.93065  1.0000
  H   H673      1.0  0.61937  0.11145  0.98364  1.0000
  H   H674      1.0  0.62969  0.09879  0.04195  1.0000
  C   C538      1.0  0.68894  0.09328  0.23719  1.0000
  C   C539      1.0  0.69506  0.09630  0.27077  1.0000
  C   C540      1.0  0.71246  0.09434  0.27662  1.0000
  C   C541      1.0  0.72393  0.08983  0.24857  1.0000
  C   C542      1.0  0.71784  0.08658  0.21512  1.0000
  C   C543      1.0  0.70046  0.08805  0.20957  1.0000
  H   H675      1.0  0.68629  0.10044  0.29228  1.0000
  H   H676      1.0  0.71693  0.09698  0.30243  1.0000
  H   H677      1.0  0.72657  0.08322  0.19315  1.0000
  H   H678      1.0  0.69595  0.08585  0.18351  1.0000
  H   H679      1.0  0.50901  0.13721  0.61011  1.0000
  H   H680      1.0  0.59100  0.05037  0.71552  1.0000
  H   H681      1.0  0.54758  0.01941  0.66958  1.0000
  C   C544      1.0  0.63580  0.01564  0.83384  1.0000
  C   C545      1.0  0.62073  0.02281  0.85068  1.0000
  C   C546      1.0  0.60752  0.01395  0.85369  1.0000
  H   H682      1.0  0.56514  0.01203  0.17147  1.0000
  C   C547      1.0  0.63121  0.02632  0.01552  1.0000
  H   H683      1.0  0.61930  0.03511  0.86185  1.0000
  H   H684      1.0  0.59576  0.01968  0.86621  1.0000
  H   H685      1.0  0.70632  0.06037  0.70257  1.0000
  H   H686      1.0  0.55825  0.03411  0.25745  1.0000
  H   H687      1.0  0.67224  0.08220  0.95115  1.0000
  C   C548      1.0  0.63473  0.01359  0.20881  1.0000
  C   C549      1.0  0.61883  0.02228  0.19939  1.0000
  C   C550      1.0  0.60569  0.01356  0.19504  1.0000
  H   H688      1.0  0.57633  0.01639  0.69076  1.0000
  C   C551      1.0  0.55432  0.12449  0.65854  1.0000
  H   H689      1.0  0.61671  0.03570  0.19497  1.0000
  H   H690      1.0  0.59370  0.02023  0.18599  1.0000
  C   C552      1.0  0.53584  0.08365  0.74744  1.0000
  C   C553      1.0  0.54530  0.08032  0.71598  1.0000
  C   C554      1.0  0.56274  0.07994  0.71582  1.0000
  C   C555      1.0  0.57101  0.08251  0.74720  1.0000
  C   C556      1.0  0.56165  0.08531  0.77895  1.0000
  C   C557      1.0  0.54412  0.08602  0.77895  1.0000
  H   H691      1.0  0.53917  0.07823  0.69172  1.0000
  H   H692      1.0  0.56986  0.07777  0.69113  1.0000
  H   H693      1.0  0.56783  0.08733  0.80330  1.0000
  H   H694      1.0  0.53692  0.08857  0.80347  1.0000
  C   C558      1.0  0.55346  0.07192  0.26743  1.0000
  C   C559      1.0  0.54722  0.08452  0.24253  1.0000
  C   C560      1.0  0.55821  0.09023  0.21739  1.0000
  C   C561      1.0  0.57550  0.08339  0.21677  1.0000
  C   C562      1.0  0.58170  0.07076  0.24162  1.0000
  C   C563      1.0  0.57075  0.06514  0.26687  1.0000
  H   H695      1.0  0.55330  0.10003  0.19831  1.0000
  H   H696      1.0  0.59497  0.06544  0.24161  1.0000
  H   H697      1.0  0.57576  0.05545  0.28611  1.0000
  H   H698      1.0  0.54571  0.05523  0.19070  1.0000
  C   C564      1.0  0.66545  0.11418  0.86523  1.0000
  H   H699      1.0  0.55658  0.11501  0.28192  1.0000
  H   H700      1.0  0.52645  0.00129  0.36091  1.0000
  H   H701      1.0  0.68333  0.07902  0.90893  1.0000
  H   H702      1.0  0.63913  0.12066  0.26271  1.0000
  N   N34       1.0  0.67746  0.10478  0.92521  1.0000
  H   H703      1.0  0.53063  0.03146  0.26934  1.0000
  H   H704      1.0  0.66565  0.12908  0.94427  1.0000
  H   H705      1.0  0.56366  0.03365  0.15982  1.0000
  H   H706      1.0  0.66142  0.08778  0.91046  1.0000
  C   C565      1.0  0.69662  0.11866  0.83789  1.0000
  H   H707      1.0  0.65635  0.12142  0.81248  1.0000
  C   C566      1.0  0.57360  0.09842  0.31542  1.0000
  H   H708      1.0  0.53020  0.14050  0.61120  1.0000
  H   H709      1.0  0.70877  0.11999  0.82668  1.0000
  H   H710      1.0  0.68937  0.02192  0.22722  1.0000
  H   H711      1.0  0.61574  0.09457  0.31531  1.0000
  H   H712      1.0  0.70655  0.11103  0.88843  1.0000
  C   C567      1.0  0.69514  0.11342  0.87343  1.0000
  C   C568      1.0  0.69274  0.10372  0.94691  1.0000
  H   H713      1.0  0.69059  0.09954  0.97487  1.0000
  C   C569      1.0  0.56280  0.02972  0.23053  1.0000
  H   H714      1.0  0.60772  0.14187  0.29839  1.0000
  C   C570      1.0  0.59521  0.01193  0.75598  1.0000
  N   N35       1.0  0.54880  0.02897  0.20628  1.0000
  H   H715      1.0  0.70339  0.09436  0.93617  1.0000
  C   C571      1.0  0.53831  0.12302  0.67296  1.0000
  H   H716      1.0  0.54637  0.02358  0.15078  1.0000
  S   S180      1.0  0.51366  0.08540  0.74834  1.0000
  H   H717      1.0  0.63061  0.11627  0.30544  1.0000
  C   C572      1.0  0.53840  0.04604  0.20267  1.0000
  S   S181      1.0  0.50898  0.07321  0.64772  1.0000
  H   H718      1.0  0.68387  0.12543  0.78847  1.0000
  C   C573      1.0  0.51964  0.13770  0.62824  1.0000
  H   H719      1.0  0.52779  0.00094  0.77946  1.0000
  C   C574      1.0  0.51973  0.00954  0.26887  1.0000
  H   H720      1.0  0.51893  0.10567  0.60736  1.0000
  C   C575      1.0  0.71938  0.04322  0.31815  1.0000
  H   H721      1.0  0.52904  0.04884  0.76015  1.0000
  H   H722      1.0  0.57103  0.01719  0.23371  1.0000
  H   H723      1.0  0.50009  0.02758  0.47874  1.0000
  C   C576      1.0  0.54994  0.02502  0.69449  1.0000
  C   C577      1.0  0.70453  0.00213  0.25821  1.0000
  H   H724      1.0  0.60051  0.12361  0.21183  1.0000
  H   H725      1.0  0.72268  0.01406  0.76360  1.0000
  H   H726      1.0  0.57842  0.12744  0.25187  1.0000
  H   H727      1.0  0.67831  0.06179  0.72727  1.0000
  C   C578      1.0  0.55624  0.02429  0.17054  1.0000
  H   H728      1.0  0.57667  0.12374  0.73445  1.0000
  H   H729      1.0  0.62486  0.04156  0.96848  1.0000
  C   C579      1.0  0.55691  0.02346  0.33920  1.0000
  H   H730      1.0  0.68297  0.00307  0.18115  1.0000
  C   C580      1.0  0.56634  0.02342  0.70680  1.0000
  H   H731      1.0  0.72858  0.04723  0.66473  1.0000
  C   C581      1.0  0.53705  0.00189  0.20442  1.0000
  H   H732      1.0  0.58383  0.05232  0.78138  1.0000
  C   C582      1.0  0.72094  0.04434  0.24373  1.0000
  C   C583      1.0  0.52957  0.10787  0.62378  1.0000
  C   C584      1.0  0.70582  0.05027  0.26187  1.0000
  H   H733      1.0  0.50361  0.12903  0.68620  1.0000
  C   C585      1.0  0.54188  0.01993  0.35322  1.0000
  H   H734      1.0  0.57971  0.01470  0.31158  1.0000
  C   C586      1.0  0.62528  0.01534  0.95872  1.0000
  C   C587      1.0  0.62798  0.99863  0.97276  1.0000
  H   H735      1.0  0.74126  0.04972  0.75911  1.0000
  H   H736      1.0  0.70663  0.01107  0.27766  1.0000
  H   H737      1.0  0.52394  0.03583  0.70350  1.0000
  S   S182      1.0  0.50617  0.02624  0.63237  1.0000
  H   H738      1.0  0.73183  0.01550  0.68070  1.0000
  H   H739      1.0  0.60544  0.99846  0.92044  1.0000
  H   H740      1.0  0.72061  0.04552  0.21504  1.0000
  H   H741      1.0  0.51771  0.00513  0.69374  1.0000
  H   H742      1.0  0.69344  0.05500  0.31278  1.0000
  H   H743      1.0  0.61009  0.03779  0.73112  1.0000
  C   C588      1.0  0.59032  0.09273  0.32423  1.0000
  H   H744      1.0  0.61869  0.14548  0.25753  1.0000
  C   C589      1.0  0.69700  0.02571  0.76862  1.0000
  H   H745      1.0  0.52502  0.12149  0.72444  1.0000
  H   H746      1.0  0.65320  0.11208  0.87402  1.0000
  C   C590      1.0  0.68809  0.05124  0.73447  1.0000
  H   H747      1.0  0.69662  0.11616  0.94823  1.0000
  C   C591      1.0  0.62691  0.02892  0.97984  1.0000
  C   C592      1.0  0.68262  0.12176  0.81625  1.0000
  S   S183      1.0  0.54034  0.06358  0.29891  1.0000
  H   H748      1.0  0.53397  0.08986  0.24259  1.0000
  C   C593      1.0  0.56956  0.11102  0.28952  1.0000
  H   H749      1.0  0.53296  0.02968  0.36631  1.0000
  C   C594      1.0  0.71745  0.03665  0.72973  1.0000
  H   H750      1.0  0.55715  0.04653  0.78233  1.0000
  S   S184      1.0  0.51003  0.06624  0.37661  1.0000
  Fe  Fe95      1.0  0.51268  0.06958  0.31714  1.0000
  H   H751      1.0  0.58023  0.12535  0.66904  1.0000
  H   H752      1.0  0.50917  0.01062  0.73734  1.0000
  C   C595      1.0  0.67940  0.11109  0.88827  1.0000
  H   H753      1.0  0.59856  0.03006  0.69728  1.0000
  C   C596      1.0  0.53661  0.12272  0.71078  1.0000
  H   H754      1.0  0.69469  0.05570  0.24706  1.0000
  C   C597      1.0  0.53656  0.03417  0.71367  1.0000
  C   C598      1.0  0.69470  0.00862  0.22914  1.0000
  H   H755      1.0  0.53940  0.11037  0.60443  1.0000
  H   H756      1.0  0.67187  0.04003  0.76980  1.0000
  H   H757      1.0  0.60227  0.03766  0.79157  1.0000
  H   H758      1.0  0.51165  0.10671  0.68442  1.0000
  H   H759      1.0  0.71885  0.04320  0.34706  1.0000
  H   H760      1.0  0.54886  0.12244  0.76125  1.0000
  C   C599      1.0  0.53947  0.04147  0.74556  1.0000
  H   H761      1.0  0.51570  0.14852  0.64622  1.0000
  H   H762      1.0  0.73404  0.06098  0.69812  1.0000
  C   C600      1.0  0.53851  0.01708  0.22133  1.0000
  H   H763      1.0  0.63260  0.03689  0.03176  1.0000
  H   H764      1.0  0.59676  0.14540  0.25703  1.0000
  C   C601      1.0  0.56838  0.01101  0.32194  1.0000
  H   H765      1.0  0.62196  0.01806  0.93118  1.0000
  H   H766      1.0  0.49884  0.11732  0.64959  1.0000
  H   H767      1.0  0.62271  0.12301  0.21025  1.0000
  C   C602      1.0  0.70434  0.05020  0.72030  1.0000
  H   H768      1.0  0.59341  0.08265  0.34384  1.0000
  N   N36       1.0  0.52431  0.12180  0.64901  1.0000
  C   C603      1.0  0.56795  0.12481  0.68055  1.0000
  C   C604      1.0  0.56596  0.12405  0.71744  1.0000
  C   C605      1.0  0.60307  0.09974  0.30751  1.0000
  C   C606      1.0  0.62962  0.11429  0.27641  1.0000
  C   C607      1.0  0.60871  0.13918  0.26938  1.0000
  C   C608      1.0  0.70508  0.04987  0.29895  1.0000
  H   H769      1.0  0.56377  0.09275  0.32795  1.0000
  C   C609      1.0  0.59933  0.11281  0.28128  1.0000
  N   N37       1.0  0.61240  0.12081  0.26344  1.0000
  C   C610      1.0  0.66709  0.11950  0.82987  1.0000
  C   C611      1.0  0.58219  0.11806  0.27250  1.0000
  H   H770      1.0  0.65116  0.11611  0.93197  1.0000
  C   C612      1.0  0.66355  0.11590  0.94416  1.0000
  C   C613      1.0  0.52976  0.02040  0.25437  1.0000
  C   C614      1.0  0.55028  0.12327  0.73249  1.0000
  H   H771      1.0  0.57083  0.03858  0.22014  1.0000
  N   N38       1.0  0.58740  0.02983  0.75027  1.0000
  C   C615      1.0  0.58892  0.03865  0.78396  1.0000
  H   H772      1.0  0.69404  0.01636  0.78768  1.0000
  C   C616      1.0  0.59716  0.03725  0.72229  1.0000
  C   C617      1.0  0.56983  0.03109  0.73874  1.0000
  C   C618      1.0  0.55582  0.04006  0.75803  1.0000
  H   H773      1.0  0.55957  0.03603  0.34150  1.0000
  N   N39       1.0  0.73490  0.03528  0.71591  1.0000
  C   C619      1.0  0.61253  0.11791  0.22460  1.0000
  H   H774      1.0  0.61453  0.10426  0.21932  1.0000
  H   H775      1.0  0.58242  0.03329  0.80663  1.0000
  H   H776      1.0  0.51301  0.01249  0.29394  1.0000
  C   C620      1.0  0.63805  0.99913  0.82199  1.0000
  C   C621      1.0  0.73451  0.03709  0.30030  1.0000
  H   H777      1.0  0.73071  0.99855  0.30825  1.0000
  C   C622      1.0  0.53823  0.00392  0.35010  1.0000
  C   C623      1.0  0.50900  0.11857  0.66828  1.0000
  C   C624      1.0  0.71330  0.02450  0.75456  1.0000
  C   C625      1.0  0.68444  0.03905  0.75857  1.0000
  C   C626      1.0  0.50939  0.00160  0.71549  1.0000
  H   H778      1.0  0.63699  0.00822  0.05819  1.0000
  C   C627      1.0  0.60957  0.99767  0.84079  1.0000
  C   C628      1.0  0.74590  0.03757  0.74569  1.0000
  H   H779      1.0  0.74287  0.02663  0.19309  1.0000
  C   C629      1.0  0.74084  0.01844  0.70046  1.0000
  C   C630      1.0  0.73683  0.04799  0.68769  1.0000
  H   H780      1.0  0.74528  0.03226  0.31641  1.0000
  C   C631      1.0  0.63374  0.01012  0.03030  1.0000
  C   C632      1.0  0.73585  0.03770  0.26252  1.0000
  H   H781      1.0  0.54358  0.99801  0.17973  1.0000
  Fe  Fe96      1.0  0.49815  0.07901  0.70241  1.0000
  S   S185      1.0  0.74578  0.08961  0.25291  1.0000
  C   C633      1.0  0.69101  0.99798  0.20306  1.0000
  H   H782      1.0  0.74660  0.02740  0.76629  1.0000
  H   H783      1.0  0.70020  0.88561  0.25110  1.0000
  C   C634      1.0  0.56332  0.88624  0.89697  1.0000
  H   H784      1.0  0.72625  0.90326  0.79412  1.0000
  H   H785      1.0  0.53997  0.88895  0.75706  1.0000
  H   H786      1.0  0.70484  0.93488  0.20700  1.0000
  H   H787      1.0  0.67466  0.89084  0.21660  1.0000
  C   C635      1.0  0.50608  0.92541  0.44317  1.0000
  C   C636      1.0  0.57798  0.89818  0.84984  1.0000
  C   C637      1.0  0.71087  0.98458  0.26197  1.0000
  H   H788      1.0  0.55176  0.88696  0.91373  1.0000
  H   H789      1.0  0.74730  0.85288  0.73802  1.0000
  H   H790      1.0  0.65560  0.88452  0.18075  1.0000
  Fe  Fe97      1.0  0.59383  0.92408  0.20157  1.0000
  S   S186      1.0  0.59078  0.94178  0.15394  1.0000
  S   S187      1.0  0.57277  0.91107  0.22310  1.0000
  Fe  Fe98      1.0  0.63030  0.92907  0.21496  1.0000
  S   S188      1.0  0.62936  0.94756  0.16925  1.0000
  S   S189      1.0  0.65144  0.92139  0.25538  1.0000
  Fe  Fe99      1.0  0.60319  0.95785  0.18853  1.0000
  H   H791      1.0  0.65892  0.91358  0.18266  1.0000
  Fe  Fe100     1.0  0.61716  0.92978  0.13793  1.0000
  S   S190      1.0  0.62940  0.92540  0.08239  1.0000
  S   S191      1.0  0.60485  0.94097  0.23683  1.0000
  S   S192      1.0  0.61949  0.91045  0.18302  1.0000
  Fe  Fe101     1.0  0.59685  0.92917  0.79701  1.0000
  S   S193      1.0  0.58562  0.94186  0.84639  1.0000
  S   S194      1.0  0.58023  0.92057  0.75513  1.0000
  Fe  Fe102     1.0  0.63303  0.93275  0.81637  1.0000
  S   S195      1.0  0.62378  0.94585  0.86766  1.0000
  S   S196      1.0  0.66173  0.93037  0.80976  1.0000
  Fe  Fe103     1.0  0.60740  0.92670  0.87578  1.0000
  S   S197      1.0  0.59978  0.91610  0.92929  1.0000
  Fe  Fe104     1.0  0.60287  0.95979  0.83482  1.0000
  H   H792      1.0  0.64895  0.88591  0.13603  1.0000
  S   S198      1.0  0.61776  0.91224  0.82685  1.0000
  S   S199      1.0  0.61289  0.94850  0.78301  1.0000
  C   C638      1.0  0.67693  0.92948  0.77420  1.0000
  C   C639      1.0  0.69321  0.93206  0.78179  1.0000
  C   C640      1.0  0.70589  0.93087  0.75500  1.0000
  C   C641      1.0  0.70260  0.92668  0.72026  1.0000
  C   C642      1.0  0.68635  0.92409  0.71262  1.0000
  C   C643      1.0  0.67356  0.92562  0.73925  1.0000
  H   H793      1.0  0.69600  0.93507  0.80866  1.0000
  H   H794      1.0  0.71825  0.93302  0.76136  1.0000
  H   H795      1.0  0.68361  0.92077  0.68594  1.0000
  H   H796      1.0  0.66120  0.92348  0.73292  1.0000
  C   C644      1.0  0.62017  0.92436  0.04010  1.0000
  C   C645      1.0  0.60403  0.92087  0.03659  1.0000
  C   C646      1.0  0.59786  0.91868  0.00247  1.0000
  C   C647      1.0  0.60754  0.92033  0.97146  1.0000
  C   C648      1.0  0.62349  0.92431  0.97493  1.0000
  C   C649      1.0  0.62980  0.92615  0.00906  1.0000
  H   H797      1.0  0.59652  0.91932  0.06019  1.0000
  H   H798      1.0  0.58557  0.91548  0.00017  1.0000
  H   H799      1.0  0.63122  0.92527  0.95140  1.0000
  H   H800      1.0  0.64236  0.92865  0.01145  1.0000
  C   C650      1.0  0.67297  0.92348  0.25693  1.0000
  C   C651      1.0  0.68117  0.93026  0.22848  1.0000
  C   C652      1.0  0.69858  0.93017  0.22973  1.0000
  C   C653      1.0  0.70797  0.92390  0.25988  1.0000
  C   C654      1.0  0.69965  0.91781  0.28896  1.0000
  C   C655      1.0  0.68232  0.91744  0.28729  1.0000
  H   H801      1.0  0.67417  0.93533  0.20532  1.0000
  H   H802      1.0  0.70664  0.91292  0.31235  1.0000
  H   H803      1.0  0.67616  0.91221  0.30954  1.0000
  C   C656      1.0  0.52227  0.93096  0.74819  1.0000
  C   C657      1.0  0.53016  0.93552  0.77856  1.0000
  C   C658      1.0  0.54781  0.93298  0.78055  1.0000
  C   C659      1.0  0.55789  0.92534  0.75262  1.0000
  C   C660      1.0  0.55003  0.92088  0.72213  1.0000
  C   C661      1.0  0.53235  0.92383  0.71971  1.0000
  H   H804      1.0  0.52255  0.94097  0.80086  1.0000
  H   H805      1.0  0.55362  0.93673  0.80388  1.0000
  H   H806      1.0  0.55768  0.91497  0.70030  1.0000
  H   H807      1.0  0.52654  0.92022  0.69617  1.0000
  H   H808      1.0  0.70509  0.89303  0.12016  1.0000
  C   C662      1.0  0.68714  0.89197  0.16454  1.0000
  N   N40       1.0  0.51505  0.98387  0.72718  1.0000
  C   C663      1.0  0.53754  0.89139  0.78516  1.0000
  H   H809      1.0  0.63782  0.97338  0.90089  1.0000
  C   C664      1.0  0.71895  0.93401  0.50297  1.0000
  C   C665      1.0  0.52252  0.93787  0.27304  1.0000
  C   C666      1.0  0.53508  0.94696  0.26286  1.0000
  C   C667      1.0  0.55037  0.93896  0.24723  1.0000
  C   C668      1.0  0.55347  0.92163  0.24216  1.0000
  C   C669      1.0  0.54099  0.91243  0.25279  1.0000
  C   C670      1.0  0.52555  0.92050  0.26795  1.0000
  H   H810      1.0  0.53285  0.96032  0.26678  1.0000
  H   H811      1.0  0.55977  0.94613  0.23878  1.0000
  H   H812      1.0  0.54322  0.89902  0.24877  1.0000
  H   H813      1.0  0.51599  0.91330  0.27523  1.0000
  C   C671      1.0  0.71667  0.88647  0.20585  1.0000
  C   C672      1.0  0.67416  0.89608  0.10479  1.0000
  C   C673      1.0  0.53104  0.89862  0.85696  1.0000
  N   N41       1.0  0.67143  0.89601  0.14409  1.0000
  H   H814      1.0  0.66202  0.89867  0.09036  1.0000
  H   H815      1.0  0.74022  0.92548  0.58137  1.0000
  C   C674      1.0  0.66249  0.91294  0.15393  1.0000
  C   C675      1.0  0.56194  0.96648  0.73861  1.0000
  N   N42       1.0  0.51713  0.90928  0.38734  1.0000
  H   H816      1.0  0.71040  0.96243  0.54616  1.0000
  H   H817      1.0  0.72862  0.93502  0.61900  1.0000
  H   H818      1.0  0.50406  0.99270  0.61088  1.0000
  C   C676      1.0  0.71038  0.91172  0.53886  1.0000
  H   H819      1.0  0.60741  0.97629  0.91854  1.0000
  H   H820      1.0  0.72451  0.91573  0.60330  1.0000
  C   C677      1.0  0.56827  0.97772  0.26564  1.0000
  H   H821      1.0  0.72285  0.94595  0.49897  1.0000
  S   S200      1.0  0.50356  0.94903  0.29240  1.0000
  H   H822      1.0  0.69822  0.94765  0.61302  1.0000
  H   H823      1.0  0.71608  0.90055  0.45198  1.0000
  C   C678      1.0  0.71462  0.92797  0.53716  1.0000
  H   H824      1.0  0.74451  0.97623  0.26717  1.0000
  H   H825      1.0  0.54354  0.90912  0.39238  1.0000
  H   H826      1.0  0.73238  0.95327  0.55196  1.0000
  C   C679      1.0  0.54786  0.89681  0.84404  1.0000
  C   C680      1.0  0.53428  0.90792  0.37159  1.0000
  H   H827      1.0  0.57747  0.90779  0.82800  1.0000
  H   H828      1.0  0.72127  0.87779  0.77447  1.0000
  C   C681      1.0  0.66039  0.88369  0.15274  1.0000
  C   C682      1.0  0.55708  0.91605  0.88447  1.0000
  C   C683      1.0  0.70330  0.89126  0.14845  1.0000
  C   C684      1.0  0.70709  0.97417  0.23455  1.0000
  H   H829      1.0  0.66713  0.87061  0.14846  1.0000
  H   H830      1.0  0.72999  0.88840  0.15645  1.0000
  H   H831      1.0  0.74470  0.96196  0.30444  1.0000
  C   C685      1.0  0.59289  0.98580  0.28870  1.0000
  C   C686      1.0  0.71780  0.88857  0.16900  1.0000
  H   H832      1.0  0.50433  0.91422  0.45779  1.0000
  H   H833      1.0  0.67034  0.92261  0.14825  1.0000
  C   C687      1.0  0.50272  0.95573  0.44406  1.0000
  C   C688      1.0  0.70107  0.88686  0.22232  1.0000
  C   C689      1.0  0.51679  0.89388  0.40945  1.0000
  S   S201      1.0  0.71846  0.92352  0.68592  1.0000
  H   H834      1.0  0.68120  0.88374  0.09564  1.0000
  H   H835      1.0  0.65070  0.91668  0.13892  1.0000
  H   H836      1.0  0.57158  0.95652  0.72827  1.0000
  C   C690      1.0  0.68650  0.88972  0.20215  1.0000
  H   H837      1.0  0.71972  0.96119  0.58923  1.0000
  H   H838      1.0  0.56878  0.95963  0.32504  1.0000
  H   H839      1.0  0.58783  0.90040  0.86845  1.0000
  H   H840      1.0  0.68095  0.90620  0.09575  1.0000
  H   H841      1.0  0.64945  0.98961  0.22401  1.0000
  N   N43       1.0  0.72045  0.97701  0.29328  1.0000
  C   C691      1.0  0.52112  0.89385  0.79842  1.0000
  C   C692      1.0  0.53703  0.99135  0.76710  1.0000
  H   H842      1.0  0.64332  0.96498  0.97778  1.0000
  H   H843      1.0  0.69485  0.92806  0.59779  1.0000
  H   H844      1.0  0.70793  0.88949  0.51042  1.0000
  H   H845      1.0  0.71146  0.96073  0.23570  1.0000
  H   H846      1.0  0.51063  0.98646  0.26280  1.0000
  H   H847      1.0  0.68832  0.94664  0.57069  1.0000
  S   S202      1.0  0.74472  0.93262  0.35560  1.0000
  C   C693      1.0  0.51249  0.92503  0.40753  1.0000
  C   C694      1.0  0.60906  0.98667  0.93632  1.0000
  C   C695      1.0  0.50891  0.95581  0.40917  1.0000
  C   C696      1.0  0.71908  0.92428  0.47266  1.0000
  H   H848      1.0  0.54346  0.96021  0.70536  1.0000
  C   C697      1.0  0.71071  0.90206  0.50839  1.0000
  H   H849      1.0  0.58255  0.88556  0.83849  1.0000
  H   H850      1.0  0.51565  0.95957  0.70414  1.0000
  H   H851      1.0  0.52526  0.89313  0.43259  1.0000
  H   H852      1.0  0.73630  0.95727  0.26358  1.0000
  H   H853      1.0  0.51780  0.94154  0.36359  1.0000
  C   C698      1.0  0.73972  0.90203  0.79479  1.0000
  C   C699      1.0  0.71118  0.96501  0.31169  1.0000
  C   C700      1.0  0.56581  0.97647  0.76574  1.0000
  N   N44       1.0  0.71500  0.93756  0.57014  1.0000
  C   C701      1.0  0.71951  0.95436  0.56386  1.0000
  C   C702      1.0  0.69835  0.94009  0.58852  1.0000
  C   C703      1.0  0.72760  0.92798  0.59439  1.0000
  Fe  Fe105     1.0  0.74583  0.92774  0.68109  1.0000
  C   C704      1.0  0.56501  0.99453  0.31820  1.0000
  C   C705      1.0  0.51837  0.99491  0.25139  1.0000
  H   H854      1.0  0.57636  0.96779  0.24989  1.0000
  C   C706      1.0  0.58000  0.96553  0.32081  1.0000
  C   C707      1.0  0.51368  0.94074  0.39106  1.0000
  C   C708      1.0  0.72324  0.98948  0.31985  1.0000
  H   H855      1.0  0.50383  0.89337  0.41943  1.0000
  H   H856      1.0  0.71727  0.95993  0.33693  1.0000
  H   H857      1.0  0.50510  0.92028  0.33938  1.0000
  H   H858      1.0  0.52058  0.97556  0.67324  1.0000
  H   H859      1.0  0.51085  0.89337  0.78067  1.0000
  C   C709      1.0  0.62396  0.98763  0.21246  1.0000
  H   H860      1.0  0.59970  0.98871  0.31249  1.0000
  H   H861      1.0  0.63425  0.98426  0.02270  1.0000
  H   H862      1.0  0.54598  0.91725  0.90268  1.0000
  H   H863      1.0  0.62914  0.95742  0.94930  1.0000
  H   H864      1.0  0.55440  0.92614  0.86367  1.0000
  C   C710      1.0  0.53260  0.98135  0.73951  1.0000
  H   H865      1.0  0.56307  0.89134  0.79490  1.0000
  H   H866      1.0  0.70720  0.90619  0.56397  1.0000
  H   H867      1.0  0.52620  0.97948  0.20611  1.0000
  C   C711      1.0  0.63027  0.96772  0.96772  1.0000
  N   N45       1.0  0.56140  0.89925  0.86814  1.0000
  S   S203      1.0  0.73002  0.92376  0.25938  1.0000
  H   H868      1.0  0.57363  0.88764  0.91528  1.0000
  H   H869      1.0  0.63528  0.99556  0.90133  1.0000
  C   C712      1.0  0.71515  0.90830  0.47540  1.0000
  C   C713      1.0  0.55077  0.89284  0.80744  1.0000
  H   H870      1.0  0.56748  0.91881  0.90086  1.0000
  H   H871      1.0  0.65139  0.98312  0.92742  1.0000
  C   C714      1.0  0.51271  0.97316  0.69677  1.0000
  C   C715      1.0  0.51789  0.89731  0.83432  1.0000
  H   H872      1.0  0.72787  0.88490  0.22184  1.0000
  H   H873      1.0  0.71061  0.95391  0.29525  1.0000
  H   H874      1.0  0.62137  0.96666  0.99034  1.0000
  C   C716      1.0  0.62493  0.99009  0.82560  1.0000
  H   H875      1.0  0.52788  0.90135  0.88457  1.0000
  H   H876      1.0  0.55623  0.97346  0.27102  1.0000
  C   C717      1.0  0.63822  0.98413  0.91858  1.0000
  H   H877      1.0  0.56635  0.87340  0.88580  1.0000
  H   H878      1.0  0.62665  0.97742  0.81588  1.0000
  H   H879      1.0  0.54579  0.97938  0.32982  1.0000
  C   C718      1.0  0.69726  0.98080  0.20566  1.0000
  C   C719      1.0  0.54561  0.96877  0.72563  1.0000
  C   C720      1.0  0.54950  0.99142  0.33256  1.0000
  S   S204      1.0  0.59213  0.98525  0.19349  1.0000
  H   H880      1.0  0.62593  0.97431  0.21824  1.0000
  H   H881      1.0  0.69803  0.97109  0.31823  1.0000
  C   C721      1.0  0.50131  0.94056  0.46101  1.0000
  H   H882      1.0  0.53502  0.91764  0.35048  1.0000
  H   H883      1.0  0.72206  0.87247  0.72837  1.0000
  H   H884      1.0  0.50806  0.89788  0.34204  1.0000
  H   H885      1.0  0.50506  0.89924  0.84446  1.0000
  H   H886      1.0  0.69418  0.97253  0.18555  1.0000
  H   H887      1.0  0.57838  0.97435  0.77630  1.0000
  N   N46       1.0  0.57647  0.98122  0.29876  1.0000
  S   S205      1.0  0.59281  0.98699  0.84344  1.0000
  N   N47       1.0  0.62645  0.98446  0.94954  1.0000
  H   H888      1.0  0.60131  0.97543  0.27458  1.0000
  C   C722      1.0  0.55340  0.98892  0.77989  1.0000
  H   H889      1.0  0.53853  0.89567  0.35829  1.0000
  C   C723      1.0  0.72619  0.88098  0.74778  1.0000
  H   H890      1.0  0.50963  0.96765  0.39574  1.0000
  H   H891      1.0  0.58959  0.95573  0.30786  1.0000
  C   C724      1.0  0.50513  0.90946  0.35812  1.0000
  H   H892      1.0  0.73722  0.92159  0.83353  1.0000
  H   H893      1.0  0.58481  0.96795  0.34738  1.0000
  H   H894      1.0  0.52082  0.88225  0.39388  1.0000
  H   H895      1.0  0.55647  0.99648  0.80139  1.0000
  C   C725      1.0  0.73715  0.96779  0.28151  1.0000
  H   H896      1.0  0.71989  0.89393  0.73989  1.0000
  H   H897      1.0  0.56555  0.98909  0.24813  1.0000
  S   S206      1.0  0.49988  0.93442  0.74755  1.0000
  H   H898      1.0  0.74545  0.89717  0.70454  1.0000
  H   H899      1.0  0.72311  0.92876  0.44703  1.0000
  H   H900      1.0  0.73044  0.98328  0.34304  1.0000
  C   C726      1.0  0.52711  0.99103  0.21939  1.0000
  H   H901      1.0  0.50375  0.98853  0.77964  1.0000
  H   H902      1.0  0.64980  0.99343  0.80939  1.0000
  H   H903      1.0  0.50821  0.96691  0.76729  1.0000
  C   C727      1.0  0.50397  0.97996  0.75692  1.0000
  H   H904      1.0  0.59983  0.98702  0.95879  1.0000
  C   C728      1.0  0.63214  0.99642  0.00943  1.0000
  C   C729      1.0  0.60835  0.99619  0.20084  1.0000
  N   N48       1.0  0.74475  0.87942  0.74753  1.0000
  H   H905      1.0  0.74514  0.87623  0.69043  1.0000
  H   H906      1.0  0.49944  0.97553  0.68785  1.0000
  C   C730      1.0  0.63721  0.99632  0.21620  1.0000
  H   H907      1.0  0.59146  0.99668  0.26968  1.0000
  C   C731      1.0  0.74588  0.91269  0.81778  1.0000
  H   H908      1.0  0.49882  0.96745  0.45785  1.0000
  H   H909      1.0  0.71116  0.99645  0.33091  1.0000
  H   H910      1.0  0.82628  0.06096  0.68188  1.0000
  S   S207      1.0  0.90596  0.17895  0.29457  1.0000
  Fe  Fe106     1.0  0.88254  0.19816  0.37756  1.0000
  S   S208      1.0  0.89718  0.17193  0.37676  1.0000
  S   S209      1.0  0.86754  0.20384  0.42851  1.0000
  Fe  Fe107     1.0  0.91702  0.18313  0.34725  1.0000
  S   S210      1.0  0.94462  0.17470  0.36160  1.0000
  Fe  Fe108     1.0  0.88452  0.17020  0.32466  1.0000
  S   S211      1.0  0.87489  0.14567  0.31407  1.0000
  H   H911      1.0  0.83305  0.07964  0.74748  1.0000
  S   S212      1.0  0.86916  0.19629  0.32620  1.0000
  H   H912      1.0  0.83638  0.07870  0.68140  1.0000
  C   C732      1.0  0.94263  0.21341  0.41988  1.0000
  S   S213      1.0  0.79572  0.07272  0.37622  1.0000
  H   H913      1.0  0.77020  0.00853  0.23939  1.0000
  Fe  Fe109     1.0  0.79270  0.09523  0.33833  1.0000
  S   S214      1.0  0.80561  0.11850  0.33902  1.0000
  Fe  Fe110     1.0  0.76777  0.07943  0.38385  1.0000
  S   S215      1.0  0.80074  0.03095  0.31527  1.0000
  H   H914      1.0  0.84640  0.05947  0.66075  1.0000
  S   S216      1.0  0.91290  0.17517  0.63261  1.0000
  H   H915      1.0  0.85958  0.08011  0.71763  1.0000
  H   H916      1.0  0.95181  0.19342  0.76698  1.0000
  S   S217      1.0  0.90267  0.18335  0.71476  1.0000
  Fe  Fe111     1.0  0.92495  0.18503  0.67882  1.0000
  S   S218      1.0  0.95223  0.17615  0.69481  1.0000
  Fe  Fe112     1.0  0.88937  0.17608  0.66664  1.0000
  S   S219      1.0  0.87598  0.15385  0.65481  1.0000
  S   S220      1.0  0.90334  0.20973  0.35238  1.0000
  H   H917      1.0  0.77731  0.03733  0.24329  1.0000
  H   H918      1.0  0.86215  0.17108  0.47661  1.0000
  H   H919      1.0  0.97881  0.20337  0.22049  1.0000
  S   S221      1.0  0.80415  0.08372  0.63447  1.0000
  H   H920      1.0  0.93543  0.19004  0.18775  1.0000
  H   H921      1.0  0.90653  0.24235  0.19762  1.0000
  S   S222      1.0  0.80322  0.03551  0.65047  1.0000
  Fe  Fe113     1.0  0.80141  0.09679  0.68685  1.0000
  S   S223      1.0  0.82008  0.11170  0.71060  1.0000
  C   C733      1.0  0.79506  0.00397  0.64973  1.0000
  H   H922      1.0  0.78285  0.11769  0.28474  1.0000
  C   C734      1.0  0.78311  0.11032  0.21627  1.0000
  S   S224      1.0  0.77346  0.11128  0.57468  1.0000
  C   C735      1.0  0.99309  0.20860  0.68150  1.0000
  C   C736      1.0  0.79479  0.01852  0.66961  1.0000
  C   C737      1.0  0.78899  0.01872  0.70501  1.0000
  H   H923      1.0  0.96674  0.19813  0.41990  1.0000
  H   H924      1.0  0.78705  0.11144  0.18787  1.0000
  H   H925      1.0  0.95826  0.22519  0.21129  1.0000
  H   H926      1.0  0.78915  0.02964  0.72091  1.0000
  C   C738      1.0  0.83473  0.16944  0.59756  1.0000
  C   C739      1.0  0.96788  0.18871  0.68886  1.0000
  C   C740      1.0  0.96435  0.20457  0.67227  1.0000
  C   C741      1.0  0.97683  0.21448  0.66887  1.0000
  C   C742      1.0  0.98678  0.18032  0.24786  1.0000
  N   N49       1.0  0.96320  0.18622  0.56692  1.0000
  C   C743      1.0  0.98419  0.18274  0.70126  1.0000
  H   H927      1.0  0.95198  0.20928  0.66218  1.0000
  H   H928      1.0  0.97386  0.22680  0.65629  1.0000
  H   H929      1.0  0.91543  0.22583  0.79253  1.0000
  H   H930      1.0  0.98710  0.17045  0.71398  1.0000
  C   C744      1.0  0.86050  0.14224  0.67129  1.0000
  C   C745      1.0  0.85128  0.14616  0.70294  1.0000
  C   C746      1.0  0.83904  0.13670  0.71439  1.0000
  C   C747      1.0  0.83557  0.12332  0.69425  1.0000
  C   C748      1.0  0.84485  0.11932  0.66269  1.0000
  C   C749      1.0  0.85718  0.12870  0.65138  1.0000
  H   H931      1.0  0.85364  0.15646  0.71872  1.0000
  H   H932      1.0  0.83217  0.13985  0.73908  1.0000
  H   H933      1.0  0.84270  0.10889  0.64713  1.0000
  H   H934      1.0  0.86425  0.12544  0.62695  1.0000
  C   C750      1.0  0.79045  0.01405  0.32712  1.0000
  C   C751      1.0  0.78751  0.15328  0.20975  1.0000
  H   H935      1.0  0.94549  0.20929  0.55705  1.0000
  C   C752      1.0  0.93294  0.22934  0.42415  1.0000
  H   H936      1.0  0.75369  0.06651  0.51148  1.0000
  C   C753      1.0  0.77637  0.01634  0.34988  1.0000
  H   H937      1.0  0.95856  0.20982  0.59423  1.0000
  C   C754      1.0  0.76904  0.09878  0.47175  1.0000
  C   C755      1.0  0.86631  0.03022  0.72444  1.0000
  H   H938      1.0  0.77177  0.02850  0.36118  1.0000
  H   H939      1.0  0.94016  0.17819  0.26617  1.0000
  H   H940      1.0  0.94593  0.22151  0.27070  1.0000
  C   C756      1.0  0.85507  0.00455  0.72238  1.0000
  H   H941      1.0  0.92992  0.20894  0.27585  1.0000
  C   C757      1.0  0.93017  0.19917  0.20861  1.0000
  H   H942      1.0  0.95848  0.20150  0.80679  1.0000
  C   C758      1.0  0.96082  0.18587  0.34934  1.0000
  C   C759      1.0  0.95728  0.20216  0.33486  1.0000
  C   C760      1.0  0.97045  0.21034  0.32374  1.0000
  C   C761      1.0  0.98729  0.20243  0.32730  1.0000
  H   H943      1.0  0.98382  0.22196  0.49504  1.0000
  C   C762      1.0  0.97768  0.17820  0.35427  1.0000
  H   H944      1.0  0.94437  0.20842  0.33235  1.0000
  H   H945      1.0  0.96760  0.22288  0.31225  1.0000
  H   H946      1.0  0.93505  0.17946  0.46249  1.0000
  H   H947      1.0  0.98057  0.16563  0.36568  1.0000
  C   C763      1.0  0.87961  0.20511  0.46636  1.0000
  C   C764      1.0  0.87258  0.20364  0.50053  1.0000
  C   C765      1.0  0.88200  0.20496  0.53101  1.0000
  H   H948      1.0  0.99038  0.19597  0.45660  1.0000
  H   H949      1.0  0.82373  0.03814  0.71408  1.0000
  C   C766      1.0  0.75167  0.03390  0.20501  1.0000
  H   H950      1.0  0.85980  0.20165  0.50344  1.0000
  H   H951      1.0  0.87651  0.20394  0.55733  1.0000
  H   H952      1.0  0.79087  0.16522  0.65924  1.0000
  H   H953      1.0  0.77120  0.10397  0.44562  1.0000
  C   C767      1.0  0.85538  0.13850  0.32047  1.0000
  C   C768      1.0  0.85510  0.12124  0.31753  1.0000
  C   C769      1.0  0.84011  0.11486  0.32312  1.0000
  C   C770      1.0  0.82507  0.12567  0.33177  1.0000
  C   C771      1.0  0.82531  0.14297  0.33441  1.0000
  C   C772      1.0  0.84029  0.14935  0.32869  1.0000
  H   H954      1.0  0.86662  0.11267  0.31107  1.0000
  H   H955      1.0  0.84024  0.10155  0.32085  1.0000
  H   H956      1.0  0.81377  0.15154  0.34066  1.0000
  H   H957      1.0  0.84013  0.16268  0.33030  1.0000
  H   H958      1.0  0.99191  0.15714  0.27820  1.0000
  C   C773      1.0  0.93728  0.22206  0.73730  1.0000
  C   C774      1.0  0.75789  0.01352  0.25258  1.0000
  C   C775      1.0  0.76097  0.13436  0.21270  1.0000
  H   H959      1.0  0.98960  0.18726  0.56946  1.0000
  Fe  Fe114     1.0  0.89356  0.21034  0.69706  1.0000
  C   C776      1.0  0.76320  0.08555  0.53964  1.0000
  C   C777      1.0  0.79495  0.15159  0.65411  1.0000
  N   N50       1.0  0.79698  0.14842  0.61524  1.0000
  H   H960      1.0  0.81741  0.12741  0.62162  1.0000
  H   H961      1.0  0.98624  0.24185  0.47531  1.0000
  H   H962      1.0  0.79410  0.10331  0.23086  1.0000
  S   S225      1.0  0.91631  0.21194  0.66343  1.0000
  H   H963      1.0  0.96678  0.20699  0.76360  1.0000
  C   C778      1.0  0.97651  0.16570  0.47721  1.0000
  C   C779      1.0  0.95531  0.20483  0.77853  1.0000
  H   H964      1.0  0.84670  0.16976  0.60977  1.0000
  C   C780      1.0  0.94061  0.24273  0.43250  1.0000
  H   H965      1.0  0.80577  0.12735  0.58150  1.0000
  H   H966      1.0  0.82803  0.15270  0.63718  1.0000
  C   C781      1.0  0.80396  0.16854  0.56629  1.0000
  H   H967      1.0  0.78566  0.04665  0.44077  1.0000
  C   C782      1.0  0.77989  0.15121  0.60003  1.0000
  C   C783      1.0  0.75919  0.07767  0.50891  1.0000
  C   C784      1.0  0.83867  0.06474  0.68415  1.0000
  H   H968      1.0  0.79238  0.16861  0.55259  1.0000
  H   H969      1.0  0.87740  0.03566  0.72690  1.0000
  C   C785      1.0  0.92666  0.21566  0.79535  1.0000
  C   C786      1.0  0.95842  0.20480  0.56690  1.0000
  S   S226      1.0  0.89342  0.22158  0.25007  1.0000
  H   H970      1.0  0.93614  0.18963  0.52285  1.0000
  H   H971      1.0  0.77653  0.00657  0.50925  1.0000
  H   H972      1.0  0.80156  0.02648  0.39837  1.0000
  S   S227      1.0  0.76639  0.07450  0.64849  1.0000
  H   H973      1.0  0.87128  0.06180  0.69705  1.0000
  C   C787      1.0  0.76966  0.10036  0.53654  1.0000
  N   N51       1.0  0.94362  0.20624  0.22574  1.0000
  C   C788      1.0  0.94973  0.21770  0.19914  1.0000
  H   H974      1.0  0.82840  0.00768  0.71532  1.0000
  C   C789      1.0  0.93623  0.21640  0.25636  1.0000
  C   C790      1.0  0.95705  0.19263  0.23887  1.0000
  C   C791      1.0  0.95298  0.17891  0.25923  1.0000
  C   C792      1.0  0.97442  0.19310  0.23406  1.0000
  C   C793      1.0  0.77223  0.12493  0.26954  1.0000
  H   H975      1.0  0.83017  0.13727  0.25526  1.0000
  N   N52       1.0  0.85684  0.15402  0.43687  1.0000
  C   C794      1.0  0.83148  0.13834  0.51365  1.0000
  C   C795      1.0  0.86249  0.06609  0.71958  1.0000
  H   H976      1.0  0.96710  0.21074  0.54972  1.0000
  H   H977      1.0  0.87667  0.14619  0.39799  1.0000
  H   H978      1.0  0.76851  0.13725  0.28274  1.0000
  H   H979      1.0  0.95124  0.18282  0.61794  1.0000
  C   C796      1.0  0.79625  0.02187  0.42261  1.0000
  H   H980      1.0  0.87801  0.16635  0.44327  1.0000
  C   C797      1.0  0.86874  0.16074  0.45959  1.0000
  H   H981      1.0  0.87609  0.15075  0.47671  1.0000
  H   H982      1.0  0.83944  0.16422  0.39546  1.0000
  S   S228      1.0  0.87883  0.20313  0.65092  1.0000
  H   H983      1.0  0.76328  0.13597  0.18361  1.0000
  S   S229      1.0  0.78889  0.07953  0.29129  1.0000
  C   C798      1.0  0.86688  0.14112  0.41377  1.0000
  H   H984      1.0  0.84120  0.17845  0.43044  1.0000
  H   H985      1.0  0.77355  0.16457  0.60193  1.0000
  H   H986      1.0  0.82371  0.06138  0.74843  1.0000
  C   C799      1.0  0.84834  0.16813  0.41406  1.0000
  H   H987      1.0  0.77756  0.11842  0.49997  1.0000
  C   C800      1.0  0.78367  0.00448  0.72036  1.0000
  C   C801      1.0  0.84414  0.14653  0.45736  1.0000
  H   H988      1.0  0.85752  0.17368  0.39729  1.0000
  S   S230      1.0  0.79255  0.07491  0.71504  1.0000
  C   C802      1.0  0.83595  0.06562  0.74834  1.0000
  H   H989      1.0  0.77328  0.03644  0.49556  1.0000
  H   H990      1.0  0.83186  0.13919  0.41049  1.0000
  H   H991      1.0  0.75323  0.01759  0.68651  1.0000
  H   H992      1.0  0.77169  0.14344  0.61420  1.0000
  N   N53       1.0  0.77670  0.12709  0.23143  1.0000
  C   C803      1.0  0.83210  0.13928  0.43929  1.0000
  Fe  Fe115     1.0  0.89144  0.20545  0.30047  1.0000
  Fe  Fe116     1.0  0.78925  0.05781  0.33013  1.0000
  C   C804      1.0  0.81991  0.13129  0.49502  1.0000
  Fe  Fe117     1.0  0.79297  0.06304  0.66164  1.0000
  H   H993      1.0  0.85913  0.13630  0.39387  1.0000
  S   S231      1.0  0.76464  0.10265  0.34871  1.0000
  H   H994      1.0  0.79818  0.17487  0.19371  1.0000
  H   H995      1.0  0.80830  0.12039  0.25979  1.0000
  C   C805      1.0  0.94767  0.18303  0.51093  1.0000
  S   S232      1.0  0.76158  0.06332  0.34007  1.0000
  H   H996      1.0  0.97036  0.22456  0.81182  1.0000
  H   H997      1.0  0.76076  0.05478  0.25353  1.0000
  Fe  Fe118     1.0  0.90294  0.20216  0.61920  1.0000
  H   H998      1.0  0.87326  0.13014  0.42979  1.0000
  Fe  Fe119     1.0  0.76613  0.08721  0.70126  1.0000
  C   C806      1.0  0.84340  0.14593  0.49529  1.0000
  C   C807      1.0  0.82021  0.13179  0.45790  1.0000
  H   H999      1.0  0.94727  0.22699  0.72199  1.0000
  H   H1000     1.0  0.78014  0.14727  0.57176  1.0000
  H   H1001     1.0  0.91946  0.23133  0.42076  1.0000
  H   H1002     1.0  0.85197  0.15112  0.51144  1.0000
  H   H1003     1.0  0.81127  0.12621  0.44332  1.0000
  H   H1004     1.0  0.80667  0.14705  0.66902  1.0000
  H   H1005     1.0  0.78553  0.14482  0.66685  1.0000
  C   C808      1.0  0.78730  0.03325  0.44640  1.0000
  N   N54       1.0  0.75221  0.03166  0.24438  1.0000
  C   C809      1.0  0.79647  0.99797  0.31352  1.0000
  C   C810      1.0  0.89827  0.20828  0.52730  1.0000
  N   N55       1.0  0.84701  0.05880  0.71810  1.0000
  C   C811      1.0  0.80470  0.13057  0.61023  1.0000
  H   H1006     1.0  0.92662  0.22731  0.24781  1.0000
  H   H1007     1.0  0.91774  0.21255  0.49008  1.0000
  H   H1008     1.0  0.79709  0.12204  0.62346  1.0000
  H   H1009     1.0  0.83131  0.13786  0.54254  1.0000
  Fe  Fe120     1.0  0.76115  0.08566  0.30383  1.0000
  C   C812      1.0  0.80805  0.15912  0.59841  1.0000
  C   C813      1.0  0.94576  0.23527  0.78944  1.0000
  C   C814      1.0  0.82387  0.15975  0.61325  1.0000
  C   C815      1.0  0.80564  0.13207  0.24462  1.0000
  S   S233      1.0  0.91009  0.21120  0.56460  1.0000
  C   C816      1.0  0.85007  0.04020  0.72001  1.0000
  H   H1010     1.0  0.99167  0.22700  0.38268  1.0000
  H   H1011     1.0  0.81075  0.12530  0.50926  1.0000
  C   C817      1.0  0.89607  0.20785  0.46271  1.0000
  S   S234      1.0  0.88650  0.22860  0.74287  1.0000
  C   C818      1.0  0.96543  0.16613  0.27256  1.0000
  H   H1012     1.0  0.84187  0.06158  0.77435  1.0000
  S   S235      1.0  0.77484  0.11012  0.67793  1.0000
  H   H1013     1.0  0.98765  0.15885  0.46399  1.0000
  C   C819      1.0  0.90525  0.20976  0.49310  1.0000
  C   C820      1.0  0.77262  0.10694  0.50254  1.0000
  H   H1014     1.0  0.90151  0.20901  0.43644  1.0000
  H   H1015     1.0  0.83865  0.18638  0.55462  1.0000
  C   C821      1.0  0.76856  0.00273  0.35933  1.0000
  Fe  Fe121     1.0  0.77742  0.09621  0.62619  1.0000
  H   H1016     1.0  0.81151  0.18547  0.52650  1.0000
  C   C822      1.0  0.83901  0.01396  0.71825  1.0000
  C   C823      1.0  0.89187  0.24378  0.24647  1.0000
  C   C824      1.0  0.81491  0.17825  0.55081  1.0000
  C   C825      1.0  0.83023  0.17875  0.56649  1.0000
  C   C826      1.0  0.96826  0.22408  0.43303  1.0000
  H   H1017     1.0  0.86909  0.06288  0.74521  1.0000
  H   H1018     1.0  0.93577  0.21003  0.72528  1.0000
  H   H1019     1.0  0.93783  0.18342  0.58112  1.0000
  C   C827      1.0  0.76205  0.08427  0.47492  1.0000
  C   C828      1.0  0.99020  0.22803  0.47326  1.0000
  C   C829      1.0  0.83648  0.03149  0.71736  1.0000
  H   H1020     1.0  0.97952  0.18608  0.61181  1.0000
  C   C830      1.0  0.97985  0.18156  0.58392  1.0000
  H   H1021     1.0  0.92289  0.20410  0.78526  1.0000
  C   C831      1.0  0.94691  0.17726  0.47631  1.0000
  C   C832      1.0  0.81556  0.15706  0.22406  1.0000
  H   H1022     1.0  0.98904  0.24503  0.41058  1.0000
  H   H1023     1.0  0.82536  0.16453  0.22277  1.0000
  C   C833      1.0  0.78987  0.13754  0.22835  1.0000
  C   C834      1.0  0.81827  0.14169  0.24234  1.0000
  H   H1024     1.0  0.95357  0.16509  0.58928  1.0000
  C   C835      1.0  0.79133  0.99816  0.46097  1.0000
  C   C836      1.0  0.80023  0.16285  0.20778  1.0000
  H   H1025     1.0  0.92282  0.19275  0.22800  1.0000
  C   C837      1.0  0.95098  0.17906  0.58965  1.0000
  C   C838      1.0  0.96092  0.23567  0.80752  1.0000
  C   C839      1.0  0.96290  0.18018  0.53001  1.0000
  N   N56       1.0  0.94150  0.21967  0.77553  1.0000
  H   H1026     1.0  0.92058  0.20915  0.19615  1.0000
  H   H1027     1.0  0.76080  0.08046  0.56572  1.0000
  H   H1028     1.0  0.93920  0.22711  0.18804  1.0000
  N   N57       1.0  0.98663  0.22175  0.43791  1.0000
  C   C840      1.0  0.99087  0.18641  0.34323  1.0000
  H   H1029     1.0  0.92916  0.21380  0.82432  1.0000
  C   C841      1.0  0.76494  0.04098  0.25724  1.0000
  H   H1030     1.0  0.95632  0.21056  0.17635  1.0000
  C   C842      1.0  0.78030  0.02742  0.47732  1.0000
  H   H1031     1.0  0.77953  0.00464  0.74796  1.0000
  H   H1032     1.0  0.92518  0.23083  0.73286  1.0000
  C   C843      1.0  0.86868  0.01265  0.72561  1.0000
  H   H1033     1.0  0.77343  0.10219  0.21765  1.0000
  H   H1034     1.0  0.76168  0.11795  0.27304  1.0000
  H   H1035     1.0  0.79975  0.00357  0.62249  1.0000
  S   S236      1.0  0.75602  0.07452  0.43711  1.0000
  C   C844      1.0  0.79809  0.00458  0.42945  1.0000
  H   H1036     1.0  0.77594  0.15856  0.19670  1.0000
  C   C845      1.0  0.96003  0.21073  0.42418  1.0000
  C   C846      1.0  0.98230  0.16681  0.26682  1.0000
  H   H1037     1.0  0.74860  0.00604  0.24366  1.0000
  H   H1038     1.0  0.88116  0.00525  0.72884  1.0000
  C   C847      1.0  0.95801  0.24022  0.43668  1.0000
  H   H1039     1.0  0.75896  0.03778  0.73626  1.0000
  H   H1040     1.0  0.93663  0.20308  0.41271  1.0000
  C   C848      1.0  0.78227  0.01015  0.48475  1.0000
  C   C849      1.0  0.97741  0.17140  0.51195  1.0000
  H   H1041     1.0  0.75791  0.00464  0.37764  1.0000
  H   H1042     1.0  0.76420  0.02945  0.19227  1.0000
  H   H1043     1.0  0.98401  0.16768  0.58566  1.0000
  C   C850      1.0  0.96129  0.16857  0.45949  1.0000
  H   H1044     1.0  0.75983  0.01096  0.28158  1.0000
  H   H1045     1.0  0.96194  0.15602  0.28881  1.0000
  H   H1046     1.0  0.96059  0.16408  0.43263  1.0000
  H   H1047     1.0  0.76757  0.03852  0.28588  1.0000
  S   S237      1.0  0.74777  0.08404  0.74685  1.0000
  H   H1048     1.0  0.98956  0.16861  0.52418  1.0000
  H   H1049     1.0  0.74996  0.04625  0.67705  1.0000
  H   H1050     1.0  0.99427  0.19871  0.40931  1.0000
  H   H1051     1.0  0.75148  0.12601  0.21556  1.0000
  C   C851      1.0  0.99535  0.20395  0.43607  1.0000
  C   C852      1.0  0.99408  0.23134  0.40971  1.0000
  H   H1052     1.0  0.75498  0.14665  0.22400  1.0000
  C   C853      1.0  0.99678  0.19262  0.69754  1.0000
  H   H1053     1.0  0.74785  0.04743  0.19723  1.0000
  S   S238      1.0  0.92125  0.44842  0.25955  1.0000
  S   S239      1.0  0.89098  0.43850  0.69492  1.0000
  Fe  Fe122     1.0  0.90475  0.35542  0.20900  1.0000
  S   S240      1.0  0.91919  0.35460  0.15738  1.0000
  S   S241      1.0  0.89802  0.37758  0.24665  1.0000
  Fe  Fe123     1.0  0.89822  0.31921  0.20009  1.0000
  S   S242      1.0  0.91230  0.31578  0.14758  1.0000
  S   S243      1.0  0.88314  0.30122  0.22755  1.0000
  Fe  Fe124     1.0  0.93079  0.32847  0.17471  1.0000
  S   S244      1.0  0.95841  0.32075  0.16520  1.0000
  Fe  Fe125     1.0  0.89959  0.34217  0.13408  1.0000
  S   S245      1.0  0.88904  0.35252  0.08079  1.0000
  S   S246      1.0  0.91795  0.32994  0.22837  1.0000
  S   S247      1.0  0.88389  0.34492  0.18451  1.0000
  Fe  Fe126     1.0  0.90598  0.35564  0.82341  1.0000
  S   S248      1.0  0.92503  0.34619  0.86566  1.0000
  S   S249      1.0  0.89882  0.38437  0.82248  1.0000
  Fe  Fe127     1.0  0.90558  0.31949  0.79828  1.0000
  S   S250      1.0  0.92437  0.30810  0.83886  1.0000
  S   S251      1.0  0.89996  0.30378  0.75161  1.0000
  Fe  Fe128     1.0  0.90980  0.32630  0.87784  1.0000
  S   S252      1.0  0.90782  0.31530  0.93403  1.0000
  Fe  Fe129     1.0  0.93771  0.32897  0.82359  1.0000
  S   S253      1.0  0.96541  0.32357  0.81215  1.0000
  S   S254      1.0  0.88961  0.33652  0.83816  1.0000
  S   S255      1.0  0.92006  0.33964  0.78060  1.0000
  C   C854      1.0  0.85299  0.43893  0.74771  1.0000
  H   H1054     1.0  0.97935  0.42926  0.79831  1.0000
  H   H1055     1.0  0.84996  0.29457  0.15109  1.0000
  C   C855      1.0  0.97235  0.34254  0.80457  1.0000
  C   C856      1.0  0.96124  0.35787  0.80830  1.0000
  C   C857      1.0  0.96725  0.37301  0.80593  1.0000
  C   C858      1.0  0.98434  0.37278  0.79952  1.0000
  H   H1056     1.0  0.87094  0.48793  0.74223  1.0000
  C   C859      1.0  0.97954  0.44298  0.79882  1.0000
  H   H1057     1.0  0.94807  0.35810  0.81384  1.0000
  H   H1058     1.0  0.95872  0.38480  0.81003  1.0000
  C   C860      1.0  0.98634  0.46586  0.21252  1.0000
  C   C861      1.0  0.88835  0.25778  0.77767  1.0000
  C   C862      1.0  0.89617  0.28285  0.75019  1.0000
  C   C863      1.0  0.89762  0.27470  0.71723  1.0000
  C   C864      1.0  0.89493  0.25808  0.71460  1.0000
  H   H1059     1.0  0.88533  0.49047  0.55347  1.0000
  C   C865      1.0  0.87076  0.47551  0.75561  1.0000
  C   C866      1.0  0.89159  0.27424  0.78050  1.0000
  H   H1060     1.0  0.90079  0.28134  0.69346  1.0000
  C   C867      1.0  0.97859  0.27469  0.72991  1.0000
  C   C868      1.0  0.88261  0.25470  0.27097  1.0000
  H   H1061     1.0  0.89023  0.28037  0.80596  1.0000
  C   C869      1.0  0.96632  0.33940  0.16437  1.0000
  C   C870      1.0  0.95844  0.35292  0.18484  1.0000
  C   C871      1.0  0.96520  0.36757  0.18602  1.0000
  C   C872      1.0  0.98005  0.36858  0.16722  1.0000
  C   C873      1.0  0.98769  0.35527  0.14590  1.0000
  C   C874      1.0  0.98083  0.34066  0.14445  1.0000
  H   H1062     1.0  0.94749  0.35188  0.20098  1.0000
  H   H1063     1.0  0.95933  0.37779  0.20273  1.0000
  C   C875      1.0  0.94294  0.39712  0.12788  1.0000
  C   C876      1.0  0.89950  0.25065  0.21699  1.0000
  C   C877      1.0  0.89624  0.34269  0.04018  1.0000
  C   C878      1.0  0.89250  0.35148  0.00773  1.0000
  C   C879      1.0  0.89669  0.34352  0.97488  1.0000
  C   C880      1.0  0.90432  0.32656  0.97426  1.0000
  C   C881      1.0  0.90842  0.31791  0.00672  1.0000
  C   C882      1.0  0.90459  0.32596  0.03952  1.0000
  H   H1064     1.0  0.88601  0.36441  0.00793  1.0000
  H   H1065     1.0  0.89343  0.35031  0.95008  1.0000
  H   H1066     1.0  0.91427  0.30477  0.00647  1.0000
  H   H1067     1.0  0.90748  0.31901  0.06422  1.0000
  C   C883      1.0  0.88804  0.27913  0.23578  1.0000
  C   C884      1.0  0.88045  0.27224  0.26525  1.0000
  H   H1068     1.0  0.98766  0.30978  0.25987  1.0000
  C   C885      1.0  0.85449  0.42292  0.76352  1.0000
  H   H1069     1.0  0.89269  0.29464  0.11145  1.0000
  C   C886      1.0  0.89791  0.26820  0.21204  1.0000
  H   H1070     1.0  0.87267  0.28055  0.28361  1.0000
  C   C887      1.0  0.97920  0.36731  0.28067  1.0000
  C   C888      1.0  0.98332  0.47738  0.79874  1.0000
  H   H1071     1.0  0.90378  0.27325  0.18920  1.0000
  S   S256      1.0  0.88930  0.48665  0.66388  1.0000
  H   H1072     1.0  0.86042  0.40775  0.81098  1.0000
  C   C889      1.0  0.89013  0.24955  0.74478  1.0000
  H   H1073     1.0  0.85321  0.32777  0.12110  1.0000
  C   C890      1.0  0.89465  0.42319  0.72995  1.0000
  C   C891      1.0  0.89166  0.40693  0.72417  1.0000
  C   C892      1.0  0.89390  0.39455  0.75161  1.0000
  C   C893      1.0  0.89868  0.39848  0.78549  1.0000
  C   C894      1.0  0.90167  0.41477  0.79124  1.0000
  C   C895      1.0  0.89985  0.42701  0.76356  1.0000
  H   H1074     1.0  0.88745  0.40390  0.69840  1.0000
  H   H1075     1.0  0.89127  0.38218  0.74696  1.0000
  H   H1076     1.0  0.90509  0.41800  0.81752  1.0000
  H   H1077     1.0  0.90199  0.43951  0.76861  1.0000
  H   H1078     1.0  0.97040  0.32329  0.23943  1.0000
  H   H1079     1.0  0.95281  0.40171  0.14151  1.0000
  C   C896      1.0  0.94471  0.36778  0.28064  1.0000
  H   H1080     1.0  0.95446  0.43152  0.25562  1.0000
  C   C897      1.0  0.91560  0.42822  0.25822  1.0000
  C   C898      1.0  0.90342  0.42356  0.28126  1.0000
  C   C899      1.0  0.89838  0.40795  0.27747  1.0000
  C   C900      1.0  0.90555  0.39670  0.25096  1.0000
  C   C901      1.0  0.91818  0.40108  0.22868  1.0000
  C   C902      1.0  0.92306  0.41683  0.23212  1.0000
  H   H1081     1.0  0.89756  0.43214  0.30146  1.0000
  H   H1082     1.0  0.88869  0.40464  0.29505  1.0000
  H   H1083     1.0  0.92410  0.39239  0.20875  1.0000
  H   H1084     1.0  0.93266  0.42020  0.21446  1.0000
  C   C903      1.0  0.97696  0.49426  0.23569  1.0000
  H   H1085     1.0  0.93101  0.27896  0.70703  1.0000
  H   H1086     1.0  0.88455  0.25135  0.80116  1.0000
  H   H1087     1.0  0.87653  0.24965  0.29358  1.0000
  H   H1088     1.0  0.96339  0.25105  0.44262  1.0000
  S   S257      1.0  0.96607  0.47466  0.38402  1.0000
  C   C904      1.0  0.97478  0.43676  0.28677  1.0000
  H   H1089     1.0  0.96948  0.29853  0.75716  1.0000
  H   H1090     1.0  0.96417  0.34466  0.03905  1.0000
  H   H1091     1.0  0.89615  0.25202  0.68905  1.0000
  H   H1092     1.0  0.99558  0.25549  0.78081  1.0000
  C   C905      1.0  0.99553  0.46026  0.31703  1.0000
  H   H1093     1.0  0.97019  0.44918  0.77912  1.0000
  C   C906      1.0  0.97560  0.34789  0.98748  1.0000
  C   C907      1.0  0.93780  0.26562  0.79893  1.0000
  C   C908      1.0  0.92539  0.38042  0.68907  1.0000
  C   C909      1.0  0.99236  0.43376  0.29240  1.0000
  C   C910      1.0  0.94942  0.28995  0.73330  1.0000
  H   H1094     1.0  0.96612  0.44501  0.30377  1.0000
  C   C911      1.0  0.85858  0.42034  0.79929  1.0000
  C   C912      1.0  0.91291  0.39781  0.11822  1.0000
  H   H1095     1.0  0.86450  0.43160  0.84729  1.0000
  H   H1096     1.0  0.89096  0.41647  0.07543  1.0000
  C   C913      1.0  0.85938  0.44990  0.80423  1.0000
  Fe  Fe130     1.0  0.93496  0.47448  0.69464  1.0000
  C   C914      1.0  0.96954  0.48486  0.71467  1.0000
  C   C915      1.0  0.89187  0.41953  0.14821  1.0000
  H   H1097     1.0  0.86525  0.31744  0.15704  1.0000
  N   N58       1.0  0.89491  0.40405  0.12668  1.0000
  H   H1098     1.0  0.89723  0.41716  0.17532  1.0000
  S   S258      1.0  0.93771  0.48306  0.30110  1.0000
  H   H1099     1.0  0.96997  0.31864  0.28688  1.0000
  H   H1100     1.0  0.87196  0.41384  0.09887  1.0000
  Fe  Fe131     1.0  0.90233  0.46216  0.68928  1.0000
  H   H1101     1.0  0.98683  0.33031  0.12821  1.0000
  C   C916      1.0  0.96425  0.25070  0.82083  1.0000
  C   C917      1.0  0.99221  0.28351  0.18612  1.0000
  Fe  Fe132     1.0  0.91771  0.46718  0.30527  1.0000
  H   H1102     1.0  0.97352  0.35627  0.87850  1.0000
  H   H1103     1.0  0.90858  0.37863  0.08134  1.0000
  H   H1104     1.0  0.99015  0.34129  0.21530  1.0000
  N   N59       1.0  0.85445  0.47003  0.75174  1.0000
  H   H1105     1.0  0.97605  0.37718  0.92503  1.0000
  C   C918      1.0  0.96977  0.46422  0.20752  1.0000
  C   C919      1.0  0.94955  0.33771  0.99676  1.0000
  S   S259      1.0  0.92246  0.46088  0.36348  1.0000
  S   S260      1.0  0.88609  0.48769  0.42214  1.0000
  C   C920      1.0  0.95594  0.35263  0.27571  1.0000
  H   H1106     1.0  0.82884  0.47801  0.76908  1.0000
  H   H1107     1.0  0.87475  0.39509  0.15518  1.0000
  C   C921      1.0  0.88524  0.40786  0.09336  1.0000
  H   H1108     1.0  0.93798  0.36720  0.06945  1.0000
  S   S261      1.0  0.91355  0.47464  0.73305  1.0000
  C   C922      1.0  0.93467  0.37769  0.08725  1.0000
  C   C923      1.0  0.94722  0.38395  0.10427  1.0000
  C   C924      1.0  0.89309  0.48932  0.52953  1.0000
  H   H1109     1.0  0.95515  0.49293  0.60497  1.0000
  C   C925      1.0  0.92607  0.40405  0.13475  1.0000
  H   H1110     1.0  0.87235  0.48944  0.49416  1.0000
  H   H1111     1.0  0.95039  0.34172  0.27166  1.0000
  H   H1112     1.0  0.93360  0.48696  0.50196  1.0000
  C   C926      1.0  0.96785  0.38236  0.28565  1.0000
  S   S262      1.0  0.92486  0.46023  0.65285  1.0000
  C   C927      1.0  0.97830  0.41882  0.23558  1.0000
  H   H1113     1.0  0.92266  0.25138  0.77214  1.0000
  H   H1114     1.0  0.96031  0.37840  0.09970  1.0000
  C   C928      1.0  0.93502  0.36603  0.70410  1.0000
  C   C929      1.0  0.97806  0.32136  0.26400  1.0000
  H   H1115     1.0  0.87097  0.30586  0.96606  1.0000
  H   H1116     1.0  0.97121  0.42573  0.72580  1.0000
  Fe  Fe133     1.0  0.94066  0.47849  0.35948  1.0000
  H   H1117     1.0  0.86161  0.45987  0.82101  1.0000
  H   H1118     1.0  0.97577  0.25077  0.83488  1.0000
  H   H1119     1.0  0.88192  0.29127  0.15265  1.0000
  H   H1120     1.0  0.98136  0.25165  0.69948  1.0000
  C   C930      1.0  0.95674  0.47736  0.21611  1.0000
  N   N60       1.0  0.98591  0.33615  0.27068  1.0000
  H   H1121     1.0  0.93989  0.33438  0.01450  1.0000
  H   H1122     1.0  0.95821  0.43226  0.66919  1.0000
  H   H1123     1.0  0.92081  0.48542  0.44329  1.0000
  C   C931      1.0  0.93438  0.25072  0.78557  1.0000
  S   S263      1.0  0.89729  0.49002  0.31516  1.0000
  H   H1124     1.0  0.86464  0.33198  0.00015  1.0000
  C   C932      1.0  0.94416  0.27772  0.71331  1.0000
  H   H1125     1.0  0.86218  0.33127  0.06443  1.0000
  H   H1126     1.0  0.84995  0.48403  0.70196  1.0000
  H   H1127     1.0  0.98183  0.46526  0.31535  1.0000
  H   H1128     1.0  0.97287  0.41302  0.21409  1.0000
  H   H1129     1.0  0.95893  0.33862  0.90886  1.0000
  H   H1130     1.0  0.95781  0.35560  0.73091  1.0000
  C   C933      1.0  0.93867  0.42589  0.72485  1.0000
  N   N61       1.0  0.86588  0.30245  0.10982  1.0000
  H   H1131     1.0  0.97630  0.49320  0.61832  1.0000
  C   C934      1.0  0.95578  0.26395  0.70155  1.0000
  H   H1132     1.0  0.93050  0.35424  0.70439  1.0000
  H   H1133     1.0  0.88106  0.46617  0.74368  1.0000
  H   H1134     1.0  0.95531  0.27730  0.82672  1.0000
  H   H1135     1.0  0.99310  0.44696  0.73373  1.0000
  H   H1136     1.0  0.87395  0.47692  0.78386  1.0000
  H   H1137     1.0  0.92878  0.27723  0.79539  1.0000
  C   C935      1.0  0.94835  0.33608  0.96011  1.0000
  C   C936      1.0  0.97280  0.49391  0.38001  1.0000
  C   C937      1.0  0.98644  0.48498  0.70691  1.0000
  Fe  Fe134     1.0  0.90356  0.48452  0.37362  1.0000
  H   H1138     1.0  0.99233  0.37204  0.95752  1.0000
  C   C938      1.0  0.96072  0.34029  0.93691  1.0000
  H   H1139     1.0  0.94024  0.30058  0.74260  1.0000
  H   H1140     1.0  0.95162  0.25452  0.68580  1.0000
  H   H1141     1.0  0.92285  0.40661  0.67803  1.0000
  C   C939      1.0  0.87092  0.28974  0.01254  1.0000
  C   C940      1.0  0.86927  0.30523  0.99481  1.0000
  C   C941      1.0  0.99561  0.41582  0.23989  1.0000
  C   C942      1.0  0.88109  0.29102  0.12306  1.0000
  H   H1142     1.0  0.93558  0.42096  0.75166  1.0000
  H   H1143     1.0  0.84401  0.48318  0.79899  1.0000
  Fe  Fe135     1.0  0.91297  0.48543  0.63028  1.0000
  C   C943      1.0  0.93094  0.39575  0.68954  1.0000
  H   H1144     1.0  0.92685  0.42884  0.70974  1.0000
  S   S264      1.0  0.96166  0.46633  0.71074  1.0000
  C   C944      1.0  0.99142  0.43730  0.35648  1.0000
  H   H1145     1.0  0.87073  0.27662  0.06223  1.0000
  C   C945      1.0  0.95398  0.41992  0.66944  1.0000
  H   H1146     1.0  0.94211  0.42193  0.65429  1.0000
  C   C946      1.0  0.86573  0.31996  0.01411  1.0000
  C   C947      1.0  0.86941  0.28893  0.04973  1.0000
  C   C948      1.0  0.96319  0.34356  0.01046  1.0000
  H   H1147     1.0  0.83917  0.30380  0.11191  1.0000
  H   H1148     1.0  0.94269  0.43816  0.72840  1.0000
  H   H1149     1.0  0.88890  0.37922  0.13189  1.0000
  C   C949      1.0  0.96636  0.28854  0.74160  1.0000
  C   C950      1.0  0.86655  0.30369  0.07037  1.0000
  H   H1150     1.0  0.97522  0.44721  0.82602  1.0000
  H   H1151     1.0  0.96665  0.40876  0.75346  1.0000
  C   C951      1.0  0.94638  0.39712  0.70525  1.0000
  C   C952      1.0  0.95273  0.26565  0.81647  1.0000
  C   C953      1.0  0.86500  0.31885  0.12738  1.0000
  H   H1152     1.0  0.88134  0.27768  0.11661  1.0000
  N   N62       1.0  0.95172  0.41363  0.70630  1.0000
  H   H1153     1.0  0.86037  0.46282  0.69726  1.0000
  C   C954      1.0  0.86440  0.31931  0.05132  1.0000
  C   C955      1.0  0.96770  0.41310  0.72524  1.0000
  C   C956      1.0  0.95611  0.38209  0.71954  1.0000
  C   C957      1.0  0.95039  0.36684  0.71907  1.0000
  H   H1154     1.0  0.93773  0.33146  0.94951  1.0000
  H   H1155     1.0  0.96810  0.38175  0.73171  1.0000
  H   H1156     1.0  0.91337  0.37977  0.67765  1.0000
  C   C958      1.0  0.95064  0.38260  0.28562  1.0000
  H   H1157     1.0  0.96343  0.41087  0.65430  1.0000
  H   H1158     1.0  0.85111  0.28282  0.11103  1.0000
  H   H1159     1.0  0.93128  0.36805  0.28042  1.0000
  H   H1160     1.0  0.97834  0.40462  0.71205  1.0000
  C   C959      1.0  0.85088  0.29560  0.12142  1.0000
  C   C960      1.0  0.98796  0.49595  0.39472  1.0000
  H   H1161     1.0  0.87585  0.32479  0.11915  1.0000
  H   H1162     1.0  0.96697  0.45269  0.19715  1.0000
  H   H1163     1.0  0.85315  0.41227  0.74757  1.0000
  H   H1164     1.0  0.94184  0.39429  0.28939  1.0000
  H   H1165     1.0  0.89527  0.38743  0.17225  1.0000
  H   H1166     1.0  0.99243  0.36778  0.28087  1.0000
  C   C961      1.0  0.91038  0.48881  0.53195  1.0000
  C   C962      1.0  0.91778  0.38445  0.09410  1.0000
  C   C963      1.0  0.85547  0.45295  0.76766  1.0000
  C   C964      1.0  0.96792  0.42922  0.25904  1.0000
  H   H1167     1.0  0.97243  0.39391  0.28949  1.0000
  S   S265      1.0  0.92028  0.49113  0.57284  1.0000
  C   C965      1.0  0.97361  0.35196  0.27542  1.0000
  H   H1168     1.0  0.87824  0.42435  0.15283  1.0000
  H   H1169     1.0  0.94382  0.47589  0.21281  1.0000
  H   H1170     1.0  0.92368  0.41406  0.15366  1.0000
  C   C966      1.0  0.88815  0.39089  0.14729  1.0000
  C   C967      1.0  0.98851  0.36922  0.93039  1.0000
  C   C968      1.0  0.86097  0.43380  0.81964  1.0000
  C   C969      1.0  0.89564  0.48753  0.46440  1.0000
  H   H1171     1.0  0.89725  0.42978  0.13483  1.0000
  C   C970      1.0  0.85052  0.47108  0.71316  1.0000
  H   H1172     1.0  0.88456  0.39636  0.07825  1.0000
  C   C971      1.0  0.97478  0.34637  0.94997  1.0000
  C   C972      1.0  0.97276  0.26243  0.70962  1.0000
  H   H1173     1.0  0.83817  0.46753  0.70819  1.0000
  H   H1174     1.0  0.85050  0.43980  0.71954  1.0000
  N   N63       1.0  0.98805  0.35115  0.92626  1.0000
  H   H1175     1.0  0.87361  0.27832  0.99731  1.0000
  H   H1176     1.0  0.99367  0.42345  0.36105  1.0000
  C   C973      1.0  0.88575  0.48882  0.49585  1.0000
  C   C974      1.0  0.84121  0.48203  0.77040  1.0000
  C   C975      1.0  0.96020  0.49226  0.22973  1.0000
  S   S266      1.0  0.98975  0.38578  0.17313  1.0000
  H   H1177     1.0  0.93301  0.25514  0.43558  1.0000
  H   H1178     1.0  0.97996  0.28629  0.17392  1.0000
  C   C976      1.0  0.98929  0.34239  0.79662  1.0000
  H   H1179     1.0  0.97762  0.44185  0.35743  1.0000
  C   C977      1.0  0.91296  0.48665  0.46705  1.0000
  S   S267      1.0  0.99232  0.39138  0.80098  1.0000
  C   C978      1.0  0.98545  0.34848  0.88795  1.0000
  H   H1180     1.0  0.97089  0.47470  0.80324  1.0000
  C   C979      1.0  0.98993  0.48069  0.22616  1.0000
  H   H1181     1.0  0.83986  0.49493  0.75845  1.0000
  H   H1182     1.0  0.98535  0.33505  0.88244  1.0000
  H   H1183     1.0  0.98591  0.35244  0.99929  1.0000
  C   C980      1.0  0.99526  0.35752  0.79390  1.0000
  H   H1184     1.0  0.99495  0.47345  0.70060  1.0000
  H   H1185     1.0  0.98813  0.33173  0.32728  1.0000
  H   H1186     1.0  0.99541  0.48571  0.40956  1.0000
  C   C981      1.0  0.98477  0.49432  0.79924  1.0000
  H   H1187     1.0  0.99041  0.25826  0.19807  1.0000
  C   C982      1.0  0.92022  0.48747  0.50051  1.0000
  H   H1188     1.0  0.99406  0.28684  0.78628  1.0000
  N   N64       1.0  0.99671  0.27300  0.73729  1.0000
  C   C983      1.0  0.99617  0.33242  0.30310  1.0000
  N   N65       1.0  0.99654  0.44653  0.79035  1.0000
  H   H1189     1.0  0.99724  0.29912  0.74668  1.0000
  H   H1190     1.0  0.99644  0.45555  0.20598  1.0000
  H   H1191     1.0  0.99559  0.35212  0.87079  1.0000
  H   H1192     1.0  0.99634  0.44311  0.37964  1.0000
  H   H1193     1.0  0.99686  0.30850  0.17645  1.0000
  C   C984      1.0  0.99749  0.46460  0.79140  1.0000
  C   C985      1.0  0.99728  0.33795  0.23996  1.0000
  C   C986      1.0  0.96328  0.50716  0.36070  1.0000
  C   C987      1.0  0.96186  0.50661  0.53807  1.0000
  S   S268      1.0  0.92326  0.53047  0.29132  1.0000
  C   C988      1.0  0.98688  0.67471  0.20969  1.0000
  C   C989      1.0  0.87349  0.60023  0.04072  1.0000
  H   H1194     1.0  0.86627  0.69347  0.79389  1.0000
  S   S269      1.0  0.91418  0.74151  0.31491  1.0000
  H   H1195     1.0  0.95058  0.50176  0.54467  1.0000
  C   C990      1.0  0.89431  0.73081  0.26314  1.0000
  H   H1196     1.0  0.88647  0.74314  0.26444  1.0000
  C   C991      1.0  0.95160  0.73133  0.17808  1.0000
  H   H1197     1.0  0.99459  0.57759  0.67540  1.0000
  C   C992      1.0  0.86329  0.71982  0.78884  1.0000
  C   C993      1.0  0.95415  0.72744  0.77256  1.0000
  H   H1198     1.0  0.95214  0.50550  0.34744  1.0000
  C   C994      1.0  0.94484  0.52599  0.59897  1.0000
  H   H1199     1.0  0.92930  0.70740  0.29911  1.0000
  H   H1200     1.0  0.94053  0.54676  0.38257  1.0000
  C   C995      1.0  0.99650  0.59108  0.25264  1.0000
  S   S270      1.0  0.88962  0.52092  0.73980  1.0000
  H   H1201     1.0  0.93202  0.74260  0.75036  1.0000
  C   C996      1.0  0.99024  0.64447  0.21630  1.0000
  Fe  Fe136     1.0  0.90508  0.62211  0.19964  1.0000
  S   S271      1.0  0.92865  0.61595  0.16675  1.0000
  S   S272      1.0  0.89142  0.60033  0.21389  1.0000
  Fe  Fe137     1.0  0.90635  0.66031  0.19708  1.0000
  S   S273      1.0  0.92987  0.65606  0.16308  1.0000
  S   S274      1.0  0.89380  0.68749  0.20940  1.0000
  Fe  Fe138     1.0  0.91814  0.63811  0.13161  1.0000
  S   S275      1.0  0.92507  0.63433  0.07243  1.0000
  Fe  Fe139     1.0  0.93795  0.63433  0.20075  1.0000
  S   S276      1.0  0.96415  0.62770  0.22080  1.0000
  S   S277      1.0  0.89377  0.64368  0.16275  1.0000
  S   S278      1.0  0.91521  0.63926  0.23668  1.0000
  Fe  Fe140     1.0  0.91251  0.61209  0.80558  1.0000
  S   S279      1.0  0.92177  0.61112  0.86190  1.0000
  S   S280      1.0  0.91756  0.58827  0.77154  1.0000
  Fe  Fe141     1.0  0.90894  0.65154  0.80098  1.0000
  S   S281      1.0  0.91841  0.65278  0.85650  1.0000
  S   S282      1.0  0.90208  0.67366  0.76091  1.0000
  Fe  Fe142     1.0  0.93714  0.62977  0.84249  1.0000
  S   S283      1.0  0.96421  0.62493  0.85671  1.0000
  Fe  Fe143     1.0  0.90212  0.63412  0.87184  1.0000
  S   S284      1.0  0.88702  0.63913  0.92377  1.0000
  S   S285      1.0  0.92931  0.62983  0.78597  1.0000
  S   S286      1.0  0.89118  0.63391  0.81661  1.0000
  C   C997      1.0  0.97140  0.64392  0.85651  1.0000
  C   C998      1.0  0.96204  0.65827  0.84032  1.0000
  C   C999      1.0  0.90258  0.59734  0.99848  1.0000
  H   H1202     1.0  0.95001  0.65785  0.82902  1.0000
  C   C1000     1.0  0.90380  0.59609  0.03560  1.0000
  C   C1001     1.0  0.97285  0.64586  0.21938  1.0000
  C   C1002     1.0  0.96251  0.66174  0.21964  1.0000
  C   C1003     1.0  0.97971  0.59911  0.30552  1.0000
  H   H1203     1.0  0.94910  0.66290  0.22343  1.0000
  C   C1004     1.0  0.86821  0.70465  0.84626  1.0000
  C   C1005     1.0  0.91395  0.63631  0.03167  1.0000
  C   C1006     1.0  0.92311  0.63219  0.99982  1.0000
  C   C1007     1.0  0.91506  0.63334  0.96670  1.0000
  C   C1008     1.0  0.89764  0.63839  0.96499  1.0000
  C   C1009     1.0  0.88843  0.64256  0.99681  1.0000
  C   C1010     1.0  0.89653  0.64161  0.02997  1.0000
  H   H1204     1.0  0.93656  0.62796  0.00075  1.0000
  H   H1205     1.0  0.92234  0.63005  0.94255  1.0000
  H   H1206     1.0  0.87495  0.64646  0.99584  1.0000
  H   H1207     1.0  0.88930  0.64499  0.05410  1.0000
  C   C1011     1.0  0.89983  0.70231  0.23882  1.0000
  C   C1012     1.0  0.91416  0.69849  0.25979  1.0000
  H   H1208     1.0  0.92191  0.68611  0.25871  1.0000
  C   C1013     1.0  0.90232  0.69574  0.75773  1.0000
  C   C1014     1.0  0.90609  0.70499  0.78656  1.0000
  H   H1209     1.0  0.90969  0.69863  0.81157  1.0000
  H   H1210     1.0  0.86186  0.60178  0.05592  1.0000
  H   H1211     1.0  0.99301  0.63259  0.09018  1.0000
  C   C1015     1.0  0.96453  0.51505  0.72230  1.0000
  H   H1212     1.0  0.88206  0.61320  0.14129  1.0000
  C   C1016     1.0  0.98290  0.51014  0.49329  1.0000
  H   H1213     1.0  0.95597  0.52667  0.72793  1.0000
  C   C1017     1.0  0.89773  0.53944  0.74895  1.0000
  C   C1018     1.0  0.88894  0.55129  0.77277  1.0000
  C   C1019     1.0  0.89481  0.56620  0.78031  1.0000
  C   C1020     1.0  0.90952  0.56956  0.76385  1.0000
  C   C1021     1.0  0.91833  0.55768  0.74010  1.0000
  C   C1022     1.0  0.91256  0.54271  0.73284  1.0000
  H   H1214     1.0  0.87746  0.54896  0.78538  1.0000
  H   H1215     1.0  0.88783  0.57517  0.79854  1.0000
  H   H1216     1.0  0.92964  0.56012  0.72691  1.0000
  H   H1217     1.0  0.91948  0.53381  0.71443  1.0000
  H   H1218     1.0  0.91381  0.59676  0.98198  1.0000
  C   C1023     1.0  0.90676  0.53028  0.44082  1.0000
  H   H1219     1.0  0.88206  0.58236  0.14165  1.0000
  H   H1220     1.0  0.91006  0.71447  0.17173  1.0000
  H   H1221     1.0  0.89817  0.52487  0.45786  1.0000
  H   H1222     1.0  0.90738  0.59228  0.14082  1.0000
  C   C1024     1.0  0.93674  0.70921  0.16302  1.0000
  H   H1223     1.0  0.94575  0.49970  0.73066  1.0000
  C   C1025     1.0  0.98548  0.66263  0.99060  1.0000
  S   S287      1.0  0.98810  0.53444  0.70759  1.0000
  H   H1224     1.0  0.93684  0.69656  0.15412  1.0000
  H   H1225     1.0  0.95214  0.65550  0.06193  1.0000
  H   H1226     1.0  0.89269  0.72843  0.69711  1.0000
  H   H1227     1.0  0.97025  0.59326  0.75108  1.0000
  H   H1228     1.0  0.95848  0.52699  0.23764  1.0000
  H   H1229     1.0  0.94849  0.53167  0.43940  1.0000
  C   C1026     1.0  0.91387  0.54983  0.27024  1.0000
  C   C1027     1.0  0.92396  0.56188  0.26232  1.0000
  C   C1028     1.0  0.91729  0.57737  0.24537  1.0000
  C   C1029     1.0  0.90037  0.58106  0.23602  1.0000
  C   C1030     1.0  0.89026  0.56903  0.24402  1.0000
  C   C1031     1.0  0.89692  0.55353  0.26107  1.0000
  H   H1230     1.0  0.93705  0.55925  0.26941  1.0000
  H   H1231     1.0  0.92525  0.58646  0.23954  1.0000
  H   H1232     1.0  0.87716  0.57171  0.23695  1.0000
  H   H1233     1.0  0.88898  0.54443  0.26680  1.0000
  H   H1234     1.0  0.88802  0.62341  0.10111  1.0000
  C   C1032     1.0  0.98710  0.64448  0.87049  1.0000
  C   C1033     1.0  0.89002  0.71859  0.24057  1.0000
  C   C1034     1.0  0.96619  0.52228  0.26121  1.0000
  N   N66       1.0  0.96977  0.57656  0.79616  1.0000
  C   C1035     1.0  0.96108  0.57687  0.83143  1.0000
  C   C1036     1.0  0.96392  0.59286  0.77750  1.0000
  C   C1037     1.0  0.96437  0.56329  0.77501  1.0000
  C   C1038     1.0  0.98488  0.67316  0.84856  1.0000
  C   C1039     1.0  0.98818  0.57407  0.80077  1.0000
  H   H1235     1.0  0.98773  0.50865  0.46620  1.0000
  C   C1040     1.0  0.97158  0.52732  0.62310  1.0000
  H   H1236     1.0  0.98514  0.52026  0.19974  1.0000
  C   C1041     1.0  0.98975  0.66214  0.02658  1.0000
  H   H1237     1.0  0.96571  0.56520  0.84721  1.0000
  H   H1238     1.0  0.95835  0.66795  0.11456  1.0000
  H   H1239     1.0  0.94723  0.57803  0.82859  1.0000
  C   C1042     1.0  0.99372  0.58911  0.69007  1.0000
  H   H1240     1.0  0.96623  0.60368  0.79302  1.0000
  H   H1241     1.0  0.95019  0.59503  0.77281  1.0000
  H   H1242     1.0  0.96825  0.55061  0.78749  1.0000
  H   H1243     1.0  0.95046  0.56539  0.77263  1.0000
  H   H1244     1.0  0.96950  0.56308  0.74723  1.0000
  H   H1245     1.0  0.97227  0.62904  0.68977  1.0000
  C   C1043     1.0  0.99153  0.51754  0.22573  1.0000
  H   H1246     1.0  0.97389  0.60285  0.65825  1.0000
  C   C1044     1.0  0.98207  0.60332  0.68055  1.0000
  H   H1247     1.0  0.97170  0.58939  0.30394  1.0000
  N   N67       1.0  0.87133  0.68897  0.86823  1.0000
  C   C1045     1.0  0.85787  0.68939  0.89576  1.0000
  C   C1046     1.0  0.87188  0.67357  0.84726  1.0000
  C   C1047     1.0  0.88767  0.68735  0.88628  1.0000
  H   H1248     1.0  0.84532  0.69102  0.88329  1.0000
  H   H1249     1.0  0.85967  0.67752  0.91212  1.0000
  H   H1250     1.0  0.85752  0.69977  0.91471  1.0000
  H   H1251     1.0  0.88213  0.67220  0.82670  1.0000
  H   H1252     1.0  0.85979  0.67356  0.83381  1.0000
  H   H1253     1.0  0.88784  0.69748  0.90557  1.0000
  H   H1254     1.0  0.89079  0.67527  0.90175  1.0000
  H   H1255     1.0  0.99335  0.51608  0.29822  1.0000
  C   C1048     1.0  0.96826  0.50444  0.50323  1.0000
  C   C1049     1.0  0.95168  0.71523  0.16535  1.0000
  C   C1050     1.0  0.99133  0.51775  0.51826  1.0000
  C   C1051     1.0  0.95870  0.49982  0.72338  1.0000
  C   C1052     1.0  0.95774  0.65818  0.00714  1.0000
  H   H1256     1.0  0.96627  0.66093  0.95295  1.0000
  H   H1257     1.0  0.99555  0.55148  0.76858  1.0000
  H   H1258     1.0  0.96455  0.64529  0.11380  1.0000
  H   H1259     1.0  0.96348  0.70719  0.15819  1.0000
  H   H1260     1.0  0.98128  0.71337  0.25590  1.0000
  H   H1261     1.0  0.99204  0.67494  0.12959  1.0000
  H   H1262     1.0  0.96277  0.58775  0.84755  1.0000
  C   C1053     1.0  0.99523  0.58551  0.82110  1.0000
  H   H1263     1.0  0.86210  0.71959  0.76012  1.0000
  C   C1054     1.0  0.98127  0.51526  0.71306  1.0000
  H   H1264     1.0  0.89803  0.68775  0.86649  1.0000
  N   N68       1.0  0.98302  0.65905  0.09192  1.0000
  C   C1055     1.0  0.92140  0.73541  0.18598  1.0000
  H   H1265     1.0  0.87428  0.66201  0.86447  1.0000
  H   H1266     1.0  0.85904  0.53970  0.41238  1.0000
  H   H1267     1.0  0.86825  0.61657  0.10448  1.0000
  C   C1056     1.0  0.96984  0.51480  0.56391  1.0000
  H   H1268     1.0  0.99424  0.63348  0.88361  1.0000
  C   C1057     1.0  0.97305  0.64284  0.75679  1.0000
  H   H1269     1.0  0.97316  0.65711  0.14554  1.0000
  C   C1058     1.0  0.96878  0.67293  0.83636  1.0000
  C   C1059     1.0  0.88105  0.58356  0.11201  1.0000
  H   H1270     1.0  0.86741  0.58634  0.10656  1.0000
  C   C1060     1.0  0.88169  0.61318  0.11162  1.0000
  C   C1061     1.0  0.89779  0.70441  0.72536  1.0000
  C   C1062     1.0  0.86778  0.72044  0.86225  1.0000
  N   N69       1.0  0.88994  0.59674  0.09737  1.0000
  H   H1271     1.0  0.97296  0.61004  0.28988  1.0000
  C   C1063     1.0  0.90730  0.59300  0.11109  1.0000
  H   H1272     1.0  0.88640  0.57110  0.10066  1.0000
  H   H1273     1.0  0.91443  0.60305  0.10313  1.0000
  H   H1274     1.0  0.88035  0.56792  0.40636  1.0000
  H   H1275     1.0  0.91430  0.58075  0.10149  1.0000
  H   H1276     1.0  0.91630  0.59461  0.04605  1.0000
  C   C1064     1.0  0.91835  0.71066  0.28265  1.0000
  C   C1065     1.0  0.88922  0.59745  0.05793  1.0000
  H   H1277     1.0  0.92697  0.52093  0.47652  1.0000
  H   H1278     1.0  0.86499  0.56207  0.37766  1.0000
  C   C1066     1.0  0.98905  0.67465  0.10080  1.0000
  C   C1067     1.0  0.87243  0.60161  0.00359  1.0000
  H   H1279     1.0  0.86029  0.60416  0.99101  1.0000
  C   C1068     1.0  0.88695  0.60018  0.98253  1.0000
  N   N70       1.0  0.98115  0.50952  0.25143  1.0000
  H   H1280     1.0  0.97373  0.50389  0.80387  1.0000
  H   H1281     1.0  0.87103  0.53299  0.35215  1.0000
  H   H1282     1.0  0.96185  0.68377  0.82237  1.0000
  H   H1283     1.0  0.89486  0.69748  0.70279  1.0000
  C   C1069     1.0  0.88376  0.53092  0.36382  1.0000
  H   H1284     1.0  0.95808  0.51710  0.28124  1.0000
  C   C1070     1.0  0.96870  0.52244  0.35629  1.0000
  C   C1071     1.0  0.87853  0.55940  0.38452  1.0000
  H   H1285     1.0  0.86952  0.72134  0.89053  1.0000
  H   H1286     1.0  0.88527  0.56308  0.36035  1.0000
  H   H1287     1.0  0.87473  0.52341  0.42929  1.0000
  H   H1288     1.0  0.87227  0.54428  0.44717  1.0000
  H   H1289     1.0  0.96149  0.68842  0.21410  1.0000
  C   C1072     1.0  0.87211  0.53709  0.42233  1.0000
  C   C1073     1.0  0.86330  0.73504  0.80527  1.0000
  C   C1074     1.0  0.96912  0.65729  0.11736  1.0000
  N   N71       1.0  0.88431  0.54152  0.39525  1.0000
  H   H1290     1.0  0.88707  0.51735  0.37131  1.0000
  H   H1291     1.0  0.89269  0.53342  0.34226  1.0000
  H   H1292     1.0  0.88609  0.60180  0.95380  1.0000
  C   C1075     1.0  0.90175  0.53895  0.40825  1.0000
  C   C1076     1.0  0.93105  0.54230  0.39901  1.0000
  C   C1077     1.0  0.98013  0.73900  0.76782  1.0000
  H   H1293     1.0  0.96183  0.49830  0.48382  1.0000
  H   H1294     1.0  0.94764  0.71749  0.78148  1.0000
  H   H1295     1.0  0.96146  0.53243  0.34041  1.0000
  H   H1296     1.0  0.95994  0.72820  0.29790  1.0000
  H   H1297     1.0  0.97943  0.68599  0.09465  1.0000
  H   H1298     1.0  0.96970  0.53346  0.27361  1.0000
  Fe  Fe144     1.0  0.91789  0.50542  0.31463  1.0000
  C   C1078     1.0  0.90456  0.72266  0.78341  1.0000
  C   C1079     1.0  0.86576  0.70480  0.80880  1.0000
  C   C1080     1.0  0.91450  0.54466  0.38746  1.0000
  H   H1299     1.0  0.91192  0.55058  0.36153  1.0000
  H   H1300     1.0  0.97745  0.71508  0.79311  1.0000
  C   C1081     1.0  0.99083  0.50484  0.28438  1.0000
  H   H1301     1.0  0.87892  0.72173  0.22450  1.0000
  C   C1082     1.0  0.92342  0.52782  0.45190  1.0000
  H   H1302     1.0  0.97197  0.53987  0.61079  1.0000
  C   C1083     1.0  0.97807  0.65970  0.05406  1.0000
  C   C1084     1.0  0.93554  0.53383  0.43107  1.0000
  H   H1303     1.0  0.97232  0.65486  0.77097  1.0000
  H   H1304     1.0  0.96726  0.63424  0.77462  1.0000
  C   C1085     1.0  0.99363  0.51118  0.38953  1.0000
  C   C1086     1.0  0.89660  0.72203  0.72199  1.0000
  C   C1087     1.0  0.96954  0.67620  0.21463  1.0000
  H   H1305     1.0  0.90687  0.72970  0.80632  1.0000
  C   C1088     1.0  0.90844  0.72687  0.28467  1.0000
  H   H1306     1.0  0.98770  0.58274  0.24539  1.0000
  C   C1089     1.0  0.96187  0.65764  0.04320  1.0000
  C   C1090     1.0  0.98404  0.52433  0.36994  1.0000
  C   C1091     1.0  0.94532  0.74156  0.75508  1.0000
  N   N72       1.0  0.96261  0.51720  0.60042  1.0000
  C   C1092     1.0  0.89963  0.73137  0.75123  1.0000
  C   C1093     1.0  0.99724  0.65892  0.21230  1.0000
  C   C1094     1.0  0.92164  0.71933  0.17305  1.0000
  C   C1095     1.0  0.86545  0.73536  0.84193  1.0000
  H   H1307     1.0  0.93925  0.52857  0.62613  1.0000
  Fe  Fe145     1.0  0.90251  0.49915  0.70540  1.0000
  C   C1096     1.0  0.97126  0.72617  0.77896  1.0000
  C   C1097     1.0  0.99231  0.50017  0.70639  1.0000
  C   C1098     1.0  0.98157  0.72625  0.26287  1.0000
  S   S288      1.0  0.99552  0.69219  0.19666  1.0000
  H   H1308     1.0  0.98392  0.49778  0.30339  1.0000
  H   H1309     1.0  0.96492  0.64614  0.73335  1.0000
  H   H1310     1.0  0.96370  0.73493  0.17996  1.0000
  H   H1311     1.0  0.94530  0.65662  0.99955  1.0000
  C   C1099     1.0  0.99376  0.65917  0.86678  1.0000
  H   H1312     1.0  0.98462  0.52078  0.62861  1.0000
  H   H1313     1.0  0.99645  0.72563  0.82751  1.0000
  H   H1314     1.0  0.93662  0.51849  0.58592  1.0000
  C   C1100     1.0  0.96327  0.50056  0.61817  1.0000
  C   C1101     1.0  0.99680  0.64450  0.09798  1.0000
  H   H1315     1.0  0.99227  0.52607  0.57091  1.0000
  C   C1102     1.0  0.98502  0.52005  0.55311  1.0000
  C   C1103     1.0  0.98109  0.61824  0.69918  1.0000
  H   H1316     1.0  0.96529  0.52968  0.64964  1.0000
  H   H1317     1.0  0.94371  0.53819  0.58411  1.0000
  C   C1104     1.0  0.96950  0.66063  0.98089  1.0000
  S   S289      1.0  0.99223  0.54201  0.35722  1.0000
  H   H1318     1.0  0.94945  0.50187  0.23604  1.0000
  H   H1319     1.0  0.98735  0.59591  0.83420  1.0000
  H   H1320     1.0  0.99398  0.56750  0.30357  1.0000
  H   H1321     1.0  0.95889  0.50182  0.64642  1.0000
  H   H1322     1.0  0.97982  0.60278  0.33389  1.0000
  C   C1105     1.0  0.99405  0.73434  0.24824  1.0000
  C   C1106     1.0  0.96957  0.73455  0.28659  1.0000
  S   S290      1.0  0.92221  0.50147  0.37333  1.0000
  C   C1107     1.0  0.93636  0.74199  0.18866  1.0000
  S   S291      1.0  0.92497  0.49970  0.67002  1.0000
  H   H1323     1.0  0.99033  0.62735  0.28178  1.0000
  C   C1108     1.0  0.99155  0.61925  0.72865  1.0000
  H   H1324     1.0  0.99235  0.60334  0.23867  1.0000
  H   H1325     1.0  0.99410  0.52960  0.23585  1.0000
  H   H1326     1.0  0.99010  0.65031  0.69885  1.0000
  H   H1327     1.0  0.90942  0.74245  0.19482  1.0000
  N   N73       1.0  0.99069  0.63532  0.74728  1.0000
  S   S292      1.0  0.99461  0.69008  0.83710  1.0000
  H   H1328     1.0  0.99461  0.66454  0.97009  1.0000
  H   H1329     1.0  0.99594  0.62435  0.79975  1.0000
  N   N74       1.0  0.99705  0.59300  0.29170  1.0000
  H   H1330     1.0  0.86209  0.74654  0.78933  1.0000
  H   H1331     1.0  0.96865  0.74564  0.59450  1.0000
  Fe  Fe146     1.0  0.90073  0.78237  0.62553  1.0000
  S   S293      1.0  0.90731  0.80745  0.63562  1.0000
  S   S294      1.0  0.90055  0.77096  0.57119  1.0000
  Fe  Fe147     1.0  0.89717  0.77330  0.70445  1.0000
  S   S295      1.0  0.90287  0.79847  0.72024  1.0000
  H   H1332     1.0  0.93775  0.74829  0.25674  1.0000
  Fe  Fe148     1.0  0.88580  0.81042  0.67597  1.0000
  S   S296      1.0  0.87134  0.83793  0.67341  1.0000
  Fe  Fe149     1.0  0.92354  0.79404  0.67878  1.0000
  S   S297      1.0  0.95048  0.79489  0.69312  1.0000
  S   S298      1.0  0.87837  0.78563  0.66325  1.0000
  S   S299      1.0  0.91873  0.76856  0.66546  1.0000
  N   N75       1.0  0.97237  0.81941  0.41459  1.0000
  S   S300      1.0  0.76658  0.92602  0.72066  1.0000
  H   H1333     1.0  0.91054  0.86941  0.73528  1.0000
  Fe  Fe150     1.0  0.76951  0.93462  0.61930  1.0000
  S   S301      1.0  0.79196  0.93329  0.65440  1.0000
  C   C1109     1.0  0.96983  0.80254  0.40413  1.0000
  Fe  Fe151     1.0  0.78369  0.91052  0.68013  1.0000
  S   S302      1.0  0.79809  0.88406  0.69647  1.0000
  Fe  Fe152     1.0  0.77344  0.94880  0.69178  1.0000
  H   H1334     1.0  0.90138  0.84830  0.65232  1.0000
  S   S303      1.0  0.76240  0.91104  0.64208  1.0000
  C   C1110     1.0  0.76359  0.93797  0.49216  1.0000
  Fe  Fe153     1.0  0.91237  0.79714  0.37501  1.0000
  S   S304      1.0  0.90470  0.81833  0.33561  1.0000
  S   S305      1.0  0.92107  0.80527  0.42763  1.0000
  Fe  Fe154     1.0  0.90627  0.77003  0.32249  1.0000
  S   S306      1.0  0.89739  0.78970  0.28034  1.0000
  C   C1111     1.0  0.98779  0.82289  0.50946  1.0000
  Fe  Fe155     1.0  0.91964  0.80090  0.29596  1.0000
  S   S307      1.0  0.93745  0.80664  0.25202  1.0000
  Fe  Fe156     1.0  0.88316  0.80548  0.32430  1.0000
  S   S308      1.0  0.85544  0.81867  0.32764  1.0000
  S   S309      1.0  0.92898  0.78090  0.33617  1.0000
  S   S310      1.0  0.89039  0.78470  0.36578  1.0000
  Fe  Fe157     1.0  0.78754  0.90731  0.32135  1.0000
  S   S311      1.0  0.76451  0.89562  0.32884  1.0000
  S   S312      1.0  0.81406  0.89399  0.30401  1.0000
  Fe  Fe158     1.0  0.76861  0.94241  0.34502  1.0000
  H   H1335     1.0  0.94614  0.77431  0.52336  1.0000
  H   H1336     1.0  0.96050  0.75746  0.31405  1.0000
  Fe  Fe159     1.0  0.76119  0.91014  0.37987  1.0000
  H   H1337     1.0  0.79234  0.98052  0.52540  1.0000
  H   H1338     1.0  0.93187  0.78120  0.59460  1.0000
  C   C1112     1.0  0.78936  0.98987  0.66480  1.0000
  S   S313      1.0  0.78468  0.92076  0.37374  1.0000
  S   S314      1.0  0.77316  0.93017  0.29171  1.0000
  C   C1113     1.0  0.78374  0.98999  0.70033  1.0000
  S   S315      1.0  0.76445  0.97005  0.36022  1.0000
  H   H1339     1.0  0.90794  0.87921  0.69183  1.0000
  H   H1340     1.0  0.94826  0.78873  0.61624  1.0000
  C   C1114     1.0  0.94920  0.76419  0.54407  1.0000
  H   H1341     1.0  0.91456  0.86246  0.63814  1.0000
  C   C1115     1.0  0.78562  0.97187  0.43949  1.0000
  C   C1116     1.0  0.95778  0.81150  0.25541  1.0000
  H   H1342     1.0  0.89402  0.86575  0.70690  1.0000
  H   H1343     1.0  0.91802  0.83828  0.74114  1.0000
  H   H1344     1.0  0.96255  0.80302  0.30966  1.0000
  H   H1345     1.0  0.78661  0.95809  0.44420  1.0000
  C   C1117     1.0  0.84434  0.83980  0.32116  1.0000
  C   C1118     1.0  0.85207  0.85274  0.30753  1.0000
  C   C1119     1.0  0.84264  0.86917  0.30269  1.0000
  C   C1120     1.0  0.82541  0.87305  0.31190  1.0000
  C   C1121     1.0  0.81778  0.86017  0.32624  1.0000
  C   C1122     1.0  0.82715  0.84369  0.33059  1.0000
  H   H1346     1.0  0.86524  0.85007  0.30013  1.0000
  H   H1347     1.0  0.84873  0.87896  0.29151  1.0000
  H   H1348     1.0  0.80457  0.86283  0.33336  1.0000
  H   H1349     1.0  0.82096  0.83385  0.34115  1.0000
  H   H1350     1.0  0.94644  0.76549  0.73088  1.0000
  H   H1351     1.0  0.76081  0.89116  0.50793  1.0000
  H   H1352     1.0  0.97449  0.77166  0.51068  1.0000
  N   N76       1.0  0.93581  0.75886  0.20353  1.0000
  C   C1123     1.0  0.76166  0.90422  0.50351  1.0000
  C   C1124     1.0  0.76487  0.91396  0.53221  1.0000
  C   C1125     1.0  0.98189  0.78112  0.59663  1.0000
  C   C1126     1.0  0.76822  0.89023  0.77647  1.0000
  S   S316      1.0  0.89590  0.75391  0.75011  1.0000
  H   H1353     1.0  0.76670  0.90832  0.55856  1.0000
  H   H1354     1.0  0.91069  0.76972  0.18635  1.0000
  C   C1127     1.0  0.92385  0.77170  0.18355  1.0000
  H   H1355     1.0  0.92357  0.82590  0.70166  1.0000
  H   H1356     1.0  0.95710  0.82062  0.20107  1.0000
  H   H1357     1.0  0.79135  0.97339  0.41271  1.0000
  H   H1358     1.0  0.97498  0.83783  0.72794  1.0000
  C   C1128     1.0  0.95920  0.81857  0.51257  1.0000
  C   C1129     1.0  0.96526  0.80615  0.67397  1.0000
  H   H1359     1.0  0.94628  0.83350  0.72892  1.0000
  C   C1130     1.0  0.96115  0.81817  0.64669  1.0000
  H   H1360     1.0  0.92302  0.84039  0.64177  1.0000
  H   H1361     1.0  0.94860  0.82071  0.63635  1.0000
  C   C1131     1.0  0.90557  0.78116  0.53152  1.0000
  C   C1132     1.0  0.91066  0.79672  0.53178  1.0000
  C   C1133     1.0  0.91532  0.80406  0.49970  1.0000
  C   C1134     1.0  0.91464  0.79602  0.46720  1.0000
  C   C1135     1.0  0.90921  0.78066  0.46685  1.0000
  C   C1136     1.0  0.90480  0.77320  0.49897  1.0000
  H   H1362     1.0  0.91091  0.80314  0.55658  1.0000
  H   H1363     1.0  0.91918  0.81613  0.49999  1.0000
  H   H1364     1.0  0.90867  0.77435  0.44191  1.0000
  H   H1365     1.0  0.90082  0.76118  0.49859  1.0000
  C   C1137     1.0  0.85062  0.85024  0.67873  1.0000
  C   C1138     1.0  0.84771  0.86733  0.66792  1.0000
  C   C1139     1.0  0.83175  0.87776  0.67238  1.0000
  C   C1140     1.0  0.81840  0.87135  0.68824  1.0000
  C   C1141     1.0  0.82131  0.85427  0.69900  1.0000
  C   C1142     1.0  0.83720  0.84377  0.69409  1.0000
  H   H1366     1.0  0.85790  0.87258  0.65601  1.0000
  H   H1367     1.0  0.82985  0.89083  0.66400  1.0000
  H   H1368     1.0  0.81118  0.84908  0.71135  1.0000
  H   H1369     1.0  0.83912  0.83073  0.70270  1.0000
  H   H1370     1.0  0.93292  0.87755  0.65932  1.0000
  C   C1143     1.0  0.98786  0.82272  0.39608  1.0000
  C   C1144     1.0  0.75214  0.86162  0.75581  1.0000
  C   C1145     1.0  0.98227  0.75930  0.28109  1.0000
  C   C1146     1.0  0.98037  0.77549  0.53382  1.0000
  C   C1147     1.0  0.95882  0.75636  0.60310  1.0000
  H   H1371     1.0  0.98343  0.86100  0.69251  1.0000
  H   H1372     1.0  0.90234  0.83598  0.71018  1.0000
  C   C1148     1.0  0.99478  0.75120  0.25699  1.0000
  C   C1149     1.0  0.81195  0.97245  0.46757  1.0000
  C   C1150     1.0  0.91565  0.83754  0.71219  1.0000
  C   C1151     1.0  0.78665  0.97513  0.50272  1.0000
  H   H1373     1.0  0.76603  0.85898  0.75217  1.0000
  H   H1374     1.0  0.99168  0.80958  0.30939  1.0000
  C   C1152     1.0  0.75076  0.89051  0.77315  1.0000
  C   C1153     1.0  0.75981  0.91125  0.46898  1.0000
  C   C1154     1.0  0.94168  0.86865  0.67471  1.0000
  C   C1155     1.0  0.94889  0.84426  0.71379  1.0000
  H   H1375     1.0  0.95733  0.76464  0.17458  1.0000
  C   C1156     1.0  0.98056  0.82216  0.22500  1.0000
  H   H1376     1.0  0.94296  0.79551  0.57140  1.0000
  H   H1377     1.0  0.80474  0.99630  0.40956  1.0000
  C   C1157     1.0  0.96760  0.80838  0.28614  1.0000
  C   C1158     1.0  0.96450  0.81818  0.22492  1.0000
  H   H1378     1.0  0.98498  0.79357  0.70800  1.0000
  H   H1379     1.0  0.93712  0.76001  0.55078  1.0000
  C   C1159     1.0  0.95812  0.83214  0.40132  1.0000
  H   H1380     1.0  0.85695  0.99095  0.72296  1.0000
  C   C1160     1.0  0.78857  0.98431  0.32285  1.0000
  S   S317      1.0  0.77687  0.97240  0.72095  1.0000
  C   C1161     1.0  0.97362  0.82100  0.52956  1.0000
  S   S318      1.0  0.75162  0.95137  0.65522  1.0000
  C   C1162     1.0  0.95233  0.76431  0.20237  1.0000
  H   H1381     1.0  0.96988  0.83708  0.61354  1.0000
  H   H1382     1.0  0.81868  0.97868  0.48731  1.0000
  S   S319      1.0  0.75536  0.89914  0.43334  1.0000
  C   C1163     1.0  0.99046  0.81923  0.25533  1.0000
  C   C1164     1.0  0.99723  0.78630  0.59041  1.0000
  N   N77       1.0  0.85815  0.82436  0.44011  1.0000
  C   C1165     1.0  0.87551  0.82045  0.42520  1.0000
  C   C1166     1.0  0.84899  0.81108  0.42944  1.0000
  C   C1167     1.0  0.84975  0.84042  0.42323  1.0000
  C   C1168     1.0  0.85860  0.82484  0.47952  1.0000
  C   C1169     1.0  0.85126  0.83924  0.49926  1.0000
  C   C1170     1.0  0.86638  0.81049  0.49946  1.0000
  C   C1171     1.0  0.85177  0.83914  0.53654  1.0000
  C   C1172     1.0  0.86670  0.81050  0.53672  1.0000
  C   C1173     1.0  0.85948  0.82481  0.55522  1.0000
  H   H1383     1.0  0.88213  0.80767  0.43307  1.0000
  H   H1384     1.0  0.87563  0.82085  0.39548  1.0000
  H   H1385     1.0  0.88321  0.82953  0.43421  1.0000
  H   H1386     1.0  0.85544  0.79830  0.43780  1.0000
  H   H1387     1.0  0.84782  0.81077  0.39993  1.0000
  H   H1388     1.0  0.83606  0.81318  0.44119  1.0000
  H   H1389     1.0  0.85625  0.85095  0.42922  1.0000
  H   H1390     1.0  0.84981  0.83963  0.39364  1.0000
  H   H1391     1.0  0.83631  0.84377  0.43158  1.0000
  H   H1392     1.0  0.84496  0.85072  0.48660  1.0000
  H   H1393     1.0  0.87224  0.79907  0.48639  1.0000
  H   H1394     1.0  0.84605  0.85021  0.55115  1.0000
  H   H1395     1.0  0.87253  0.79931  0.55138  1.0000
  H   H1396     1.0  0.85977  0.82478  0.58414  1.0000
  H   H1397     1.0  0.78960  0.97879  0.64912  1.0000
  C   C1174     1.0  0.98765  0.82235  0.47223  1.0000
  H   H1398     1.0  0.99227  0.77173  0.19878  1.0000
  H   H1399     1.0  0.94749  0.81598  0.46347  1.0000
  C   C1175     1.0  0.91432  0.85091  0.65449  1.0000
  H   H1400     1.0  0.76392  0.88129  0.70730  1.0000
  C   C1176     1.0  0.90738  0.86743  0.70717  1.0000
  C   C1177     1.0  0.95842  0.87076  0.67446  1.0000
  H   H1401     1.0  0.92717  0.77167  0.15463  1.0000
  C   C1178     1.0  0.93644  0.85514  0.69387  1.0000
  H   H1402     1.0  0.95762  0.75319  0.53222  1.0000
  C   C1179     1.0  0.75005  0.88366  0.71092  1.0000
  C   C1180     1.0  0.96555  0.84660  0.71359  1.0000
  H   H1403     1.0  0.94571  0.82943  0.41031  1.0000
  C   C1181     1.0  0.94447  0.78455  0.59017  1.0000
  N   N78       1.0  0.95669  0.77020  0.57599  1.0000
  H   H1404     1.0  0.98004  0.79254  0.41435  1.0000
  H   H1405     1.0  0.95897  0.84492  0.41049  1.0000
  Fe  Fe160     1.0  0.74975  0.91939  0.30364  1.0000
  H   H1406     1.0  0.78763  0.90071  0.80086  1.0000
  C   C1182     1.0  0.96991  0.75105  0.29564  1.0000
  C   C1183     1.0  0.98167  0.80288  0.68698  1.0000
  H   H1407     1.0  0.95140  0.77719  0.21297  1.0000
  H   H1408     1.0  0.74925  0.85823  0.78388  1.0000
  N   N79       1.0  0.79376  0.97977  0.46785  1.0000
  C   C1184     1.0  0.97326  0.82730  0.63358  1.0000
  H   H1409     1.0  0.80739  0.99604  0.29595  1.0000
  H   H1410     1.0  0.96239  0.76042  0.62952  1.0000
  C   C1185     1.0  0.95354  0.75445  0.74399  1.0000
  H   H1411     1.0  0.77204  0.97749  0.43765  1.0000
  H   H1412     1.0  0.96160  0.75594  0.21916  1.0000
  H   H1413     1.0  0.97393  0.82130  0.55837  1.0000
  H   H1414     1.0  0.76385  0.95112  0.48769  1.0000
  H   H1415     1.0  0.95769  0.79967  0.41452  1.0000
  C   C1186     1.0  0.76572  0.93091  0.52660  1.0000
  H   H1416     1.0  0.98533  0.82764  0.20124  1.0000
  N   N80       1.0  0.91882  0.85270  0.69215  1.0000
  H   H1417     1.0  0.81424  0.95874  0.47421  1.0000
  C   C1187     1.0  0.76089  0.92814  0.46337  1.0000
  H   H1418     1.0  0.99067  0.83519  0.40302  1.0000
  H   H1419     1.0  0.97613  0.76386  0.74084  1.0000
  H   H1420     1.0  0.96227  0.88087  0.65888  1.0000
  C   C1188     1.0  0.97035  0.85968  0.69366  1.0000
  H   H1421     1.0  0.92372  0.78460  0.19355  1.0000
  H   H1422     1.0  0.78904  0.96126  0.50752  1.0000
  C   C1189     1.0  0.97298  0.77551  0.56857  1.0000
  H   H1423     1.0  0.94813  0.81724  0.52818  1.0000
  S   S320      1.0  0.76901  0.94390  0.56179  1.0000
  C   C1190     1.0  0.97309  0.82001  0.45397  1.0000
  H   H1424     1.0  0.79344  0.97196  0.31256  1.0000
  C   C1191     1.0  0.98404  0.81209  0.28599  1.0000
  H   H1425     1.0  0.98677  0.82283  0.36656  1.0000
  C   C1192     1.0  0.77464  0.98665  0.34604  1.0000
  H   H1426     1.0  0.93078  0.77069  0.25457  1.0000
  C   C1193     1.0  0.95893  0.81799  0.47540  1.0000
  H   H1427     1.0  0.97702  0.78159  0.62368  1.0000
  H   H1428     1.0  0.81800  0.97370  0.44104  1.0000
  H   H1429     1.0  0.76780  0.92065  0.83753  1.0000
  H   H1430     1.0  0.95776  0.83264  0.37162  1.0000
  H   H1431     1.0  0.94693  0.75153  0.60793  1.0000
  H   H1432     1.0  0.75925  0.93372  0.43691  1.0000
  H   H1433     1.0  0.96958  0.80148  0.37463  1.0000
  H   H1434     1.0  0.77277  0.97926  0.50418  1.0000
  H   H1435     1.0  0.99327  0.74812  0.82733  1.0000
  H   H1436     1.0  0.98194  0.77212  0.28884  1.0000
  H   H1437     1.0  0.77739  0.88205  0.76046  1.0000
  C   C1194     1.0  0.99582  0.78057  0.52796  1.0000
  C   C1195     1.0  0.77424  0.90092  0.79959  1.0000
  H   H1438     1.0  0.99065  0.78421  0.23788  1.0000
  C   C1196     1.0  0.98967  0.82409  0.64680  1.0000
  C   C1197     1.0  0.97069  0.75330  0.75008  1.0000
  C   C1198     1.0  0.93009  0.75872  0.24125  1.0000
  H   H1439     1.0  0.91684  0.75694  0.24399  1.0000
  C   C1199     1.0  0.76309  0.91217  0.82011  1.0000
  C   C1200     1.0  0.99386  0.81171  0.67330  1.0000
  H   H1440     1.0  0.86563  0.74724  0.85446  1.0000
