data_image0
_chemical_formula_structural       C3FeHSC2HSNC3H4C4HCHCNCH5C2H3CHC3HCH2CHC2H2C2H5FeH2C2FeHCHSHCHCH4C2HC2FeHCSH3FeCH2SNH2CSC2H4C2HCH2SFeCHC2S2HCFeCFeS2FeS2Fe2SC6HCSH2CHCH3C2HNCSHC4HCHCH5CH2C2HC2HCH2CSC5HNH4FeHC2H2NH2C2H5CH2C3H3CSC4HSHCH2CSH2C2HCHSH2FeSC5S3FeS2FeSFeH2FeSFeH3CHCSFeSHCSHCS2HCH3C2NCH2CH5CH2CHCHCHCH2CH3C2HC2SC4H2CHCNCHC2HCHSHCH5SCSHC2H3C2H2CFeS2C2HC3H3C2H2C3HC2H3CHC2H2C3HNH3FeS2HSHCHCFeCH5CH2CH3C3SFeCSCSHFeHNH4C2HSH2CH2FeCHSC2H2C2FeH3FeHCNH3SCSCSHCFeH2CHSHCSC3SHFeHCH3CH2CH2CFeH2CHC3NC2HCHCHCH2SHC2H3CH3C3HCFeSH4SH2NSH2FeSCHC2HCSFeHCHC2H4SC4H2CHC3H3CH4FeHC2HCHNC2HC6HCHCSCNCNHCHCH5C2HC3HCHSCH2CHSH2CHCHCH3CSCFeH2SH7C4HCH2CHC3H2SCSHCS2NCHC5H2CH3C2SH3SCH5CHCSC2FeSC2FeHSH3C2H3NH5NFeC2HCHCSH2CHC5HCHC2H2CHCHCHCHCHCHCSC2H3CH2C2H3CHCNH6FeH2SH3CFeCSFe2S2FeSFeS4C7H4C3HCFeSCH2C2HCHCH2SHCHCHC2HCHC3HCH3NH2NH6C2HFe2SHCH2C5H3CH2SH2CH3CH3FeCHCHSCHC4H2CH2CSH3SH3NCH2FeS2CHS3FeSHC6H3C2H2SCSCHC4HC2H2CHCH4CFeCH2S2CH2NC3HC3HFeNH4CH7FeC2H4C2SCHSC2HCSHSHFeS2FeHSC2S2C5HC7H5SNCHCHC2H5CNC2H2CFeCHC2SC2HFeC2H4FeNC9H12CH8NHCH2CH4CHNCHCH4CSCHC2HFeS2FeSHFeCFeS2HSCHSHSCH2CHC6H4C3SHCH2NC6HS2H10CFeHCHC2H2C2H3CHCHCH3C2SCH2NCHC3HC2H3CHFeH4CHCSHC
_chemical_formula_sum              "C480 Fe64 H576 S128 N32"
_cell_length_a       30.5105
_cell_length_b       43.6181
_cell_length_c       33.0039
_cell_angle_alpha    89.9478
_cell_angle_beta     116.686
_cell_angle_gamma    89.8599

_space_group_name_H-M_alt    "P 1"
_space_group_IT_number       1

loop_
  _space_group_symop_operation_xyz
  'x, y, z'

loop_
  _atom_site_type_symbol
  _atom_site_label
  _atom_site_symmetry_multiplicity
  _atom_site_fract_x
  _atom_site_fract_y
  _atom_site_fract_z
  _atom_site_occupancy
  C   C1        1.0  0.04699  0.26707  0.10119  1.0000
  C   C2        1.0  0.04438  0.29327  0.12458  1.0000
  C   C3        1.0  0.05497  0.03494  0.47544  1.0000
  Fe  Fe1       1.0  0.06033  0.13143  0.07250  1.0000
  H   H1        1.0  0.13832  0.28993  0.07555  1.0000
  S   S1        1.0  0.11898  0.10165  0.12642  1.0000
  C   C4        1.0  0.19593  0.14260  0.14953  1.0000
  C   C5        1.0  0.17938  0.11526  0.15998  1.0000
  H   H2        1.0  0.17282  0.15494  0.11895  1.0000
  S   S2        1.0  0.07840  0.17656  0.05113  1.0000
  N   N1        1.0  0.14504  0.20560  0.21657  1.0000
  C   C6        1.0  0.18305  0.18312  0.24512  1.0000
  C   C7        1.0  0.13765  0.20173  0.16927  1.0000
  C   C8        1.0  0.16014  0.23699  0.23454  1.0000
  H   H3        1.0  0.17202  0.20597  0.16627  1.0000
  H   H4        1.0  0.12532  0.17808  0.15663  1.0000
  H   H5        1.0  0.18747  0.18200  0.28035  1.0000
  H   H6        1.0  0.08324  0.24565  0.06578  1.0000
  C   C9        1.0  0.11200  0.29086  0.08912  1.0000
  C   C10       1.0  0.08093  0.26585  0.08356  1.0000
  C   C11       1.0  0.06872  0.30957  0.34868  1.0000
  C   C12       1.0  0.10905  0.31718  0.11215  1.0000
  H   H7        1.0  0.10844  0.21718  0.14562  1.0000
  C   C13       1.0  0.09786  0.19791  0.21697  1.0000
  H   H8        1.0  0.10076  0.19758  0.25171  1.0000
  C   C14       1.0  0.07523  0.31834  0.12993  1.0000
  N   N2        1.0  0.06075  0.30272  0.38887  1.0000
  C   C15       1.0  0.16634  0.26113  0.20855  1.0000
  H   H9        1.0  0.06872  0.21478  0.19639  1.0000
  H   H10       1.0  0.16075  0.25796  0.17415  1.0000
  H   H11       1.0  0.17401  0.15940  0.23123  1.0000
  H   H12       1.0  0.08447  0.17479  0.20220  1.0000
  H   H13       1.0  0.18302  0.30890  0.20555  1.0000
  C   C16       1.0  0.17940  0.29069  0.22632  1.0000
  C   C17       1.0  0.21097  0.09882  0.19890  1.0000
  H   H14       1.0  0.19871  0.07757  0.20727  1.0000
  H   H15       1.0  0.08039  0.31794  0.45716  1.0000
  H   H16       1.0  0.12727  0.32314  0.43970  1.0000
  C   C18       1.0  0.08687  0.32394  0.42748  1.0000
  H   H17       1.0  0.06036  0.05092  0.45301  1.0000
  C   C19       1.0  0.05735  0.02513  0.04343  1.0000
  C   C20       1.0  0.04555  0.29152  0.30879  1.0000
  C   C21       1.0  0.14581  0.01711  0.13449  1.0000
  H   H18       1.0  0.08739  0.02713  0.17556  1.0000
  C   C22       1.0  0.18707  0.29708  0.27031  1.0000
  H   H19       1.0  0.36126  0.11280  0.02365  1.0000
  H   H20       1.0  0.16720  0.02072  0.17169  1.0000
  C   C23       1.0  0.06900  0.02419  0.13806  1.0000
  H   H21       1.0  0.14281  0.03989  0.11833  1.0000
  C   C24       1.0  0.05080  0.29825  0.26973  1.0000
  C   C25       1.0  0.16853  0.24431  0.27937  1.0000
  H   H22       1.0  0.21953  0.18888  0.24703  1.0000
  H   H23       1.0  0.19666  0.32013  0.28362  1.0000
  C   C26       1.0  0.18173  0.27392  0.29684  1.0000
  C   C27       1.0  0.07802  0.27119  0.40530  1.0000
  H   H24       1.0  0.11752  0.26838  0.41398  1.0000
  H   H25       1.0  0.06487  0.04763  0.12362  1.0000
  H   H26       1.0  0.16463  0.22714  0.30115  1.0000
  H   H27       1.0  0.18738  0.27908  0.33098  1.0000
  H   H28       1.0  0.07375  0.26564  0.43636  1.0000
  Fe  Fe2       1.0  0.01269  0.19385  0.05783  1.0000
  H   H29       1.0  0.05700  0.25342  0.37996  1.0000
  H   H30       1.0  0.06707  0.04814  0.05668  1.0000
  C   C28       1.0  0.07950  0.32289  0.26933  1.0000
  C   C29       1.0  0.09857  0.33419  0.34737  1.0000
  Fe  Fe3       1.0  0.01568  0.32947  0.50434  1.0000
  H   H31       1.0  0.02223  0.27250  0.30720  1.0000
  C   C30       1.0  0.50540  0.10798  0.18883  1.0000
  H   H32       1.0  0.03148  0.01511  0.12820  1.0000
  S   S3        1.0  0.03264  0.27958  0.49805  1.0000
  H   H33       1.0  0.08211  0.32879  0.23853  1.0000
  C   C31       1.0  0.47860  0.01013  0.17119  1.0000
  H   H34       1.0  0.31351  0.32091  0.27272  1.0000
  C   C32       1.0  0.44965  0.31966  0.36294  1.0000
  H   H35       1.0  0.03161  0.28480  0.23916  1.0000
  H   H36       1.0  0.46479  0.01682  0.49425  1.0000
  H   H37       1.0  0.48927  0.13583  0.48600  1.0000
  H   H38       1.0  0.01817  0.29432  0.13828  1.0000
  C   C33       1.0  0.36962  0.13719  0.02007  1.0000
  C   C34       1.0  0.24223  0.15440  0.17915  1.0000
  H   H39       1.0  0.48878  0.19573  0.41776  1.0000
  C   C35       1.0  0.50241  0.24078  0.44776  1.0000
  C   C36       1.0  0.50307  0.01724  0.50151  1.0000
  Fe  Fe4       1.0  0.48222  0.10048  0.28376  1.0000
  H   H40       1.0  0.45639  0.14083  0.19546  1.0000
  C   C37       1.0  0.36679  0.23852  0.29942  1.0000
  S   S4        1.0  0.50412  0.17397  0.07941  1.0000
  H   H41       1.0  0.47154  0.29840  0.37639  1.0000
  H   H42       1.0  0.42358  0.25570  0.36064  1.0000
  H   H43       1.0  0.47347  0.23919  0.45807  1.0000
  Fe  Fe5       1.0  0.39989  0.13123  0.29713  1.0000
  C   C38       1.0  0.50469  0.14755  0.12045  1.0000
  H   H44       1.0  0.30638  0.22667  0.23574  1.0000
  H   H45       1.0  0.25396  0.17611  0.17153  1.0000
  S   S5        1.0  0.47106  0.05302  0.42441  1.0000
  N   N3        1.0  0.39860  0.31660  0.35684  1.0000
  H   H46       1.0  0.28128  0.09789  0.25866  1.0000
  H   H47       1.0  0.45025  0.32542  0.33033  1.0000
  C   C39       1.0  0.40001  0.30803  0.40094  1.0000
  S   S6        1.0  0.41933  0.08166  0.29457  1.0000
  C   C40       1.0  0.39074  0.26186  0.33051  1.0000
  C   C41       1.0  0.32968  0.29833  0.28185  1.0000
  H   H48       1.0  0.40811  0.14120  0.04605  1.0000
  H   H49       1.0  0.45944  0.02976  0.17591  1.0000
  H   H50       1.0  0.27357  0.27977  0.21960  1.0000
  H   H51       1.0  0.42088  0.28652  0.41507  1.0000
  C   C42       1.0  0.37281  0.29249  0.32288  1.0000
  C   C43       1.0  0.30614  0.27479  0.25086  1.0000
  H   H52       1.0  0.38110  0.21524  0.30600  1.0000
  C   C44       1.0  0.47786  0.15482  0.14432  1.0000
  H   H53       1.0  0.36241  0.30482  0.39768  1.0000
  H   H54       1.0  0.41866  0.32580  0.42735  1.0000
  S   S7        1.0  0.32739  0.15653  0.25842  1.0000
  Fe  Fe6       1.0  0.47007  0.08642  0.36992  1.0000
  C   C45       1.0  0.25789  0.11024  0.22802  1.0000
  H   H55       1.0  0.34632  0.15237  0.02953  1.0000
  C   C46       1.0  0.27331  0.13841  0.21867  1.0000
  C   C47       1.0  0.47793  0.13509  0.17805  1.0000
  S   S8        1.0  0.44554  0.13500  0.37284  1.0000
  S   S9        1.0  0.46003  0.14942  0.28225  1.0000
  H   H56       1.0  0.45681  0.17589  0.13669  1.0000
  C   C48       1.0  0.32455  0.24494  0.25972  1.0000
  Fe  Fe7       1.0  0.50706  0.14874  0.35711  1.0000
  C   C49       1.0  0.03594  0.00560  0.45918  1.0000
  Fe  Fe8       1.0  0.11031  0.09650  0.74501  1.0000
  S   S10       1.0  0.13590  0.14340  0.73884  1.0000
  S   S11       1.0  0.10313  0.08094  0.80799  1.0000
  Fe  Fe9       1.0  0.10305  0.07619  0.65217  1.0000
  S   S12       1.0  0.12874  0.12235  0.63972  1.0000
  S   S13       1.0  0.08085  0.03206  0.60900  1.0000
  Fe  Fe10      1.0  0.18461  0.12047  0.71352  1.0000
  Fe  Fe11      1.0  0.07872  0.14218  0.66638  1.0000
  S   S14       1.0  0.16331  0.07297  0.72457  1.0000
  C   C50       1.0  0.03301  0.21086  0.60357  1.0000
  C   C51       1.0  0.05571  0.14790  0.88923  1.0000
  C   C52       1.0  0.06140  0.02336  0.55036  1.0000
  C   C53       1.0  0.08531  0.10723  0.83904  1.0000
  C   C54       1.0  0.07041  0.13712  0.82349  1.0000
  C   C55       1.0  0.05589  0.15735  0.84855  1.0000
  H   H57       1.0  0.06955  0.14462  0.79188  1.0000
  C   C56       1.0  0.16965  0.22071  0.71713  1.0000
  S   S15       1.0  0.04886  0.09654  0.67412  1.0000
  H   H58       1.0  0.13354  0.21006  0.69488  1.0000
  H   H59       1.0  0.16447  0.23513  0.74244  1.0000
  C   C57       1.0  0.05489  0.20319  0.57566  1.0000
  H   H60       1.0  0.19459  0.20143  0.73565  1.0000
  C   C58       1.0  0.23526  0.25405  0.72168  1.0000
  H   H61       1.0  0.22243  0.19902  0.67739  1.0000
  H   H62       1.0  0.07131  0.18079  0.57851  1.0000
  H   H63       1.0  0.27425  0.21128  0.75060  1.0000
  C   C59       1.0  0.27630  0.23604  0.75070  1.0000
  C   C60       1.0  0.08605  0.09794  0.88020  1.0000
  H   H64       1.0  0.09855  0.07516  0.89319  1.0000
  N   N4        1.0  0.18862  0.23908  0.69057  1.0000
  C   C61       1.0  0.07102  0.11808  0.90504  1.0000
  S   S16       1.0  0.25823  0.14449  0.73758  1.0000
  H   H65       1.0  0.34974  0.17480  0.78883  1.0000
  C   C62       1.0  0.19713  0.21825  0.65926  1.0000
  C   C63       1.0  0.31363  0.13142  0.78279  1.0000
  C   C64       1.0  0.31906  0.10150  0.79974  1.0000
  C   C65       1.0  0.35349  0.15168  0.80185  1.0000
  H   H66       1.0  0.28860  0.08571  0.78537  1.0000
  C   C66       1.0  0.14953  0.26114  0.66238  1.0000
  H   H67       1.0  0.16043  0.27505  0.64009  1.0000
  C   C67       1.0  0.24159  0.28647  0.72430  1.0000
  H   H68       1.0  0.11517  0.24920  0.63943  1.0000
  H   H69       1.0  0.21314  0.23084  0.63975  1.0000
  H   H70       1.0  0.16241  0.20731  0.63451  1.0000
  H   H71       1.0  0.13949  0.27675  0.68359  1.0000
  H   H72       1.0  0.21269  0.30218  0.70373  1.0000
  C   C68       1.0  0.36447  0.09175  0.83458  1.0000
  H   H73       1.0  0.07157  0.11062  0.93653  1.0000
  H   H74       1.0  0.24634  0.14110  0.82157  1.0000
  C   C69       1.0  0.25409  0.13797  0.85676  1.0000
  C   C70       1.0  0.30159  0.14231  0.89128  1.0000
  H   H75       1.0  0.32942  0.14898  0.88126  1.0000
  C   C71       1.0  0.31282  0.13822  0.93763  1.0000
  C   C72       1.0  0.21643  0.12952  0.86723  1.0000
  H   H76       1.0  0.17968  0.12621  0.84031  1.0000
  C   C73       1.0  0.28631  0.29972  0.75402  1.0000
  H   H77       1.0  0.34897  0.19196  0.97622  1.0000
  H   H78       1.0  0.36865  0.06840  0.84689  1.0000
  C   C74       1.0  0.27343  0.12955  0.94718  1.0000
  S   S17       1.0  0.03262  0.18536  0.64486  1.0000
  C   C75       1.0  0.07180  0.24622  0.96968  1.0000
  C   C76       1.0  0.22600  0.12529  0.91225  1.0000
  C   C77       1.0  0.05455  0.22442  0.54331  1.0000
  C   C78       1.0  0.32083  0.24956  0.78022  1.0000
  C   C79       1.0  0.32582  0.28134  0.78184  1.0000
  H   H79       1.0  0.19623  0.11866  0.91990  1.0000
  N   N5        1.0  0.03733  0.26904  0.93812  1.0000
  H   H80       1.0  0.35179  0.23535  0.80184  1.0000
  H   H81       1.0  0.08851  0.23159  0.95259  1.0000
  H   H82       1.0  0.09870  0.29699  0.94472  1.0000
  H   H83       1.0  0.04417  0.18034  0.83599  1.0000
  Fe  Fe12      1.0  0.02484  0.16201  0.98061  1.0000
  H   H84       1.0  0.06185  0.32951  0.97098  1.0000
  C   C80       1.0  0.02509  0.01986  0.83088  1.0000
  C   C81       1.0  0.06414  0.28711  0.91815  1.0000
  H   H85       1.0  0.05548  0.03645  0.83940  1.0000
  H   H86       1.0  0.07552  0.27261  0.89669  1.0000
  N   N6        1.0  0.36322  0.14386  0.97356  1.0000
  H   H87       1.0  0.29058  0.32447  0.75550  1.0000
  H   H88       1.0  0.05299  0.23040  0.98324  1.0000
  C   C82       1.0  0.01657  0.33548  0.00338  1.0000
  C   C83       1.0  0.01759  0.28815  0.96332  1.0000
  H   H89       1.0  0.27812  0.12594  0.98124  1.0000
  H   H90       1.0  0.12596  0.01386  0.84352  1.0000
  H   H91       1.0  0.16642  0.01192  0.56601  1.0000
  H   H92       1.0  0.36042  0.29183  0.80462  1.0000
  H   H93       1.0  0.10207  0.25757  0.99911  1.0000
  C   C84       1.0  0.37582  0.17654  0.97213  1.0000
  H   H94       1.0  0.06420  0.01958  0.77315  1.0000
  H   H95       1.0  0.37633  0.18271  0.93964  1.0000
  C   C85       1.0  0.39847  0.14216  0.83735  1.0000
  C   C86       1.0  0.03183  0.02184  0.99632  1.0000
  C   C87       1.0  0.06742  0.04384  0.52054  1.0000
  H   H96       1.0  0.38860  0.09975  0.96329  1.0000
  H   H97       1.0  0.04080  0.30600  0.89628  1.0000
  H   H98       1.0  0.08245  0.06635  0.53243  1.0000
  C   C88       1.0  0.03430  0.31849  0.97789  1.0000
  S   S18       1.0  0.03711  0.17436  0.91945  1.0000
  C   C89       1.0  0.49139  0.32370  0.87461  1.0000
  C   C90       1.0  0.39881  0.12441  0.96590  1.0000
  C   C91       1.0  0.47608  0.27081  0.91502  1.0000
  C   C92       1.0  0.40438  0.11199  0.85337  1.0000
  H   H99       1.0  0.42894  0.15795  0.85139  1.0000
  S   S19       1.0  0.46131  0.09899  0.89649  1.0000
  H   H100      1.0  0.43679  0.12679  0.99379  1.0000
  C   C93       1.0  0.44920  0.32136  0.88089  1.0000
  H   H101      1.0  0.40112  0.13058  0.93428  1.0000
  H   H102      1.0  0.40892  0.29296  0.90598  1.0000
  C   C94       1.0  0.44160  0.29489  0.90116  1.0000
  S   S20       1.0  0.48697  0.17841  0.95755  1.0000
  H   H103      1.0  0.47004  0.25048  0.93057  1.0000
  H   H104      1.0  0.07084  0.21821  0.52133  1.0000
  C   C95       1.0  0.01140  0.23988  0.59928  1.0000
  C   C96       1.0  0.03300  0.25350  0.53918  1.0000
  H   H105      1.0  0.41290  0.18210  0.99961  1.0000
  C   C97       1.0  0.01175  0.26122  0.56751  1.0000
  H   H106      1.0  0.02220  0.04196  0.97465  1.0000
  S   S21       1.0  0.01027  0.11555  0.00133  1.0000
  H   H107      1.0  0.02407  0.01342  0.86310  1.0000
  H   H108      1.0  0.01086  0.23984  0.87877  1.0000
  Fe  Fe13      1.0  0.07921  0.41293  0.20328  1.0000
  S   S22       1.0  0.05437  0.64277  0.41207  1.0000
  C   C98       1.0  0.07054  0.50792  0.04898  1.0000
  C   C99       1.0  0.03677  0.40301  0.28439  1.0000
  C   C100      1.0  0.08950  0.42146  0.36031  1.0000
  C   C101      1.0  0.07906  0.41839  0.31446  1.0000
  C   C102      1.0  0.05809  0.40898  0.37663  1.0000
  S   S23       1.0  0.06443  0.41366  0.12979  1.0000
  S   S24       1.0  0.07118  0.41544  0.43372  1.0000
  S   S25       1.0  0.14735  0.38436  0.22663  1.0000
  Fe  Fe14      1.0  0.11066  0.45639  0.14717  1.0000
  S   S26       1.0  0.18249  0.43142  0.16819  1.0000
  S   S27       1.0  0.09426  0.50207  0.10865  1.0000
  Fe  Fe15      1.0  0.13653  0.38875  0.15510  1.0000
  S   S28       1.0  0.11921  0.45767  0.21888  1.0000
  Fe  Fe16      1.0  0.13136  0.63371  0.46718  1.0000
  H   H109      1.0  0.12201  0.43374  0.38320  1.0000
  H   H110      1.0  0.10358  0.42810  0.30230  1.0000
  Fe  Fe17      1.0  0.18707  0.42910  0.23797  1.0000
  S   S29       1.0  0.19039  0.62434  0.44366  1.0000
  Fe  Fe18      1.0  0.03398  0.39124  0.47076  1.0000
  H   H111      1.0  0.17904  0.51565  0.18957  1.0000
  H   H112      1.0  0.24245  0.57412  0.22167  1.0000
  H   H113      1.0  0.15883  0.55413  0.18600  1.0000
  C   C103      1.0  0.17140  0.53398  0.20907  1.0000
  H   H114      1.0  0.06046  0.46022  0.03073  1.0000
  C   C104      1.0  0.06522  0.53806  0.03197  1.0000
  S   S30       1.0  0.02225  0.39930  0.22642  1.0000
  Fe  Fe19      1.0  0.02909  0.61124  0.45093  1.0000
  S   S31       1.0  0.25028  0.43753  0.30731  1.0000
  H   H115      1.0  0.13976  0.52617  0.21458  1.0000
  C   C105      1.0  0.20894  0.55727  0.32410  1.0000
  S   S32       1.0  0.10576  0.59853  0.50208  1.0000
  H   H116      1.0  0.16900  0.62480  0.34757  1.0000
  C   C106      1.0  0.17804  0.60774  0.32856  1.0000
  S   S33       1.0  0.14897  0.34792  0.11958  1.0000
  S   S34       1.0  0.02085  0.64849  0.49341  1.0000
  H   H117      1.0  0.22339  0.53584  0.34146  1.0000
  C   C107      1.0  0.19697  0.57942  0.34820  1.0000
  H   H118      1.0  0.20245  0.57481  0.38252  1.0000
  H   H119      1.0  0.07570  0.55715  0.05529  1.0000
  H   H120      1.0  0.12529  0.36009  0.30736  1.0000
  C   C108      1.0  0.20211  0.56304  0.27916  1.0000
  C   C109      1.0  0.17095  0.61412  0.28469  1.0000
  N   N7        1.0  0.21496  0.54046  0.25268  1.0000
  C   C110      1.0  0.18280  0.59220  0.26026  1.0000
  H   H121      1.0  0.15623  0.63625  0.26963  1.0000
  H   H122      1.0  0.24089  0.49392  0.25518  1.0000
  C   C111      1.0  0.23263  0.51068  0.27635  1.0000
  H   H123      1.0  0.20446  0.49960  0.28421  1.0000
  H   H124      1.0  0.17675  0.59826  0.22638  1.0000
  H   H125      1.0  0.01713  0.51657  0.41065  1.0000
  H   H126      1.0  0.07281  0.33858  0.14777  1.0000
  H   H127      1.0  0.26580  0.53630  0.22398  1.0000
  C   C112      1.0  0.25433  0.55306  0.24292  1.0000
  H   H128      1.0  0.26714  0.51312  0.30837  1.0000
  H   H129      1.0  0.28733  0.55899  0.27487  1.0000
  C   C113      1.0  0.25530  0.62667  0.47617  1.0000
  H   H130      1.0  0.05299  0.51209  0.38016  1.0000
  C   C114      1.0  0.02272  0.50186  0.38571  1.0000
  H   H131      1.0  0.03664  0.47922  0.40203  1.0000
  C   C115      1.0  0.01603  0.39328  0.34675  1.0000
  H   H132      1.0  0.07400  0.34802  0.41840  1.0000
  C   C116      1.0  0.10389  0.34049  0.30824  1.0000
  H   H133      1.0  0.42457  0.42962  0.41201  1.0000
  H   H134      1.0  0.11694  0.34964  0.37554  1.0000
  C   C117      1.0  0.05669  0.48351  0.01830  1.0000
  H   H135      1.0  0.01486  0.48512  0.30431  1.0000
  H   H136      1.0  0.26830  0.62451  0.41717  1.0000
  H   H137      1.0  0.47896  0.36906  0.01715  1.0000
  C   C118      1.0  0.37514  0.34732  0.34425  1.0000
  C   C119      1.0  0.45229  0.47780  0.05400  1.0000
  H   H138      1.0  0.48444  0.59890  0.30248  1.0000
  C   C120      1.0  0.46157  0.43125  0.01654  1.0000
  C   C121      1.0  0.41438  0.55157  0.43949  1.0000
  S   S35       1.0  0.48508  0.66780  0.48320  1.0000
  C   C122      1.0  0.43447  0.45774  0.01704  1.0000
  C   C123      1.0  0.31229  0.43203  0.31975  1.0000
  C   C124      1.0  0.43589  0.53099  0.38256  1.0000
  C   C125      1.0  0.44533  0.49961  0.44649  1.0000
  H   H139      1.0  0.36206  0.54896  0.49175  1.0000
  H   H140      1.0  0.41589  0.46963  0.50372  1.0000
  C   C126      1.0  0.37713  0.42337  0.29739  1.0000
  H   H141      1.0  0.33690  0.34721  0.34020  1.0000
  C   C127      1.0  0.28519  0.62572  0.45376  1.0000
  N   N8        1.0  0.42436  0.51914  0.50748  1.0000
  C   C128      1.0  0.49751  0.47238  0.09110  1.0000
  H   H142      1.0  0.29985  0.42642  0.25059  1.0000
  C   C129      1.0  0.34780  0.43310  0.36520  1.0000
  C   C130      1.0  0.32699  0.42712  0.28576  1.0000
  H   H143      1.0  0.38842  0.41963  0.27103  1.0000
  C   C131      1.0  0.41251  0.42391  0.34300  1.0000
  H   H144      1.0  0.35982  0.49107  0.47506  1.0000
  S   S36       1.0  0.48736  0.37957  0.46892  1.0000
  H   H145      1.0  0.33665  0.43703  0.39162  1.0000
  C   C132      1.0  0.41894  0.55511  0.39941  1.0000
  H   H146      1.0  0.39536  0.36463  0.37090  1.0000
  H   H147      1.0  0.35920  0.62631  0.46049  1.0000
  H   H148      1.0  0.46254  0.48452  0.39306  1.0000
  H   H149      1.0  0.43160  0.49821  0.05329  1.0000
  H   H150      1.0  0.45724  0.47791  0.46404  1.0000
  S   S37       1.0  0.47490  0.41764  0.35728  1.0000
  C   C133      1.0  0.39637  0.49083  0.50530  1.0000
  S   S38       1.0  0.49523  0.61614  0.39013  1.0000
  H   H151      1.0  0.41010  0.57697  0.38170  1.0000
  C   C134      1.0  0.42736  0.52354  0.46426  1.0000
  C   C135      1.0  0.44894  0.50325  0.40599  1.0000
  H   H152      1.0  0.37497  0.35610  0.31247  1.0000
  H   H153      1.0  0.40140  0.57134  0.45068  1.0000
  H   H154      1.0  0.43969  0.53403  0.35169  1.0000
  C   C136      1.0  0.39765  0.42885  0.37683  1.0000
  C   C137      1.0  0.33684  0.62677  0.47826  1.0000
  H   H155      1.0  0.03077  0.35828  0.01519  1.0000
  H   H156      1.0  0.46990  0.33807  0.38761  1.0000
  C   C138      1.0  0.50750  0.42646  0.05499  1.0000
  Fe  Fe20      1.0  0.04699  0.38405  0.56752  1.0000
  S   S39       1.0  0.09436  0.39507  0.64149  1.0000
  S   S40       1.0  0.05210  0.58524  0.83125  1.0000
  C   C139      1.0  0.08270  0.62013  0.63663  1.0000
  C   C140      1.0  0.19683  0.50114  0.71512  1.0000
  H   H157      1.0  0.09453  0.54150  0.73466  1.0000
  C   C141      1.0  0.16365  0.42389  0.62283  1.0000
  C   C142      1.0  0.15352  0.40942  0.65551  1.0000
  C   C143      1.0  0.19024  0.40777  0.70051  1.0000
  H   H158      1.0  0.13566  0.42524  0.58803  1.0000
  H   H159      1.0  0.18258  0.39668  0.72596  1.0000
  H   H160      1.0  0.22599  0.48894  0.71208  1.0000
  C   C144      1.0  0.17725  0.48707  0.74147  1.0000
  C   C145      1.0  0.14155  0.54399  0.70170  1.0000
  H   H161      1.0  0.14325  0.52827  0.60372  1.0000
  H   H162      1.0  0.12674  0.56605  0.68721  1.0000
  C   C146      1.0  0.24664  0.43557  0.68032  1.0000
  C   C147      1.0  0.20981  0.43730  0.63537  1.0000
  C   C148      1.0  0.23693  0.42042  0.71279  1.0000
  H   H163      1.0  0.21706  0.44898  0.61009  1.0000
  C   C149      1.0  0.14047  0.50155  0.74847  1.0000
  C   C150      1.0  0.21915  0.57632  0.68630  1.0000
  H   H164      1.0  0.27145  0.52488  0.69664  1.0000
  H   H165      1.0  0.23551  0.58859  0.66676  1.0000
  H   H166      1.0  0.17365  0.56200  0.59752  1.0000
  C   C151      1.0  0.15980  0.55052  0.61969  1.0000
  H   H167      1.0  0.25405  0.54110  0.64180  1.0000
  C   C152      1.0  0.17949  0.53016  0.69432  1.0000
  C   C153      1.0  0.12270  0.53000  0.72866  1.0000
  H   H168      1.0  0.12606  0.49085  0.76965  1.0000
  H   H169      1.0  0.12999  0.56555  0.61891  1.0000
  C   C154      1.0  0.04624  0.54379  0.98494  1.0000
  C   C155      1.0  0.23964  0.52867  0.66277  1.0000
  C   C156      1.0  0.09060  0.62588  0.68125  1.0000
  H   H170      1.0  0.24789  0.57399  0.72202  1.0000
  N   N9        1.0  0.19943  0.54591  0.66637  1.0000
  H   H171      1.0  0.19028  0.59197  0.68628  1.0000
  H   H172      1.0  0.19124  0.46492  0.75698  1.0000
  H   H173      1.0  0.22705  0.50589  0.64649  1.0000
  Fe  Fe21      1.0  0.37042  0.44084  0.75826  1.0000
  S   S41       1.0  0.30208  0.45563  0.69569  1.0000
  S   S42       1.0  0.37731  0.43493  0.82824  1.0000
  H   H174      1.0  0.26490  0.41926  0.74762  1.0000
  S   S43       1.0  0.12323  0.63583  0.61732  1.0000
  H   H175      1.0  0.11945  0.64140  0.70236  1.0000
  C   C157      1.0  0.06198  0.61123  0.69909  1.0000
  H   H176      1.0  0.06890  0.61548  0.73377  1.0000
  C   C158      1.0  0.32944  0.62900  0.54807  1.0000
  Fe  Fe22      1.0  0.09888  0.63854  0.54168  1.0000
  C   C159      1.0  0.06368  0.47127  0.63052  1.0000
  H   H177      1.0  0.08229  0.49354  0.63344  1.0000
  H   H178      1.0  0.06850  0.45732  0.60452  1.0000
  H   H179      1.0  0.08454  0.45949  0.66373  1.0000
  H   H180      1.0  0.01528  0.43483  0.65969  1.0000
  H   H181      1.0  0.25540  0.62912  0.54128  1.0000
  C   C160      1.0  0.03207  0.51937  0.95422  1.0000
  H   H182      1.0  0.39459  0.44015  0.92581  1.0000
  H   H183      1.0  0.34635  0.63018  0.58469  1.0000
  C   C161      1.0  0.04544  0.59993  0.60965  1.0000
  H   H184      1.0  0.03906  0.59535  0.57521  1.0000
  H   H185      1.0  0.36661  0.41703  0.95362  1.0000
  H   H186      1.0  0.38297  0.40047  0.91272  1.0000
  C   C162      1.0  0.39492  0.41729  0.94110  1.0000
  C   C163      1.0  0.03749  0.48924  0.97128  1.0000
  C   C164      1.0  0.02595  0.59024  0.67263  1.0000
  S   S44       1.0  0.40894  0.39663  0.75960  1.0000
  Fe  Fe23      1.0  0.02451  0.63237  0.83656  1.0000
  C   C165      1.0  0.39999  0.54495  0.51893  1.0000
  S   S45       1.0  0.40547  0.35117  0.86379  1.0000
  C   C166      1.0  0.01753  0.58485  0.62782  1.0000
  S   S46       1.0  0.08093  0.36048  0.52858  1.0000
  H   H187      1.0  0.03017  0.52752  0.58456  1.0000
  Fe  Fe24      1.0  0.42175  0.39293  0.83197  1.0000
  H   H188      1.0  0.02279  0.51882  0.65179  1.0000
  N   N10       1.0  0.01088  0.47468  0.61884  1.0000
  H   H189      1.0  0.02468  0.48723  0.68682  1.0000
  H   H190      1.0  0.02664  0.47017  0.94790  1.0000
  H   H191      1.0  0.49595  0.53743  0.54967  1.0000
  H   H192      1.0  0.04226  0.56706  0.97243  1.0000
  C   C167      1.0  0.35927  0.62836  0.52565  1.0000
  C   C168      1.0  0.50230  0.50146  0.96356  1.0000
  H   H193      1.0  0.39987  0.46389  0.98896  1.0000
  S   S47       1.0  0.42419  0.62820  0.55857  1.0000
  H   H194      1.0  0.39711  0.54061  0.55090  1.0000
  H   H195      1.0  0.39036  0.48797  0.53597  1.0000
  C   C169      1.0  0.27779  0.62843  0.52354  1.0000
  H   H196      1.0  0.44949  0.45590  0.60945  1.0000
  H   H197      1.0  0.46026  0.44819  0.68796  1.0000
  Fe  Fe25      1.0  0.44881  0.46037  0.85329  1.0000
  C   C170      1.0  0.49437  0.52408  0.98999  1.0000
  H   H198      1.0  0.45476  0.52631  0.67864  1.0000
  S   S48       1.0  0.45941  0.49793  0.90545  1.0000
  C   C171      1.0  0.48483  0.43702  0.67702  1.0000
  C   C172      1.0  0.47901  0.41005  0.95765  1.0000
  H   H199      1.0  0.42105  0.56666  0.52470  1.0000
  H   H200      1.0  0.49564  0.49742  0.53856  1.0000
  C   C173      1.0  0.44220  0.37805  0.99343  1.0000
  C   C174      1.0  0.47889  0.44141  0.63258  1.0000
  Fe  Fe26      1.0  0.48416  0.63513  0.53581  1.0000
  H   H201      1.0  0.42731  0.36159  0.96448  1.0000
  H   H202      1.0  0.49736  0.34391  0.85871  1.0000
  H   H203      1.0  0.47407  0.51042  0.57768  1.0000
  Fe  Fe27      1.0  0.47732  0.42528  0.78765  1.0000
  H   H204      1.0  0.47993  0.43311  0.94364  1.0000
  C   C175      1.0  0.48302  0.53451  0.66992  1.0000
  N   N11       1.0  0.44436  0.40969  0.97782  1.0000
  H   H205      1.0  0.46823  0.39325  0.92948  1.0000
  H   H206      1.0  0.46200  0.53844  0.97476  1.0000
  H   H207      1.0  0.44404  0.57613  0.63858  1.0000
  S   S49       1.0  0.43829  0.47003  0.78216  1.0000
  C   C176      1.0  0.47462  0.51599  0.54498  1.0000
  S   S50       1.0  0.49380  0.41788  0.86095  1.0000
  C   C177      1.0  0.47688  0.56246  0.64744  1.0000
  S   S51       1.0  0.50511  0.43622  0.56365  1.0000
  H   H208      1.0  0.41831  0.37704  0.01082  1.0000
  C   C178      1.0  0.07839  0.89723  0.13734  1.0000
  Fe  Fe28      1.0  0.10027  0.87813  0.04214  1.0000
  H   H209      1.0  0.13283  0.79165  0.43335  1.0000
  H   H210      1.0  0.13393  0.89504  0.20682  1.0000
  C   C179      1.0  0.07705  0.76057  0.43175  1.0000
  H   H211      1.0  0.10208  0.74146  0.44585  1.0000
  S   S52       1.0  0.12116  0.89117  0.11537  1.0000
  H   H212      1.0  0.07748  0.90900  0.23966  1.0000
  C   C180      1.0  0.09437  0.78899  0.42465  1.0000
  S   S53       1.0  0.04992  0.92888  0.33758  1.0000
  C   C181      1.0  0.06363  0.90720  0.20327  1.0000
  C   C182      1.0  0.09554  0.89925  0.18456  1.0000
  C   C183      1.0  0.06203  0.81381  0.40590  1.0000
  S   S54       1.0  0.08432  0.84927  0.39742  1.0000
  H   H213      1.0  0.27678  0.87219  0.05062  1.0000
  Fe  Fe29      1.0  0.05100  0.67973  0.45794  1.0000
  H   H214      1.0  0.06925  0.88130  0.46747  1.0000
  C   C184      1.0  0.02737  0.75703  0.42057  1.0000
  H   H215      1.0  0.10734  0.91010  0.43121  1.0000
  H   H216      1.0  0.08801  0.94446  0.44787  1.0000
  H   H217      1.0  0.06620  0.94893  0.07134  1.0000
  C   C185      1.0  0.11851  0.92744  0.45868  1.0000
  H   H218      1.0  0.15154  0.93893  0.45983  1.0000
  H   H219      1.0  0.15766  0.87313  0.48477  1.0000
  C   C186      1.0  0.05697  0.96998  0.05207  1.0000
  H   H220      1.0  0.01353  0.96300  0.47667  1.0000
  H   H221      1.0  0.12849  0.95794  0.14073  1.0000
  C   C187      1.0  0.02871  0.90287  0.10892  1.0000
  Fe  Fe30      1.0  0.02674  0.88473  0.35766  1.0000
  H   H222      1.0  0.12493  0.97824  0.18597  1.0000
  H   H223      1.0  0.05308  0.91417  0.49071  1.0000
  C   C188      1.0  0.08288  0.89734  0.49686  1.0000
  H   H224      1.0  0.07009  0.96310  0.14178  1.0000
  C   C189      1.0  0.10544  0.97439  0.14869  1.0000
  C   C190      1.0  0.01243  0.81023  0.39475  1.0000
  C   C191      1.0  0.07032  0.99928  0.07285  1.0000
  N   N12       1.0  0.12846  0.91311  0.50281  1.0000
  C   C192      1.0  0.02898  0.98535  0.48871  1.0000
  C   C193      1.0  0.34883  0.86848  0.05303  1.0000
  H   H225      1.0  0.14265  0.97726  0.50264  1.0000
  C   C194      1.0  0.29697  0.86896  0.03110  1.0000
  H   H226      1.0  0.01506  0.90164  0.07253  1.0000
  C   C195      1.0  0.50712  0.97638  0.40358  1.0000
  H   H227      1.0  0.12377  0.68861  0.01372  1.0000
  C   C196      1.0  0.01440  0.91390  0.17480  1.0000
  H   H228      1.0  0.17903  0.77874  0.01757  1.0000
  H   H229      1.0  0.16783  0.00211  0.12321  1.0000
  S   S55       1.0  0.13683  0.83721  0.02803  1.0000
  H   H230      1.0  0.13113  0.74283  0.03776  1.0000
  C   C197      1.0  0.37603  0.86441  0.02838  1.0000
  C   C198      1.0  0.15106  0.73464  0.01968  1.0000
  H   H231      1.0  0.49792  0.69035  0.27804  1.0000
  H   H232      1.0  0.28645  0.77241  0.03731  1.0000
  H   H233      1.0  0.45517  0.94300  0.11412  1.0000
  C   C199      1.0  0.47779  0.94196  0.44351  1.0000
  H   H234      1.0  0.41262  0.98723  0.12544  1.0000
  H   H235      1.0  0.50319  0.92519  0.08107  1.0000
  H   H236      1.0  0.49746  0.89903  0.14272  1.0000
  C   C200      1.0  0.46906  0.96532  0.41172  1.0000
  C   C201      1.0  0.47711  0.96094  0.13675  1.0000
  C   C202      1.0  0.49864  0.87903  0.48230  1.0000
  H   H237      1.0  0.46005  0.88595  0.47207  1.0000
  C   C203      1.0  0.45237  0.98619  0.14284  1.0000
  Fe  Fe31      1.0  0.50158  0.85475  0.03585  1.0000
  S   S56       1.0  0.44151  0.86490  0.05804  1.0000
  H   H238      1.0  0.43295  0.97571  0.39427  1.0000
  H   H239      1.0  0.24270  0.80352  0.01861  1.0000
  H   H240      1.0  0.44730  0.93485  0.44947  1.0000
  H   H241      1.0  0.36803  0.87138  0.08942  1.0000
  S   S57       1.0  0.02266  0.99539  0.40223  1.0000
  H   H242      1.0  0.50082  0.86972  0.45185  1.0000
  H   H243      1.0  0.50619  0.85976  0.50689  1.0000
  N   N13       1.0  0.09713  0.00343  0.12265  1.0000
  S   S58       1.0  0.12950  0.67331  0.51039  1.0000
  H   H244      1.0  0.50040  0.99516  0.37992  1.0000
  H   H245      1.0  0.10092  0.73718  0.87265  1.0000
  Fe  Fe32      1.0  0.06124  0.82633  0.97374  1.0000
  S   S59       1.0  0.07018  0.85272  0.91966  1.0000
  C   C204      1.0  0.07847  0.73279  0.88968  1.0000
  H   H246      1.0  0.08291  0.77927  0.91404  1.0000
  C   C205      1.0  0.06841  0.75656  0.91309  1.0000
  C   C206      1.0  0.29867  0.86148  0.95935  1.0000
  H   H247      1.0  0.27948  0.85893  0.92289  1.0000
  C   C207      1.0  0.05957  0.70329  0.88821  1.0000
  S   S60       1.0  0.20611  0.86609  0.95407  1.0000
  Fe  Fe33      1.0  0.14404  0.86688  0.97547  1.0000
  H   H248      1.0  0.14933  0.90160  0.59151  1.0000
  C   C208      1.0  0.15307  0.92542  0.58467  1.0000
  H   H249      1.0  0.37071  0.85764  0.96179  1.0000
  C   C209      1.0  0.27151  0.86569  0.98398  1.0000
  C   C210      1.0  0.35051  0.86069  0.98133  1.0000
  H   H250      1.0  0.03713  0.97800  0.55657  1.0000
  H   H251      1.0  0.23833  0.74184  0.91653  1.0000
  H   H252      1.0  0.43691  0.79473  0.73104  1.0000
  H   H253      1.0  0.41675  0.81591  0.65429  1.0000
  S   S61       1.0  0.11297  0.90884  0.99330  1.0000
  C   C211      1.0  0.45564  0.88626  0.76782  1.0000
  C   C212      1.0  0.46150  0.85611  0.75660  1.0000
  C   C213      1.0  0.45629  0.81258  0.66343  1.0000
  C   C214      1.0  0.07677  0.97599  0.83806  1.0000
  H   H254      1.0  0.28303  0.77089  0.94156  1.0000
  H   H255      1.0  0.28811  0.80156  0.99955  1.0000
  C   C215      1.0  0.16533  0.94569  0.89681  1.0000
  H   H256      1.0  0.19903  0.93397  0.91920  1.0000
  C   C216      1.0  0.12056  0.93081  0.88262  1.0000
  C   C217      1.0  0.19424  0.78842  0.93320  1.0000
  C   C218      1.0  0.17129  0.97716  0.61382  1.0000
  H   H257      1.0  0.17169  0.80149  0.94609  1.0000
  H   H258      1.0  0.11989  0.90762  0.89424  1.0000
  H   H259      1.0  0.44428  0.89052  0.79412  1.0000
  C   C219      1.0  0.16625  0.94611  0.62059  1.0000
  H   H260      1.0  0.17167  0.93822  0.65367  1.0000
  H   H261      1.0  0.16841  0.77515  0.90323  1.0000
  H   H262      1.0  0.46524  0.82820  0.64161  1.0000
  H   H263      1.0  0.28727  0.73676  0.97355  1.0000
  Fe  Fe34      1.0  0.03881  0.89228  0.94162  1.0000
  H   H264      1.0  0.21319  0.70500  0.94758  1.0000
  C   C220      1.0  0.46652  0.91084  0.74698  1.0000
  C   C221      1.0  0.14382  0.93538  0.54055  1.0000
  H   H265      1.0  0.21267  0.80571  0.92123  1.0000
  C   C222      1.0  0.03966  0.75075  0.93539  1.0000
  H   H266      1.0  0.46340  0.93413  0.75683  1.0000
  N   N14       1.0  0.23021  0.76803  0.96840  1.0000
  C   C223      1.0  0.03460  0.00248  0.76587  1.0000
  C   C224      1.0  0.26102  0.75356  0.94928  1.0000
  H   H267      1.0  0.17427  0.87601  0.54372  1.0000
  C   C225      1.0  0.19771  0.71427  0.96863  1.0000
  C   C226      1.0  0.20324  0.74553  0.98234  1.0000
  C   C227      1.0  0.02059  0.72128  0.93370  1.0000
  C   C228      1.0  0.03044  0.69761  0.91011  1.0000
  C   C229      1.0  0.47892  0.84976  0.72402  1.0000
  C   C230      1.0  0.07678  0.94559  0.85382  1.0000
  H   H268      1.0  0.50208  0.87246  0.67777  1.0000
  C   C231      1.0  0.03129  0.96698  0.00496  1.0000
  H   H269      1.0  0.04352  0.93268  0.84474  1.0000
  C   C232      1.0  0.16659  0.97556  0.88237  1.0000
  S   S62       1.0  0.02430  0.86492  0.99185  1.0000
  C   C233      1.0  0.17864  0.75510  0.00788  1.0000
  N   N15       1.0  0.03126  0.99243  0.80742  1.0000
  C   C234      1.0  0.16991  0.69400  0.98054  1.0000
  N   N16       1.0  0.48748  0.81820  0.71246  1.0000
  H   H270      1.0  0.45379  0.83834  0.77527  1.0000
  C   C235      1.0  0.04192  0.99410  0.53395  1.0000
  H   H271      1.0  0.17968  0.99342  0.64117  1.0000
  C   C236      1.0  0.26316  0.78701  0.00771  1.0000
  H   H272      1.0  0.01632  0.67484  0.90967  1.0000
  H   H273      1.0  0.02131  0.94440  0.98985  1.0000
  H   H274      1.0  0.46115  0.78888  0.65347  1.0000
  H   H275      1.0  0.20275  0.90080  0.51893  1.0000
  H   H276      1.0  0.48311  0.77060  0.72871  1.0000
  C   C237      1.0  0.12308  0.99059  0.85354  1.0000
  C   C238      1.0  0.48281  0.90544  0.71441  1.0000
  H   H277      1.0  0.49212  0.92467  0.69894  1.0000
  C   C239      1.0  0.48875  0.87541  0.70285  1.0000
  C   C240      1.0  0.14670  0.70414  0.00602  1.0000
  C   C241      1.0  0.14999  0.96720  0.53500  1.0000
  H   H278      1.0  0.48844  0.78944  0.57995  1.0000
  C   C242      1.0  0.01875  0.99279  0.97714  1.0000
  H   H279      1.0  0.48904  0.92794  0.52871  1.0000
  S   S63       1.0  0.07397  0.67388  0.85970  1.0000
  C   C243      1.0  0.47618  0.79402  0.73809  1.0000
  H   H280      1.0  0.04201  0.98272  0.74850  1.0000
  H   H281      1.0  0.20148  0.98716  0.89358  1.0000
  C   C244      1.0  0.16384  0.98757  0.57133  1.0000
  H   H282      1.0  0.49948  0.79636  0.77536  1.0000
  S   S64       1.0  0.02595  0.77975  0.96490  1.0000
  H   H283      1.0  0.16459  0.67055  0.96826  1.0000
  H   H284      1.0  0.08811  0.88326  0.52672  1.0000
  C   C245      1.0  0.16756  0.88980  0.51317  1.0000
  H   H285      1.0  0.54444  0.14266  0.44620  1.0000
  C   C246      1.0  0.85033  0.24307  0.03870  1.0000
  H   H286      1.0  0.58667  0.14812  0.32722  1.0000
  C   C247      1.0  0.74814  0.13460  0.02368  1.0000
  H   H287      1.0  0.60866  0.24516  0.41430  1.0000
  H   H288      1.0  0.55398  0.10235  0.45885  1.0000
  H   H289      1.0  0.54975  0.02775  0.21544  1.0000
  C   C248      1.0  0.67055  0.15713  0.19142  1.0000
  S   S65       1.0  0.53437  0.10069  0.35844  1.0000
  C   C249      1.0  0.56539  0.19208  0.26795  1.0000
  Fe  Fe35      1.0  0.53662  0.16610  0.03031  1.0000
  H   H290      1.0  0.87314  0.13912  0.06518  1.0000
  H   H291      1.0  0.57818  0.13040  0.27518  1.0000
  S   S66       1.0  0.50804  0.08345  0.23283  1.0000
  H   H292      1.0  0.90880  0.21943  0.03231  1.0000
  H   H293      1.0  0.80736  0.14436  0.08953  1.0000
  H   H294      1.0  0.53585  0.17945  0.23959  1.0000
  H   H295      1.0  0.65753  0.21444  0.31444  1.0000
  H   H296      1.0  0.57858  0.04642  0.46070  1.0000
  H   H297      1.0  0.63766  0.13152  0.32280  1.0000
  H   H298      1.0  0.59210  0.28921  0.45317  1.0000
  C   C250      1.0  0.62707  0.17363  0.17758  1.0000
  C   C251      1.0  0.69516  0.14663  0.23595  1.0000
  C   C252      1.0  0.57863  0.24400  0.42320  1.0000
  C   C253      1.0  0.56926  0.26899  0.44511  1.0000
  H   H299      1.0  0.69658  0.14379  0.30084  1.0000
  C   C254      1.0  0.83519  0.13597  0.04085  1.0000
  H   H300      1.0  0.63429  0.19788  0.35088  1.0000
  H   H301      1.0  0.94009  0.28292  0.01301  1.0000
  C   C255      1.0  0.56695  0.03417  0.48268  1.0000
  H   H302      1.0  0.60776  0.18152  0.14273  1.0000
  C   C256      1.0  0.56797  0.12567  0.47198  1.0000
  C   C257      1.0  0.53174  0.10042  0.16449  1.0000
  C   C258      1.0  0.53154  0.26722  0.45801  1.0000
  H   H303      1.0  0.68503  0.15235  0.16745  1.0000
  H   H304      1.0  0.55230  0.11425  0.11228  1.0000
  S   S67       1.0  0.52042  0.29699  0.48817  1.0000
  C   C259      1.0  0.79772  0.13900  0.05454  1.0000
  S   S68       1.0  0.70312  0.13564  0.04410  1.0000
  H   H305      1.0  0.55304  0.07947  0.17242  1.0000
  C   C260      1.0  0.79955  0.24589  0.02254  1.0000
  S   S69       1.0  0.99765  0.14965  0.08398  1.0000
  S   S70       1.0  0.60079  0.19169  0.03092  1.0000
  N   N17       1.0  0.61233  0.17466  0.28692  1.0000
  C   C261      1.0  0.64851  0.19238  0.32592  1.0000
  H   H306      1.0  0.56953  0.21517  0.25576  1.0000
  C   C262      1.0  0.86947  0.22189  0.01934  1.0000
  C   C263      1.0  0.63174  0.16907  0.25368  1.0000
  C   C264      1.0  0.60762  0.17951  0.20797  1.0000
  C   C265      1.0  0.67623  0.15252  0.26673  1.0000
  C   C266      1.0  0.54967  0.21749  0.41324  1.0000
  H   H307      1.0  0.72898  0.13372  0.24659  1.0000
  H   H308      1.0  0.57327  0.19189  0.19442  1.0000
  C   C267      1.0  0.53134  0.12009  0.13033  1.0000
  H   H309      1.0  0.55184  0.19583  0.29383  1.0000
  H   H310      1.0  0.68340  0.17963  0.34507  1.0000
  H   H311      1.0  0.98552  0.28747  0.35085  1.0000
  C   C268      1.0  0.52964  0.00894  0.19349  1.0000
  C   C269      1.0  0.60348  0.14492  0.30377  1.0000
  S   S71       1.0  0.56354  0.18612  0.38743  1.0000
  H   H312      1.0  0.87518  0.25715  0.06662  1.0000
  H   H313      1.0  0.71227  0.20101  0.02221  1.0000
  H   H314      1.0  0.96940  0.33591  0.03597  1.0000
  S   S72       1.0  0.56118  0.12118  0.01464  1.0000
  C   C270      1.0  0.51724  0.03382  0.47267  1.0000
  H   H315      1.0  0.60507  0.12711  0.47362  1.0000
  H   H316      1.0  0.00042  0.30103  0.40622  1.0000
  H   H317      1.0  0.99276  0.32786  0.36215  1.0000
  H   H318      1.0  0.78643  0.26260  0.03871  1.0000
  H   H319      1.0  0.71743  0.24099  0.03633  1.0000
  C   C271      1.0  0.98203  0.32289  0.01523  1.0000
  H   H320      1.0  0.51138  0.09755  0.50136  1.0000
  C   C272      1.0  0.51111  0.21609  0.42505  1.0000
  S   S73       1.0  0.00767  0.23614  0.09491  1.0000
  C   C273      1.0  0.00763  0.30485  0.37634  1.0000
  C   C274      1.0  0.56128  0.21432  0.55218  1.0000
  Fe  Fe36      1.0  0.55336  0.19973  0.95672  1.0000
  S   S74       1.0  0.57711  0.15676  0.93418  1.0000
  C   C275      1.0  0.77397  0.12353  0.96523  1.0000
  C   C276      1.0  0.68318  0.20943  0.93268  1.0000
  Fe  Fe37      1.0  0.51449  0.13465  0.94172  1.0000
  H   H321      1.0  0.66516  0.21878  0.53920  1.0000
  S   S75       1.0  0.96054  0.18413  0.98537  1.0000
  H   H322      1.0  0.62288  0.05816  0.98159  1.0000
  H   H323      1.0  0.76531  0.19057  0.94037  1.0000
  H   H324      1.0  0.64693  0.16465  0.52103  1.0000
  C   C277      1.0  0.52586  0.29970  0.88854  1.0000
  C   C278      1.0  0.78721  0.20602  0.96742  1.0000
  H   H325      1.0  0.96783  0.26854  0.87803  1.0000
  H   H326      1.0  0.76463  0.11705  0.93068  1.0000
  H   H327      1.0  0.76117  0.01555  0.90343  1.0000
  N   N18       1.0  0.59379  0.04937  0.90973  1.0000
  H   H328      1.0  0.64320  0.11630  0.55416  1.0000
  H   H329      1.0  0.98025  0.23433  0.91223  1.0000
  H   H330      1.0  0.70796  0.26836  0.92631  1.0000
  H   H331      1.0  0.85307  0.18690  0.96891  1.0000
  H   H332      1.0  0.53741  0.22892  0.56021  1.0000
  N   N19       1.0  0.71275  0.23066  0.97024  1.0000
  Fe  Fe38      1.0  0.62161  0.14765  0.00849  1.0000
  C   C279      1.0  0.63322  0.20871  0.54025  1.0000
  C   C280      1.0  0.64030  0.03950  0.90975  1.0000
  H   H333      1.0  0.59826  0.08712  0.54350  1.0000
  C   C281      1.0  0.76635  0.22732  0.98651  1.0000
  H   H334      1.0  0.58376  0.08690  0.86399  1.0000
  C   C282      1.0  0.68280  0.01013  0.87429  1.0000
  S   S76       1.0  0.56282  0.24381  0.92573  1.0000
  H   H335      1.0  0.69142  0.18506  0.94352  1.0000
  H   H336      1.0  0.53148  0.02912  0.91413  1.0000
  C   C283      1.0  0.63964  0.01885  0.87619  1.0000
  H   H337      1.0  0.63995  0.01817  0.52783  1.0000
  C   C284      1.0  0.73636  0.12745  0.97861  1.0000
  C   C285      1.0  0.60602  0.11197  0.55130  1.0000
  C   C286      1.0  0.51950  0.12197  0.51210  1.0000
  C   C287      1.0  0.83800  0.20360  0.98362  1.0000
  C   C288      1.0  0.57951  0.16427  0.52887  1.0000
  H   H338      1.0  0.71395  0.27974  0.98090  1.0000
  C   C289      1.0  0.62213  0.17779  0.52948  1.0000
  H   H339      1.0  0.69850  0.12387  0.95446  1.0000
  C   C290      1.0  0.98325  0.27581  0.97699  1.0000
  C   C291      1.0  0.60280  0.22695  0.55149  1.0000
  H   H340      1.0  0.60789  0.11614  0.58532  1.0000
  H   H341      1.0  0.51778  0.12363  0.54499  1.0000
  C   C292      1.0  0.69743  0.26241  0.95357  1.0000
  H   H342      1.0  0.64309  0.21259  0.92124  1.0000
  C   C293      1.0  0.99722  0.25248  0.90025  1.0000
  H   H343      1.0  0.56521  0.07630  0.94747  1.0000
  C   C294      1.0  0.56376  0.06646  0.86726  1.0000
  H   H344      1.0  0.68937  0.21341  0.90235  1.0000
  C   C295      1.0  0.72782  0.02187  0.90544  1.0000
  H   H345      1.0  0.61078  0.25113  0.55874  1.0000
  C   C296      1.0  0.96539  0.29312  0.00206  1.0000
  H   H346      1.0  0.97100  0.25237  0.96974  1.0000
  C   C297      1.0  0.60171  0.01795  0.52073  1.0000
  H   H347      1.0  0.52861  0.07476  0.86609  1.0000
  C   C298      1.0  0.54952  0.18347  0.54105  1.0000
  S   S77       1.0  0.86984  0.12066  0.97837  1.0000
  C   C299      1.0  0.82365  0.12762  0.99629  1.0000
  C   C300      1.0  0.51833  0.27320  0.90871  1.0000
  H   H348      1.0  0.65691  0.26547  0.93930  1.0000
  H   H349      1.0  0.55833  0.30164  0.88336  1.0000
  H   H350      1.0  0.66000  0.22614  0.99657  1.0000
  C   C301      1.0  0.68699  0.05068  0.94146  1.0000
  H   H351      1.0  0.58801  0.00787  0.94233  1.0000
  H   H352      1.0  0.99467  0.28339  0.56440  1.0000
  C   C302      1.0  0.70025  0.22446  0.00802  1.0000
  C   C303      1.0  0.60093  0.06966  0.94836  1.0000
  H   H353      1.0  0.69154  0.06634  0.96842  1.0000
  H   H354      1.0  0.61942  0.09147  0.94759  1.0000
  H   H355      1.0  0.55367  0.05213  0.83653  1.0000
  C   C304      1.0  0.56567  0.02223  0.91204  1.0000
  H   H356      1.0  0.99432  0.24591  0.62071  1.0000
  C   C305      1.0  0.72990  0.04206  0.93895  1.0000
  N   N20       1.0  0.56809  0.13160  0.51632  1.0000
  H   H357      1.0  0.76500  0.05141  0.96296  1.0000
  H   H358      1.0  0.60564  0.00950  0.85063  1.0000
  H   H359      1.0  0.99082  0.03269  0.80936  1.0000
  H   H360      1.0  0.51643  0.17541  0.54166  1.0000
  H   H361      1.0  0.00024  0.01391  0.74118  1.0000
  H   H362      1.0  0.55361  0.00737  0.88161  1.0000
  Fe  Fe39      1.0  0.94884  0.13861  0.01087  1.0000
  H   H363      1.0  0.58840  0.46993  0.32523  1.0000
  H   H364      1.0  0.67147  0.54648  0.04980  1.0000
  S   S78       1.0  0.57926  0.36517  0.44465  1.0000
  H   H365      1.0  0.67381  0.47271  0.49049  1.0000
  H   H366      1.0  0.68484  0.58173  0.08156  1.0000
  H   H367      1.0  0.59638  0.59502  0.44044  1.0000
  C   C306      1.0  0.53658  0.59868  0.37324  1.0000
  Fe  Fe40      1.0  0.54837  0.34518  0.48927  1.0000
  C   C307      1.0  0.61175  0.61530  0.01864  1.0000
  S   S79       1.0  0.97090  0.35855  0.44301  1.0000
  Fe  Fe41      1.0  0.60101  0.61762  0.18343  1.0000
  Fe  Fe42      1.0  0.70701  0.59650  0.22272  1.0000
  S   S80       1.0  0.68787  0.54849  0.23256  1.0000
  S   S81       1.0  0.78278  0.61377  0.23826  1.0000
  Fe  Fe43      1.0  0.62380  0.55314  0.16289  1.0000
  S   S82       1.0  0.61219  0.51309  0.11438  1.0000
  Fe  Fe44      1.0  0.63868  0.57046  0.25865  1.0000
  S   S83       1.0  0.64283  0.55540  0.32609  1.0000
  S   S84       1.0  0.64698  0.59989  0.15121  1.0000
  S   S85       1.0  0.66276  0.61830  0.25377  1.0000
  S   S86       1.0  0.96599  0.57755  0.42294  1.0000
  C   C308      1.0  0.90499  0.44777  0.38484  1.0000
  C   C309      1.0  0.83292  0.60342  0.29001  1.0000
  C   C310      1.0  0.87973  0.61444  0.29958  1.0000
  C   C311      1.0  0.92024  0.60774  0.34117  1.0000
  C   C312      1.0  0.91455  0.58909  0.37294  1.0000
  C   C313      1.0  0.86787  0.57772  0.36325  1.0000
  C   C314      1.0  0.82700  0.58510  0.32203  1.0000
  H   H368      1.0  0.88463  0.62841  0.27481  1.0000
  H   H369      1.0  0.95616  0.61622  0.34801  1.0000
  H   H370      1.0  0.86329  0.56309  0.38753  1.0000
  H   H371      1.0  0.79103  0.57649  0.31490  1.0000
  C   C315      1.0  0.60180  0.57254  0.34359  1.0000
  C   C316      1.0  0.61658  0.57735  0.38996  1.0000
  C   C317      1.0  0.58436  0.59091  0.40471  1.0000
  H   H372      1.0  0.65326  0.57096  0.41454  1.0000
  C   C318      1.0  0.58167  0.48318  0.35073  1.0000
  Fe  Fe45      1.0  0.52152  0.40162  0.42919  1.0000
  S   S87       1.0  0.56933  0.43240  0.48614  1.0000
  C   C319      1.0  0.85427  0.49158  0.34815  1.0000
  H   H373      1.0  0.54611  0.51994  0.38788  1.0000
  H   H374      1.0  0.93347  0.52961  0.28705  1.0000
  C   C320      1.0  0.60763  0.65342  0.32984  1.0000
  C   C321      1.0  0.56956  0.50961  0.05622  1.0000
  H   H375      1.0  0.95078  0.47509  0.27941  1.0000
  C   C322      1.0  0.65535  0.56851  0.05391  1.0000
  H   H376      1.0  0.53075  0.40731  0.05660  1.0000
  C   C323      1.0  0.89137  0.50350  0.33886  1.0000
  H   H377      1.0  0.54382  0.47733  0.34515  1.0000
  H   H378      1.0  0.75839  0.38989  0.41269  1.0000
  S   S88       1.0  0.57283  0.57108  0.19019  1.0000
  H   H379      1.0  0.64312  0.43470  0.43878  1.0000
  C   C324      1.0  0.55415  0.58051  0.31211  1.0000
  H   H380      1.0  0.99103  0.38420  0.35877  1.0000
  C   C325      1.0  0.57749  0.48700  0.02983  1.0000
  H   H381      1.0  0.67226  0.50829  0.39919  1.0000
  C   C326      1.0  0.61575  0.44251  0.40466  1.0000
  C   C327      1.0  0.98456  0.47765  0.31209  1.0000
  H   H382      1.0  0.97253  0.37855  0.27756  1.0000
  C   C328      1.0  0.94226  0.45946  0.37575  1.0000
  H   H383      1.0  0.96110  0.54747  0.34237  1.0000
  C   C329      1.0  0.61105  0.49313  0.43294  1.0000
  C   C330      1.0  0.82056  0.39652  0.47785  1.0000
  C   C331      1.0  0.55418  0.64113  0.04095  1.0000
  H   H384      1.0  0.70310  0.60426  0.02174  1.0000
  C   C332      1.0  0.56669  0.53067  0.45643  1.0000
  H   H385      1.0  0.69639  0.39250  0.44207  1.0000
  H   H386      1.0  0.83222  0.45434  0.37800  1.0000
  H   H387      1.0  0.99455  0.45446  0.32707  1.0000
  N   N21       1.0  0.61857  0.47593  0.39783  1.0000
  H   H388      1.0  0.88743  0.47239  0.46815  1.0000
  H   H389      1.0  0.62245  0.42880  0.37953  1.0000
  N   N22       1.0  0.97667  0.49932  0.34279  1.0000
  H   H390      1.0  0.98813  0.54776  0.50758  1.0000
  H   H391      1.0  0.51209  0.48860  0.11890  1.0000
  H   H392      1.0  0.51626  0.65567  0.26017  1.0000
  H   H393      1.0  0.85628  0.66474  0.33946  1.0000
  H   H394      1.0  0.58292  0.50782  0.34248  1.0000
  H   H395      1.0  0.69793  0.47480  0.43397  1.0000
  C   C333      1.0  0.96646  0.52993  0.32061  1.0000
  C   C334      1.0  0.93525  0.51141  0.48294  1.0000
  H   H396      1.0  0.81992  0.50397  0.33723  1.0000
  Fe  Fe46      1.0  0.94404  0.38279  0.48834  1.0000
  Fe  Fe47      1.0  0.62530  0.39433  0.50532  1.0000
  S   S89       1.0  0.86310  0.39695  0.45457  1.0000
  H   H397      1.0  0.91009  0.42607  0.40257  1.0000
  C   C335      1.0  0.86103  0.46374  0.37100  1.0000
  H   H398      1.0  0.67371  0.47216  0.37390  1.0000
  H   H399      1.0  0.56178  0.59279  0.04028  1.0000
  C   C336      1.0  0.57225  0.51463  0.42231  1.0000
  C   C337      1.0  0.59920  0.52583  0.50181  1.0000
  C   C338      1.0  0.77015  0.39362  0.44848  1.0000
  C   C339      1.0  0.52786  0.52825  0.03601  1.0000
  C   C340      1.0  0.73481  0.39530  0.46502  1.0000
  H   H400      1.0  0.52091  0.54545  0.05603  1.0000
  H   H401      1.0  0.54225  0.57651  0.27634  1.0000
  H   H402      1.0  0.60225  0.63731  0.30181  1.0000
  C   C341      1.0  0.66775  0.48309  0.40152  1.0000
  H   H403      1.0  0.90728  0.59228  0.47868  1.0000
  H   H404      1.0  0.57884  0.43611  0.40091  1.0000
  S   S90       1.0  0.55068  0.65865  0.15850  1.0000
  H   H405      1.0  0.83977  0.55929  0.47516  1.0000
  H   H406      1.0  0.97544  0.44599  0.38682  1.0000
  C   C342      1.0  0.52145  0.59310  0.32700  1.0000
  H   H407      1.0  0.88353  0.52506  0.32084  1.0000
  H   H408      1.0  0.91751  0.52040  0.44863  1.0000
  H   H409      1.0  0.53739  0.54740  0.44753  1.0000
  C   C343      1.0  0.93673  0.48775  0.35254  1.0000
  H   H410      1.0  0.62828  0.56213  0.06624  1.0000
  H   H411      1.0  0.60963  0.47245  0.04517  1.0000
  H   H412      1.0  0.56112  0.44343  0.11979  1.0000
  Fe  Fe48      1.0  0.52049  0.62866  0.46392  1.0000
  C   C344      1.0  0.64365  0.48887  0.47964  1.0000
  H   H413      1.0  0.52688  0.63987  0.05353  1.0000
  C   C345      1.0  0.91843  0.48450  0.49395  1.0000
  H   H414      1.0  0.60050  0.64009  0.35488  1.0000
  S   S91       1.0  0.59715  0.64263  0.51102  1.0000
  C   C346      1.0  0.52512  0.44683  0.09153  1.0000
  H   H415      1.0  0.51299  0.65662  0.31270  1.0000
  C   C347      1.0  0.57476  0.61433  0.03360  1.0000
  C   C348      1.0  0.89537  0.59362  0.50510  1.0000
  C   C349      1.0  0.00534  0.39042  0.30072  1.0000
  C   C350      1.0  0.85746  0.57503  0.50327  1.0000
  H   H416      1.0  0.55838  0.66691  0.38637  1.0000
  H   H417      1.0  0.99745  0.53809  0.31436  1.0000
  C   C351      1.0  0.74939  0.40108  0.51100  1.0000
  H   H418      1.0  0.64701  0.66004  0.34676  1.0000
  H   H419      1.0  0.64476  0.66866  0.15902  1.0000
  C   C352      1.0  0.56921  0.66964  0.03303  1.0000
  S   S92       1.0  0.70635  0.40717  0.53300  1.0000
  H   H420      1.0  0.81153  0.40844  0.57596  1.0000
  H   H421      1.0  0.60896  0.51848  0.61772  1.0000
  H   H422      1.0  0.58247  0.56484  0.63799  1.0000
  S   S93       1.0  0.99328  0.56873  0.69537  1.0000
  H   H423      1.0  0.92376  0.63129  0.60292  1.0000
  H   H424      1.0  0.57639  0.48449  0.61924  1.0000
  H   H425      1.0  0.51711  0.40408  0.98241  1.0000
  N   N23       1.0  0.63286  0.58646  0.01115  1.0000
  C   C353      1.0  0.59345  0.56792  0.97591  1.0000
  H   H426      1.0  0.66281  0.50117  0.54882  1.0000
  H   H427      1.0  0.91607  0.61352  0.66519  1.0000
  Fe  Fe49      1.0  0.91727  0.61366  0.78727  1.0000
  S   S94       1.0  0.93597  0.56524  0.77865  1.0000
  S   S95       1.0  0.84324  0.63745  0.75639  1.0000
  C   C354      1.0  0.55574  0.55570  0.64774  1.0000
  H   H428      1.0  0.75116  0.66334  0.69461  1.0000
  S   S96       1.0  0.51450  0.59529  0.51302  1.0000
  S   S97       1.0  0.96911  0.63384  0.76355  1.0000
  S   S98       1.0  0.97106  0.61586  0.86148  1.0000
  Fe  Fe50      1.0  0.58912  0.61237  0.56201  1.0000
  S   S99       1.0  0.64926  0.57856  0.60364  1.0000
  H   H429      1.0  0.65606  0.54779  0.68680  1.0000
  C   C355      1.0  0.79020  0.62035  0.71376  1.0000
  C   C356      1.0  0.78749  0.58882  0.70516  1.0000
  C   C357      1.0  0.74412  0.57610  0.67123  1.0000
  C   C358      1.0  0.70351  0.59488  0.64559  1.0000
  C   C359      1.0  0.70651  0.62639  0.65391  1.0000
  C   C360      1.0  0.74955  0.63900  0.68806  1.0000
  H   H430      1.0  0.81841  0.57421  0.72525  1.0000
  H   H431      1.0  0.74200  0.55167  0.66505  1.0000
  H   H432      1.0  0.67548  0.64108  0.63435  1.0000
  C   C361      1.0  0.51326  0.57301  0.63650  1.0000
  C   C362      1.0  0.83525  0.40132  0.52405  1.0000
  H   H433      1.0  0.87279  0.64379  0.63528  1.0000
  H   H434      1.0  0.64218  0.48487  0.64616  1.0000
  S   S100      1.0  0.53719  0.41738  0.76574  1.0000
  C   C363      1.0  0.52380  0.41924  0.70781  1.0000
  S   S101      1.0  0.55909  0.64948  0.58956  1.0000
  C   C364      1.0  0.54433  0.48308  0.98370  1.0000
  H   H435      1.0  0.61319  0.48783  0.74289  1.0000
  C   C365      1.0  0.85302  0.56719  0.63130  1.0000
  C   C366      1.0  0.98382  0.48713  0.57227  1.0000
  C   C367      1.0  0.60909  0.49893  0.63946  1.0000
  C   C368      1.0  0.94193  0.47254  0.53795  1.0000
  H   H436      1.0  0.79038  0.63008  0.57279  1.0000
  C   C369      1.0  0.54871  0.40857  0.64830  1.0000
  C   C370      1.0  0.55545  0.40485  0.69316  1.0000
  H   H437      1.0  0.57369  0.39769  0.63761  1.0000
  H   H438      1.0  0.92716  0.45140  0.54373  1.0000
  C   C371      1.0  0.56359  0.52731  0.67106  1.0000
  H   H439      1.0  0.95436  0.44524  0.61983  1.0000
  C   C372      1.0  0.79981  0.40404  0.54033  1.0000
  H   H440      1.0  0.58355  0.46523  0.69202  1.0000
  H   H441      1.0  0.58571  0.39110  0.71682  1.0000
  H   H442      1.0  0.78272  0.61012  0.61675  1.0000
  H   H443      1.0  0.94799  0.62817  0.54257  1.0000
  C   C373      1.0  0.90355  0.61555  0.57562  1.0000
  Fe  Fe51      1.0  0.99468  0.56843  0.85147  1.0000
  C   C374      1.0  0.91815  0.61392  0.54105  1.0000
  H   H444      1.0  0.68641  0.56911  0.99085  1.0000
  H   H445      1.0  0.77115  0.59073  0.56551  1.0000
  S   S102      1.0  0.98409  0.35089  0.54748  1.0000
  S   S103      1.0  0.59845  0.37149  0.55178  1.0000
  C   C375      1.0  0.86495  0.59690  0.57483  1.0000
  H   H446      1.0  0.65213  0.53882  0.73818  1.0000
  H   H447      1.0  0.55153  0.46599  0.96370  1.0000
  N   N24       1.0  0.60889  0.50935  0.68215  1.0000
  C   C376      1.0  0.61359  0.48177  0.71028  1.0000
  C   C377      1.0  0.87647  0.61979  0.64785  1.0000
  C   C378      1.0  0.65287  0.52864  0.70757  1.0000
  H   H448      1.0  0.68752  0.51524  0.71892  1.0000
  C   C379      1.0  0.52570  0.51712  0.68176  1.0000
  C   C380      1.0  0.79593  0.60760  0.59045  1.0000
  C   C381      1.0  0.62678  0.64487  0.01152  1.0000
  H   H449      1.0  0.87379  0.40367  0.54707  1.0000
  Fe  Fe52      1.0  0.99187  0.58567  0.75982  1.0000
  N   N25       1.0  0.84820  0.59803  0.61061  1.0000
  H   H450      1.0  0.64826  0.46893  0.71883  1.0000
  H   H451      1.0  0.82821  0.55005  0.60704  1.0000
  H   H452      1.0  0.84409  0.56757  0.66051  1.0000
  H   H453      1.0  0.56446  0.56161  0.98584  1.0000
  C   C382      1.0  0.84223  0.57667  0.53742  1.0000
  H   H454      1.0  0.89124  0.55838  0.64427  1.0000
  H   H455      1.0  0.59482  0.53847  0.52799  1.0000
  H   H456      1.0  0.52809  0.49584  0.69945  1.0000
  H   H457      1.0  0.99567  0.42690  0.60131  1.0000
  H   H458      1.0  0.86360  0.61976  0.67459  1.0000
  H   H459      1.0  0.65669  0.60376  0.96304  1.0000
  H   H460      1.0  0.96694  0.50039  0.64293  1.0000
  Fe  Fe53      1.0  0.53928  0.40748  0.52778  1.0000
  C   C383      1.0  0.63760  0.50497  0.51342  1.0000
  C   C384      1.0  0.67142  0.59130  0.99601  1.0000
  H   H461      1.0  0.57512  0.58068  0.94326  1.0000
  H   H462      1.0  0.65491  0.64810  0.00062  1.0000
  H   H463      1.0  0.81251  0.56191  0.53438  1.0000
  H   H464      1.0  0.60763  0.54586  0.96936  1.0000
  C   C385      1.0  0.51087  0.42731  0.61810  1.0000
  C   C386      1.0  0.97528  0.52670  0.51612  1.0000
  S   S104      1.0  0.00694  0.52498  0.89439  1.0000
  C   C387      1.0  0.99295  0.44418  0.62492  1.0000
  H   H465      1.0  0.98913  0.56901  0.60703  1.0000
  S   S105      1.0  0.00480  0.41780  0.51189  1.0000
  C   C388      1.0  0.00613  0.49615  0.65143  1.0000
  C   C389      1.0  0.99924  0.51485  0.56011  1.0000
  H   H466      1.0  0.50866  0.59490  0.61939  1.0000
  C   C390      1.0  0.99708  0.91157  0.12758  1.0000
  S   S106      1.0  0.96673  0.87603  0.28819  1.0000
  H   H467      1.0  0.72587  0.75011  0.19225  1.0000
  S   S107      1.0  0.97748  0.90687  0.38331  1.0000
  H   H468      1.0  0.93270  0.72627  0.32918  1.0000
  Fe  Fe54      1.0  0.91851  0.90230  0.31095  1.0000
  S   S108      1.0  0.84326  0.88117  0.28970  1.0000
  S   S109      1.0  0.93422  0.94811  0.28946  1.0000
  Fe  Fe55      1.0  0.60565  0.87843  0.06245  1.0000
  H   H469      1.0  0.59227  0.88137  0.49536  1.0000
  S   S110      1.0  0.66316  0.91437  0.09994  1.0000
  C   C391      1.0  0.57956  0.70809  0.42440  1.0000
  C   C392      1.0  0.60955  0.73834  0.10706  1.0000
  S   S111      1.0  0.63202  0.76732  0.08430  1.0000
  S   S112      1.0  0.62177  0.84189  0.02376  1.0000
  C   C393      1.0  0.57432  0.68966  0.14032  1.0000
  C   C394      1.0  0.62178  0.68847  0.14401  1.0000
  C   C395      1.0  0.63923  0.71268  0.12724  1.0000
  C   C396      1.0  0.60154  0.73110  0.35659  1.0000
  C   C397      1.0  0.52520  0.92886  0.46815  1.0000
  H   H470      1.0  0.67550  0.71122  0.12915  1.0000
  C   C398      1.0  0.60893  0.74913  0.39424  1.0000
  C   C399      1.0  0.79306  0.89122  0.23747  1.0000
  C   C400      1.0  0.75349  0.87087  0.21750  1.0000
  C   C401      1.0  0.71398  0.87739  0.17497  1.0000
  C   C402      1.0  0.71301  0.90486  0.15267  1.0000
  C   C403      1.0  0.75205  0.92555  0.17306  1.0000
  C   C404      1.0  0.79210  0.91869  0.21516  1.0000
  H   H471      1.0  0.75352  0.84993  0.23505  1.0000
  H   H472      1.0  0.68407  0.86130  0.15978  1.0000
  H   H473      1.0  0.75146  0.94696  0.15624  1.0000
  H   H474      1.0  0.82211  0.93472  0.23042  1.0000
  H   H475      1.0  0.95920  0.91701  0.10525  1.0000
  S   S113      1.0  0.57535  0.84602  0.09596  1.0000
  N   N26       1.0  0.53369  0.90469  0.50250  1.0000
  C   C405      1.0  0.83365  0.73604  0.28833  1.0000
  H   H476      1.0  0.83858  0.72771  0.37082  1.0000
  C   C406      1.0  0.85321  0.76608  0.29289  1.0000
  H   H477      1.0  0.62538  0.70272  0.29226  1.0000
  C   C407      1.0  0.82726  0.78956  0.26264  1.0000
  C   C408      1.0  0.78149  0.78373  0.22663  1.0000
  H   H478      1.0  0.62467  0.95258  0.16810  1.0000
  H   H479      1.0  0.62332  0.77217  0.39731  1.0000
  H   H480      1.0  0.57098  0.69933  0.45081  1.0000
  H   H481      1.0  0.98733  0.82929  0.38068  1.0000
  H   H482      1.0  0.61076  0.74145  0.33171  1.0000
  C   C409      1.0  0.54494  0.71558  0.12093  1.0000
  N   N27       1.0  0.86152  0.71179  0.32153  1.0000
  C   C410      1.0  0.99532  0.78203  0.40241  1.0000
  C   C411      1.0  0.58291  0.70074  0.35194  1.0000
  H   H483      1.0  0.84255  0.81252  0.26742  1.0000
  H   H484      1.0  0.77136  0.93157  0.02780  1.0000
  C   C412      1.0  0.56252  0.73993  0.10435  1.0000
  Fe  Fe56      1.0  0.98533  0.92189  0.26939  1.0000
  C   C413      1.0  0.90840  0.70581  0.31953  1.0000
  H   H485      1.0  0.76937  0.70864  0.24380  1.0000
  C   C414      1.0  0.87266  0.72182  0.36813  1.0000
  C   C415      1.0  0.76513  0.78058  0.11727  1.0000
  S   S114      1.0  0.97383  0.92697  0.19627  1.0000
  C   C416      1.0  0.76154  0.75443  0.22054  1.0000
  C   C417      1.0  0.78705  0.73078  0.25073  1.0000
  H   H486      1.0  0.59435  0.98459  0.20573  1.0000
  Fe  Fe57      1.0  0.99748  0.95097  0.36029  1.0000
  C   C418      1.0  0.56343  0.94103  0.45949  1.0000
  C   C419      1.0  0.83480  0.68226  0.31344  1.0000
  H   H487      1.0  0.62619  0.91200  0.17245  1.0000
  H   H488      1.0  0.76142  0.80193  0.20321  1.0000
  H   H489      1.0  0.90187  0.69872  0.28490  1.0000
  H   H490      1.0  0.71129  0.81644  0.09676  1.0000
  Fe  Fe58      1.0  0.58638  0.80983  0.05343  1.0000
  N   N28       1.0  0.87154  0.85356  0.15248  1.0000
  C   C420      1.0  0.86482  0.86975  0.11056  1.0000
  C   C421      1.0  0.86347  0.87579  0.18246  1.0000
  C   C422      1.0  0.92351  0.84324  0.17633  1.0000
  C   C423      1.0  0.83566  0.82822  0.14076  1.0000
  C   C424      1.0  0.78455  0.83462  0.12163  1.0000
  C   C425      1.0  0.84985  0.79678  0.14741  1.0000
  C   C426      1.0  0.75006  0.81109  0.11046  1.0000
  C   C427      1.0  0.59798  0.73763  0.42805  1.0000
  C   C428      1.0  0.54258  0.93028  0.10317  1.0000
  H   H491      1.0  0.82749  0.87986  0.09218  1.0000
  H   H492      1.0  0.89141  0.88903  0.11840  1.0000
  H   H493      1.0  0.87049  0.85390  0.08692  1.0000
  H   H494      1.0  0.82794  0.88801  0.16502  1.0000
  H   H495      1.0  0.89173  0.89416  0.19457  1.0000
  H   H496      1.0  0.86436  0.86417  0.21288  1.0000
  H   H497      1.0  0.93365  0.82828  0.15456  1.0000
  H   H498      1.0  0.94945  0.86294  0.18601  1.0000
  H   H499      1.0  0.93111  0.83094  0.20841  1.0000
  H   H500      1.0  0.77072  0.85789  0.11534  1.0000
  H   H501      1.0  0.88772  0.78957  0.16166  1.0000
  H   H502      1.0  0.53943  0.75966  0.08880  1.0000
  C   C429      1.0  0.58625  0.69575  0.27823  1.0000
  H   H503      1.0  0.88876  0.77169  0.32004  1.0000
  H   H504      1.0  0.50821  0.71662  0.11803  1.0000
  H   H505      1.0  0.82641  0.74963  0.14131  1.0000
  H   H506      1.0  0.89708  0.74210  0.37912  1.0000
  H   H507      1.0  0.62035  0.93389  0.21544  1.0000
  H   H508      1.0  0.79921  0.68491  0.31479  1.0000
  H   H509      1.0  0.82764  0.67228  0.28001  1.0000
  H   H510      1.0  0.60380  0.75149  0.45735  1.0000
  N   N29       1.0  0.57530  0.68070  0.31309  1.0000
  H   H511      1.0  0.89276  0.70374  0.39379  1.0000
  C   C430      1.0  0.60864  0.93287  0.17832  1.0000
  H   H512      1.0  0.55183  0.95209  0.09124  1.0000
  H   H513      1.0  0.56389  0.91186  0.09691  1.0000
  C   C431      1.0  0.55482  0.98383  0.18766  1.0000
  H   H514      1.0  0.55318  0.69038  0.03881  1.0000
  H   H515      1.0  0.58400  0.97376  0.42208  1.0000
  H   H516      1.0  0.95718  0.77979  0.39464  1.0000
  H   H517      1.0  0.73805  0.76249  0.10851  1.0000
  C   C432      1.0  0.52913  0.95891  0.15916  1.0000
  H   H518      1.0  0.57970  0.67997  0.24949  1.0000
  N   N30       1.0  0.55431  0.93199  0.15182  1.0000
  C   C433      1.0  0.57230  0.68980  0.38716  1.0000
  H   H519      1.0  0.55676  0.88291  0.16167  1.0000
  C   C434      1.0  0.81488  0.77344  0.13577  1.0000
  H   H520      1.0  0.54246  0.90477  0.20042  1.0000
  H   H521      1.0  0.60105  0.93350  0.47769  1.0000
  H   H522      1.0  0.56234  0.71611  0.26310  1.0000
  H   H523      1.0  0.93011  0.68731  0.34363  1.0000
  C   C435      1.0  0.53701  0.90356  0.16479  1.0000
  S   S115      1.0  0.00342  0.72188  0.42816  1.0000
  C   C436      1.0  0.55419  0.96432  0.42746  1.0000
  H   H524      1.0  0.69850  0.90117  0.01678  1.0000
  C   C437      1.0  0.60563  0.67155  0.01870  1.0000
  C   C438      1.0  0.52346  0.67041  0.29011  1.0000
  H   H525      1.0  0.61776  0.69398  0.01364  1.0000
  Fe  Fe59      1.0  0.62031  0.92737  0.73321  1.0000
  S   S116      1.0  0.64127  0.87860  0.73030  1.0000
  S   S117      1.0  0.60581  0.94341  0.79183  1.0000
  Fe  Fe60      1.0  0.63311  0.94546  0.64854  1.0000
  S   S118      1.0  0.65744  0.89747  0.64199  1.0000
  H   H526      1.0  0.92723  0.76919  0.84325  1.0000
  Fe  Fe61      1.0  0.59516  0.88217  0.65530  1.0000
  C   C439      1.0  0.53782  0.00108  0.53958  1.0000
  Fe  Fe62      1.0  0.70217  0.89821  0.71798  1.0000
  S   S119      1.0  0.77298  0.87200  0.75848  1.0000
  S   S120      1.0  0.68363  0.94724  0.72428  1.0000
  H   H527      1.0  0.80277  0.93064  0.97209  1.0000
  S   S121      1.0  0.98185  0.92558  0.89316  1.0000
  C   C440      1.0  0.55801  0.81176  0.59932  1.0000
  H   H528      1.0  0.54758  0.79095  0.71410  1.0000
  S   S122      1.0  0.56828  0.92988  0.65848  1.0000
  H   H529      1.0  0.94462  0.77095  0.79735  1.0000
  S   S123      1.0  0.53176  0.89019  0.00501  1.0000
  C   C441      1.0  0.60481  0.80885  0.60185  1.0000
  H   H530      1.0  0.61229  0.90891  0.54129  1.0000
  H   H531      1.0  0.51235  0.74145  0.55432  1.0000
  C   C442      1.0  0.68854  0.88261  0.95283  1.0000
  H   H532      1.0  0.63073  0.82747  0.61500  1.0000
  C   C443      1.0  0.83044  0.88782  0.79547  1.0000
  C   C444      1.0  0.83950  0.91936  0.79762  1.0000
  C   C445      1.0  0.88605  0.93076  0.82777  1.0000
  C   C446      1.0  0.92359  0.91076  0.85608  1.0000
  C   C447      1.0  0.91422  0.87931  0.85422  1.0000
  C   C448      1.0  0.86793  0.86792  0.82392  1.0000
  H   H533      1.0  0.81090  0.93489  0.77579  1.0000
  H   H534      1.0  0.89299  0.95513  0.82908  1.0000
  H   H535      1.0  0.94283  0.86370  0.87587  1.0000
  H   H536      1.0  0.86116  0.84352  0.82257  1.0000
  C   C449      1.0  0.59088  0.91634  0.82383  1.0000
  C   C450      1.0  0.85206  0.74549  0.76278  1.0000
  C   C451      1.0  0.58635  0.88516  0.81300  1.0000
  S   S124      1.0  0.63328  0.98074  0.59656  1.0000
  H   H537      1.0  0.59237  0.87716  0.78505  1.0000
  C   C452      1.0  0.58470  0.75742  0.56932  1.0000
  H   H538      1.0  0.65632  0.86952  0.94801  1.0000
  H   H539      1.0  0.56698  0.84041  0.82766  1.0000
  N   N31       1.0  0.76463  0.89765  0.88958  1.0000
  C   C453      1.0  0.81066  0.91502  0.90147  1.0000
  C   C454      1.0  0.77394  0.86539  0.88122  1.0000
  C   C455      1.0  0.72634  0.91070  0.84675  1.0000
  C   C456      1.0  0.74748  0.89881  0.92509  1.0000
  C   C457      1.0  0.70543  0.88199  0.91981  1.0000
  C   C458      1.0  0.77096  0.91675  0.96517  1.0000
  H   H540      1.0  0.97330  0.74448  0.84269  1.0000
  S   S125      1.0  0.53912  0.84601  0.61550  1.0000
  S   S126      1.0  0.53612  0.84772  0.89646  1.0000
  H   H541      1.0  0.84136  0.90616  0.93320  1.0000
  H   H542      1.0  0.82313  0.91303  0.87462  1.0000
  H   H543      1.0  0.80566  0.93997  0.90514  1.0000
  H   H544      1.0  0.80099  0.85420  0.91300  1.0000
  H   H545      1.0  0.78871  0.86390  0.85588  1.0000
  H   H546      1.0  0.74005  0.85132  0.86710  1.0000
  H   H547      1.0  0.71683  0.93463  0.85159  1.0000
  H   H548      1.0  0.73834  0.91095  0.81941  1.0000
  H   H549      1.0  0.69173  0.89734  0.83337  1.0000
  H   H550      1.0  0.68481  0.86846  0.88979  1.0000
  C   C459      1.0  0.53825  0.76009  0.56771  1.0000
  Fe  Fe63      1.0  0.54598  0.85049  0.96893  1.0000
  H   H551      1.0  0.58614  0.95028  0.86916  1.0000
  C   C460      1.0  0.91987  0.71275  0.76996  1.0000
  H   H552      1.0  0.99906  0.99013  0.94064  1.0000
  C   C461      1.0  0.52481  0.78731  0.58227  1.0000
  C   C462      1.0  0.75336  0.91746  0.99775  1.0000
  H   H553      1.0  0.86763  0.69298  0.81203  1.0000
  H   H554      1.0  0.55948  0.91334  0.91130  1.0000
  C   C463      1.0  0.79690  0.78942  0.72864  1.0000
  C   C464      1.0  0.58232  0.92627  0.86020  1.0000
  H   H555      1.0  0.72404  0.77914  0.67741  1.0000
  H   H556      1.0  0.53092  0.90033  0.56626  1.0000
  H   H557      1.0  0.65379  0.77998  0.58764  1.0000
  C   C465      1.0  0.56747  0.90536  0.88429  1.0000
  H   H558      1.0  0.68098  0.99448  0.84802  1.0000
  C   C466      1.0  0.61786  0.78189  0.58643  1.0000
  H   H559      1.0  0.86968  0.79419  0.77975  1.0000
  C   C467      1.0  0.76735  0.73829  0.70380  1.0000
  H   H560      1.0  0.58861  0.87269  0.54682  1.0000
  H   H561      1.0  0.95681  0.70327  0.79303  1.0000
  H   H562      1.0  0.52614  0.98886  0.56153  1.0000
  C   C468      1.0  0.53973  0.81445  0.72241  1.0000
  C   C469      1.0  0.81286  0.72622  0.73428  1.0000
  S   S127      1.0  0.60207  0.72470  0.54836  1.0000
  C   C470      1.0  0.93754  0.75536  0.82045  1.0000
  H   H563      1.0  0.92807  0.70211  0.85325  1.0000
  H   H564      1.0  0.92355  0.72616  0.74297  1.0000
  N   N32       1.0  0.89982  0.73203  0.79485  1.0000
  C   C471      1.0  0.56108  0.87436  0.87204  1.0000
  H   H565      1.0  0.87747  0.72596  0.84760  1.0000
  C   C472      1.0  0.89285  0.71249  0.82831  1.0000
  C   C473      1.0  0.58747  0.00108  0.54932  1.0000
  C   C474      1.0  0.57166  0.86434  0.83704  1.0000
  H   H566      1.0  0.73796  0.72310  0.68229  1.0000
  C   C475      1.0  0.84258  0.77761  0.75925  1.0000
  C   C476      1.0  0.75940  0.76984  0.70097  1.0000
  H   H567      1.0  0.79048  0.81400  0.72643  1.0000
  H   H568      1.0  0.81710  0.70158  0.73560  1.0000
  H   H569      1.0  0.55071  0.83036  0.70237  1.0000
  C   C477      1.0  0.71231  0.90039  0.99164  1.0000
  H   H570      1.0  0.56451  0.81888  0.75879  1.0000
  Fe  Fe64      1.0  0.56199  0.67917  0.53508  1.0000
  H   H571      1.0  0.89652  0.69251  0.75377  1.0000
  H   H572      1.0  0.55324  0.93645  0.55743  1.0000
  H   H573      1.0  0.95277  0.98641  0.76940  1.0000
  H   H574      1.0  0.99844  0.71669  0.95103  1.0000
  C   C478      1.0  0.52625  0.91792  0.54025  1.0000
  H   H575      1.0  0.97990  0.96661  0.82232  1.0000
  C   C479      1.0  0.58395  0.89140  0.52212  1.0000
  S   S128      1.0  0.51070  0.81538  0.99564  1.0000
  H   H576      1.0  0.98817  0.95257  0.77463  1.0000
  C   C480      1.0  0.98620  0.97358  0.79287  1.0000
