data_image0
_chemical_formula_structural       FeS2FeS2FeSFeS3HC2FeS2CSHFeS2Fe2SHSC2HSC6H4C6H8C3HC3HCH8CHSH2FeHC3H7C5HCFeH3CH3CH2NHSH2C2H3CH2C2HCHCHC2H2SHNCHC2H3C6H3CHC2H2C3NSC3FeS2FeS2FeS2FeSFeS3FeS2HC3H2CH2C2H2C6H4C2FeCSCH2CHSHC2HCH3CH2CHC3H4C4H5C3HCHNH2C2HNC2HC6H6CH7C3H2FeCHCHCHCHC2HCHCHCH3FeHC2H2NSCH4CH3SHCSHNC5HCHCH3CH2CH4CHC3HCSCHCFeHFeS2FeS2FeSFeS3FeSHFeS2FeSFeNS2HCHSH6C5SCSC6H4C6H4C6H4C6H4C5H4C4HC3H5SFeH2CNC2H2NC9H14CFeH5SHFeHCH2CSCFeHNH5CH3SH2C2HC2NH3C2H4CHC2HC2H4SHCSCH3CH2CHCH2CHCNCHCH2SH2C2H2C2H2C4N2CSH9C2HCSH2C3HFeCHC2HC3H2CH2C3HC5H2C2H5FeS2H2CHCSHSFeS2FeS2FeSFeS3H2SH2SHC7H6SHCH6CH2CFeC10H4FeC2H2NHC5HCHSH4CH3NH2FeCH2CH3CHCH3CHCH2C3HC2S3H2SHFeS2FeSCFeSFeS3FeHFeS2FeCFeS3Fe2S2FeHFeS3C6H4C6H4C2HNHC3H2C7H4SHCHCHC2HSC4H2CH2CHC3SHCH2NC9H14NC9H17NC3H4CHCHCSH6CHCH3CHC2NH2CHCH5CH4CHCSHNFeS2FeS2FeSFeS3FeS2FeSHFeSFeS4CFeSCH3CHCHC7H4C3H3C2HC2H2CHFeHC6H4C5H4NC7HCH4CHC2H2C2H5C3HC2H2C2HC3HCH2CH2NC6HCNH11CHCHCNCNC2H6CSFeSCHC2H2CHCH2C3H6C2HC2H3CHCH2C2H6NH2CHC4HCH4SHC3FeCSHCH2C2H3CHCH3SCH3NHCHC2H5C2H2CH4CHCFeSCFeS2FeSFeS3FeS2FeS2FeSFeS3HSH2C3HC6H4CHC2HC6H4C3H2CH3C2HC6H4C6H3C5HNHC5H2CH2CH2C4H4SCH3CH5NSH2CHC2H4C3H2C2SHCHC3HCHCHCHNHCHC3H2NHCH2CH2CHCNCH2C3FeHCH5CH2FeHSH2CNH3CFeHC2H4CHCH2CNHCH5C2H2CSNC2H4C2H5SHCH6C3H8C2SHC2HSHC3HFeS2FeS3HSC2HFeSNSHFeS2FeS2FeSFeS3FeS2FeS2C6H2CH4C3FeH3C6H4C6H2CHC7H4C2NCHCHC2SH2NCHCHNCH2C2HCH3CNC2H4NCH5C4HNHCHC2H5FeSHSHC2SHCH4CFeCHCH2C2HC2H2FeHCHCHCH2C8H5C2H10CH2C2HC2H2C2H2C2HCH2CH3C2HCH4CHFeS2FeSHFeSFeS3FeS2FeSHFeCFeS3H2CSHCH4C6H2CHCHCH2NHCSC5H3C6H4C2H2C2HCH3CNCSHSHC3H2NH2CH4NH4C2H2C5H3C2H13CHCHC3H6C5FeS2FeS2FeSFeS3FeS2FeS2FeSFeS4HC3H2C4H2S2H2C7HCH2C6H4C6H4C4H2SNC3HSCH3CH2C2HNC9HCH4CHCH8CH3CHCHC2H2CH2C4HC2H5C2HC2H7SHCFeH3C2H3C3HCH5NCH3CHC3HNHCHCHC2H8CHCH4CH2C2HC2SC3HCH2CH2NCHCH2CHNCHC2NH2FeH4CHCHCHCHCH3CHCHCHCH3CH2NCHC3H3SH3FeS2CHFeS3FeS2FeS2FeSFeS3NCFeS2FeSFeS3CSH2SC7H5CFeC6H4FeHNHC6H4CH6C3FeC3H4C2SHCH3CH4CH4CHCHCHCH3NC6H11CNHSHC2H3CHSC2HC3HC2HFeHCHCH3FeHCHCHC2HCH2C2HCSH5CHCFeS2CHCHFeHSH2SHFeS2FeSFeS3HC2HCFeSH2SH2C2FeNHC8H2CHC6H4C3HCH3NC9H14NCSHC3HC2HCH5CH5SCH2
_chemical_formula_sum              "Fe128 S256 H1152 C960 N64"
_cell_length_a       55.9916
_cell_length_b       54.6998
_cell_length_c       26.4963
_cell_angle_alpha    90.3009
_cell_angle_beta     90.3247
_cell_angle_gamma    88.8636

_space_group_name_H-M_alt    "P 1"
_space_group_IT_number       1

loop_
  _space_group_symop_operation_xyz
  'x, y, z'

loop_
  _atom_site_type_symbol
  _atom_site_label
  _atom_site_symmetry_multiplicity
  _atom_site_fract_x
  _atom_site_fract_y
  _atom_site_fract_z
  _atom_site_occupancy
  Fe  Fe1       1.0  0.09252  0.16294  0.70778  1.0000
  S   S1        1.0  0.08962  0.16440  0.79334  1.0000
  S   S2        1.0  0.08524  0.19889  0.66423  1.0000
  Fe  Fe2       1.0  0.10042  0.10731  0.70973  1.0000
  S   S3        1.0  0.09718  0.10473  0.79360  1.0000
  S   S4        1.0  0.10888  0.07417  0.66127  1.0000
  Fe  Fe3       1.0  0.06653  0.13151  0.78392  1.0000
  S   S5        1.0  0.03240  0.12183  0.82366  1.0000
  Fe  Fe4       1.0  0.12073  0.13723  0.79654  1.0000
  S   S6        1.0  0.15502  0.13634  0.84512  1.0000
  S   S7        1.0  0.06772  0.13124  0.69938  1.0000
  S   S8        1.0  0.12566  0.13873  0.71185  1.0000
  H   H1        1.0  0.03643  0.27534  0.00813  1.0000
  C   C1        1.0  0.16016  0.02250  0.92421  1.0000
  C   C2        1.0  0.03469  0.16184  0.59928  1.0000
  Fe  Fe5       1.0  0.21910  0.06232  0.08407  1.0000
  S   S9        1.0  0.18542  0.08033  0.04901  1.0000
  S   S10       1.0  0.22928  0.06120  0.16725  1.0000
  C   C3        1.0  0.00166  0.26902  0.03979  1.0000
  S   S11       1.0  0.06325  0.30914  0.42129  1.0000
  H   H2        1.0  0.17371  0.99860  0.14777  1.0000
  Fe  Fe6       1.0  0.02314  0.28414  0.31425  1.0000
  S   S12       1.0  0.01894  0.27169  0.39370  1.0000
  S   S13       1.0  0.02370  0.32368  0.33505  1.0000
  Fe  Fe7       1.0  0.02316  0.31094  0.41483  1.0000
  Fe  Fe8       1.0  0.05904  0.26973  0.39701  1.0000
  S   S14       1.0  0.07445  0.23458  0.43368  1.0000
  H   H3        1.0  0.05453  0.00203  0.84309  1.0000
  S   S15       1.0  0.06294  0.27897  0.31345  1.0000
  C   C4        1.0  0.02019  0.20371  0.60330  1.0000
  C   C5        1.0  0.19890  0.06126  0.85464  1.0000
  H   H4        1.0  0.20977  0.99675  0.97573  1.0000
  S   S16       1.0  0.21565  0.02159  0.08049  1.0000
  C   C6        1.0  0.08308  0.20840  0.59961  1.0000
  C   C7        1.0  0.08660  0.19227  0.55896  1.0000
  C   C8        1.0  0.08378  0.20060  0.50873  1.0000
  C   C9        1.0  0.07729  0.22509  0.49812  1.0000
  C   C10       1.0  0.07357  0.24115  0.53877  1.0000
  C   C11       1.0  0.07656  0.23289  0.58897  1.0000
  H   H5        1.0  0.09173  0.17344  0.56613  1.0000
  H   H6        1.0  0.08688  0.18799  0.47774  1.0000
  H   H7        1.0  0.06885  0.26009  0.53151  1.0000
  H   H8        1.0  0.07384  0.24562  0.61988  1.0000
  C   C12       1.0  0.17789  0.09444  0.99007  1.0000
  C   C13       1.0  0.15396  0.09432  0.97330  1.0000
  C   C14       1.0  0.14669  0.10661  0.92878  1.0000
  C   C15       1.0  0.16317  0.11987  0.90100  1.0000
  C   C16       1.0  0.18714  0.11997  0.91769  1.0000
  C   C17       1.0  0.19455  0.10703  0.96137  1.0000
  H   H9        1.0  0.14080  0.08493  0.99537  1.0000
  H   H10       1.0  0.12818  0.10643  0.91683  1.0000
  H   H11       1.0  0.20009  0.13014  0.89662  1.0000
  H   H12       1.0  0.21299  0.10749  0.97359  1.0000
  H   H13       1.0  0.01106  0.15797  0.68639  1.0000
  H   H14       1.0  0.17154  0.10254  0.74127  1.0000
  H   H15       1.0  0.02175  0.17173  0.79005  1.0000
  H   H16       1.0  0.13959  0.07483  0.77108  1.0000
  C   C18       1.0  0.11084  0.04587  0.69228  1.0000
  C   C19       1.0  0.12332  0.02628  0.66959  1.0000
  C   C20       1.0  0.18489  0.09186  0.76404  1.0000
  H   H17       1.0  0.23085  0.09508  0.27569  1.0000
  C   C21       1.0  0.00859  0.06883  0.76569  1.0000
  C   C22       1.0  0.10086  0.04285  0.74001  1.0000
  C   C23       1.0  0.11757  0.00159  0.74411  1.0000
  H   H18       1.0  0.00174  0.01304  0.58513  1.0000
  C   C24       1.0  0.02669  0.02434  0.80889  1.0000
  H   H19       1.0  0.09046  0.05748  0.75697  1.0000
  H   H20       1.0  0.20572  0.12171  0.22124  1.0000
  H   H21       1.0  0.03512  0.31312  0.22861  1.0000
  H   H22       1.0  0.01627  0.07441  0.80276  1.0000
  H   H23       1.0  0.01341  0.22965  0.29498  1.0000
  H   H24       1.0  0.02095  0.21920  0.46632  1.0000
  H   H25       1.0  0.16834  0.03571  0.72413  1.0000
  H   H26       1.0  0.05186  0.16606  0.61846  1.0000
  C   C25       1.0  0.21644  0.05042  0.88540  1.0000
  H   H27       1.0  0.99982  0.08568  0.75018  1.0000
  S   S17       1.0  0.99790  0.27559  0.25070  1.0000
  H   H28       1.0  0.02546  0.20535  0.56312  1.0000
  H   H29       1.0  0.15315  0.07823  0.83106  1.0000
  Fe  Fe9       1.0  0.06367  0.31862  0.33757  1.0000
  H   H30       1.0  0.14799  0.04799  0.80622  1.0000
  C   C26       1.0  0.12679  0.00415  0.69556  1.0000
  C   C27       1.0  0.19514  0.05341  0.80415  1.0000
  C   C28       1.0  0.00540  0.24840  0.51033  1.0000
  H   H31       1.0  0.16614  0.99641  0.05600  1.0000
  H   H32       1.0  0.02349  0.06376  0.73982  1.0000
  H   H33       1.0  0.02219  0.25307  0.52815  1.0000
  H   H34       1.0  0.19051  0.12110  0.13476  1.0000
  H   H35       1.0  0.23848  0.00794  0.80356  1.0000
  H   H36       1.0  0.16053  0.06491  0.69810  1.0000
  H   H37       1.0  0.13088  0.02846  0.63240  1.0000
  C   C29       1.0  0.15359  0.06676  0.79631  1.0000
  C   C30       1.0  0.22494  0.12455  0.10097  1.0000
  C   C31       1.0  0.17433  0.05493  0.72108  1.0000
  C   C32       1.0  0.00268  0.02574  0.79093  1.0000
  C   C33       1.0  0.17992  0.01914  0.95570  1.0000
  H   H38       1.0  0.03841  0.03980  0.80819  1.0000
  C   C34       1.0  0.22725  0.02276  0.81784  1.0000
  Fe  Fe10      1.0  0.22900  0.02034  0.15976  1.0000
  H   H39       1.0  0.00468  0.17540  0.51610  1.0000
  H   H40       1.0  0.13938  0.00739  0.86352  1.0000
  H   H41       1.0  0.18447  0.03333  0.98277  1.0000
  C   C35       1.0  0.20948  0.12326  0.14175  1.0000
  H   H42       1.0  0.20240  0.09252  0.74453  1.0000
  H   H43       1.0  0.18842  0.07610  0.87052  1.0000
  H   H44       1.0  0.20823  0.02625  0.74889  1.0000
  C   C36       1.0  0.20977  0.03359  0.78664  1.0000
  H   H45       1.0  0.04181  0.99829  0.60536  1.0000
  H   H46       1.0  0.19107  0.05537  0.69872  1.0000
  N   N1        1.0  0.17735  0.06631  0.77171  1.0000
  H   H47       1.0  0.18686  0.10198  0.80027  1.0000
  S   S18       1.0  0.21356  0.99682  0.22024  1.0000
  H   H48       1.0  0.04701  0.29683  0.17532  1.0000
  H   H49       1.0  0.06305  0.32156  0.20383  1.0000
  C   C37       1.0  0.10433  0.02081  0.76599  1.0000
  C   C38       1.0  0.03921  0.26068  0.08296  1.0000
  H   H50       1.0  0.03082  0.14232  0.60674  1.0000
  H   H51       1.0  0.09691  0.01876  0.80332  1.0000
  H   H52       1.0  0.14934  0.03912  0.92719  1.0000
  C   C39       1.0  0.00548  0.13795  0.81085  1.0000
  H   H53       1.0  0.05858  0.26075  0.08348  1.0000
  H   H54       1.0  0.03820  0.16378  0.55829  1.0000
  C   C40       1.0  0.03625  0.00267  0.82928  1.0000
  C   C41       1.0  0.23062  0.03121  0.86706  1.0000
  H   H55       1.0  0.00651  0.30591  0.13622  1.0000
  C   C42       1.0  0.21842  0.12379  0.19113  1.0000
  H   H56       1.0  0.21789  0.12371  0.06282  1.0000
  C   C43       1.0  0.00429  0.99950  0.61455  1.0000
  H   H57       1.0  0.21984  0.13755  0.29153  1.0000
  C   C44       1.0  0.23861  0.14310  0.28586  1.0000
  C   C45       1.0  0.00513  0.16223  0.79446  1.0000
  H   H58       1.0  0.03530  0.21102  0.62589  1.0000
  H   H59       1.0  0.03646  0.24641  0.15825  1.0000
  S   S19       1.0  0.99895  0.32650  0.47537  1.0000
  H   H60       1.0  0.23825  0.16171  0.26895  1.0000
  N   N2        1.0  0.01496  0.17815  0.61721  1.0000
  C   C46       1.0  0.00458  0.22919  0.47570  1.0000
  H   H61       1.0  0.00447  0.21606  0.61000  1.0000
  C   C47       1.0  0.02679  0.25253  0.12482  1.0000
  C   C48       1.0  0.02667  0.26887  0.04054  1.0000
  H   H62       1.0  0.03235  0.18182  0.68993  1.0000
  H   H63       1.0  0.21903  0.05699  0.92376  1.0000
  H   H64       1.0  0.11480  0.32309  0.23736  1.0000
  C   C49       1.0  0.15464  0.00468  0.88847  1.0000
  C   C50       1.0  0.19417  0.99791  0.95173  1.0000
  C   C51       1.0  0.01476  0.17681  0.67316  1.0000
  C   C52       1.0  0.04500  0.31529  0.19267  1.0000
  C   C53       1.0  0.00185  0.25235  0.12422  1.0000
  C   C54       1.0  0.99494  0.22818  0.28318  1.0000
  H   H65       1.0  0.03753  0.32795  0.98100  1.0000
  H   H66       1.0  0.00132  0.18979  0.68950  1.0000
  H   H67       1.0  0.01536  0.32464  0.05872  1.0000
  C   C55       1.0  0.00734  0.32452  0.15306  1.0000
  H   H68       1.0  0.99843  0.32348  0.19052  1.0000
  C   C56       1.0  0.24326  0.12593  0.20115  1.0000
  C   C57       1.0  0.03407  0.32879  0.06203  1.0000
  H   H69       1.0  0.24430  0.02298  0.89111  1.0000
  H   H70       1.0  0.13708  0.59968  0.79460  1.0000
  C   C58       1.0  0.22676  0.38097  0.91833  1.0000
  C   C59       1.0  0.20787  0.39602  0.01974  1.0000
  C   C60       1.0  0.14020  0.58109  0.81034  1.0000
  N   N3        1.0  0.03244  0.33256  0.15803  1.0000
  S   S20       1.0  0.20368  0.63853  0.45126  1.0000
  C   C61       1.0  0.14968  0.65499  0.77431  1.0000
  C   C62       1.0  0.17103  0.65001  0.69502  1.0000
  C   C63       1.0  0.03164  0.50641  0.99780  1.0000
  Fe  Fe11      1.0  0.19295  0.62030  0.52325  1.0000
  S   S21       1.0  0.17617  0.58350  0.52532  1.0000
  S   S22       1.0  0.22704  0.62773  0.56409  1.0000
  Fe  Fe12      1.0  0.10898  0.42318  0.95616  1.0000
  S   S23       1.0  0.10446  0.43216  0.03805  1.0000
  S   S24       1.0  0.07677  0.41254  0.90995  1.0000
  Fe  Fe13      1.0  0.16261  0.43438  0.95642  1.0000
  S   S25       1.0  0.16149  0.44349  0.04006  1.0000
  S   S26       1.0  0.19948  0.43994  0.92040  1.0000
  Fe  Fe14      1.0  0.13834  0.41035  0.04917  1.0000
  S   S27       1.0  0.14320  0.37842  0.10462  1.0000
  Fe  Fe15      1.0  0.12758  0.46416  0.02116  1.0000
  S   S28       1.0  0.11328  0.50103  0.04688  1.0000
  S   S29       1.0  0.14197  0.39970  0.96694  1.0000
  S   S30       1.0  0.12964  0.45686  0.93805  1.0000
  Fe  Fe16      1.0  0.14558  0.63064  0.98839  1.0000
  S   S31       1.0  0.11399  0.62209  0.93992  1.0000
  S   S32       1.0  0.16981  0.59857  0.00748  1.0000
  H   H71       1.0  0.03469  0.48094  0.08355  1.0000
  C   C64       1.0  0.01199  0.63510  0.01386  1.0000
  C   C65       1.0  0.01978  0.46287  0.99365  1.0000
  C   C66       1.0  0.23584  0.60929  0.70339  1.0000
  H   H72       1.0  0.20836  0.47972  0.64168  1.0000
  H   H73       1.0  0.05407  0.45671  0.06058  1.0000
  C   C67       1.0  0.21051  0.44085  0.85719  1.0000
  H   H74       1.0  0.10052  0.34759  0.06312  1.0000
  H   H75       1.0  0.23903  0.39043  0.84406  1.0000
  C   C68       1.0  0.20914  0.42936  0.76805  1.0000
  C   C69       1.0  0.19842  0.43038  0.81629  1.0000
  H   H76       1.0  0.19996  0.42039  0.73731  1.0000
  H   H77       1.0  0.18124  0.42218  0.82226  1.0000
  C   C70       1.0  0.15420  0.57134  0.01798  1.0000
  C   C71       1.0  0.16625  0.54861  0.01573  1.0000
  C   C72       1.0  0.15388  0.52681  0.02391  1.0000
  C   C73       1.0  0.12946  0.52773  0.03493  1.0000
  C   C74       1.0  0.11750  0.55048  0.03739  1.0000
  C   C75       1.0  0.12976  0.57218  0.02853  1.0000
  H   H78       1.0  0.18516  0.54783  0.00762  1.0000
  H   H79       1.0  0.16329  0.50936  0.02232  1.0000
  H   H80       1.0  0.09871  0.55138  0.04654  1.0000
  H   H81       1.0  0.12037  0.58960  0.03116  1.0000
  C   C76       1.0  0.19761  0.55994  0.52086  1.0000
  C   C77       1.0  0.19429  0.54123  0.48561  1.0000
  Fe  Fe17      1.0  0.23696  0.64851  0.49424  1.0000
  C   C78       1.0  0.17398  0.50026  0.57346  1.0000
  S   S33       1.0  0.12498  0.65517  0.04158  1.0000
  C   C79       1.0  0.21812  0.55982  0.55141  1.0000
  H   H82       1.0  0.17844  0.54128  0.46200  1.0000
  H   H83       1.0  0.06723  0.52113  0.01003  1.0000
  C   C80       1.0  0.13507  0.50332  0.53337  1.0000
  H   H84       1.0  0.22074  0.57431  0.57855  1.0000
  S   S34       1.0  0.12438  0.64858  0.81058  1.0000
  H   H85       1.0  0.16417  0.61400  0.86642  1.0000
  C   C81       1.0  0.00097  0.53857  0.98405  1.0000
  C   C82       1.0  0.22614  0.38027  0.86560  1.0000
  H   H86       1.0  0.05528  0.56402  0.00018  1.0000
  C   C83       1.0  0.08205  0.34187  0.06280  1.0000
  H   H87       1.0  0.00516  0.46503  0.02169  1.0000
  H   H88       1.0  0.18025  0.44477  0.64173  1.0000
  H   H89       1.0  0.07526  0.48471  0.97451  1.0000
  C   C84       1.0  0.04525  0.33351  0.10932  1.0000
  H   H90       1.0  0.06406  0.45482  0.96817  1.0000
  H   H91       1.0  0.01221  0.46489  0.95491  1.0000
  C   C85       1.0  0.19139  0.35619  0.02863  1.0000
  H   H92       1.0  0.21355  0.46552  0.50410  1.0000
  C   C86       1.0  0.12479  0.37101  0.15713  1.0000
  C   C87       1.0  0.10860  0.38793  0.17825  1.0000
  C   C88       1.0  0.09517  0.38170  0.22116  1.0000
  H   H93       1.0  0.19258  0.33636  0.01931  1.0000
  H   H94       1.0  0.10686  0.40605  0.16233  1.0000
  H   H95       1.0  0.08318  0.39521  0.23775  1.0000
  H   H96       1.0  0.99642  0.33755  0.12983  1.0000
  C   C89       1.0  0.03475  0.38868  0.02322  1.0000
  C   C90       1.0  0.05449  0.39659  0.99586  1.0000
  C   C91       1.0  0.05223  0.40196  0.94452  1.0000
  C   C92       1.0  0.03005  0.39905  0.92056  1.0000
  H   H97       1.0  0.17824  0.42556  0.58658  1.0000
  H   H98       1.0  0.03680  0.38442  0.06283  1.0000
  H   H99       1.0  0.07160  0.39768  0.01434  1.0000
  H   H100      1.0  0.02815  0.40308  0.88078  1.0000
  H   H101      1.0  0.12146  0.46999  0.50230  1.0000
  C   C93       1.0  0.03398  0.63700  0.98969  1.0000
  C   C94       1.0  0.03542  0.63327  0.93749  1.0000
  C   C95       1.0  0.15613  0.46428  0.53665  1.0000
  H   H102      1.0  0.05297  0.47848  0.92721  1.0000
  C   C96       1.0  0.09707  0.35825  0.24278  1.0000
  H   H103      1.0  0.23242  0.54846  0.67729  1.0000
  N   N4        1.0  0.21047  0.37013  0.00351  1.0000
  H   H104      1.0  0.22231  0.48850  0.58294  1.0000
  H   H105      1.0  0.15325  0.53376  0.56636  1.0000
  C   C97       1.0  0.04848  0.47618  0.05490  1.0000
  C   C98       1.0  0.23935  0.56543  0.69212  1.0000
  H   H106      1.0  0.22813  0.58098  0.39084  1.0000
  N   N5        1.0  0.16463  0.57809  0.83179  1.0000
  C   C99       1.0  0.16685  0.59437  0.87644  1.0000
  C   C100      1.0  0.18180  0.58655  0.79335  1.0000
  H   H107      1.0  0.02627  0.44353  0.99671  1.0000
  C   C101      1.0  0.16856  0.55232  0.84715  1.0000
  C   C102      1.0  0.15335  0.54166  0.88328  1.0000
  C   C103      1.0  0.18693  0.53699  0.82645  1.0000
  C   C104      1.0  0.15611  0.51719  0.89729  1.0000
  C   C105      1.0  0.18961  0.51252  0.84111  1.0000
  C   C106      1.0  0.17420  0.50267  0.87633  1.0000
  H   H108      1.0  0.18465  0.59212  0.89503  1.0000
  H   H109      1.0  0.23681  0.34113  0.00880  1.0000
  H   H110      1.0  0.18805  0.51006  0.59224  1.0000
  H   H111      1.0  0.20052  0.58537  0.80766  1.0000
  H   H112      1.0  0.17835  0.60607  0.78320  1.0000
  H   H113      1.0  0.18035  0.57580  0.75772  1.0000
  C   C107      1.0  0.13613  0.47839  0.52241  1.0000
  H   H114      1.0  0.20955  0.58736  0.66572  1.0000
  H   H115      1.0  0.13921  0.55219  0.90134  1.0000
  H   H116      1.0  0.19950  0.54340  0.79905  1.0000
  H   H117      1.0  0.14428  0.50952  0.92507  1.0000
  H   H118      1.0  0.20376  0.50101  0.82534  1.0000
  H   H119      1.0  0.22298  0.40741  0.00745  1.0000
  H   H120      1.0  0.02304  0.37086  0.15625  1.0000
  C   C108      1.0  0.11289  0.34111  0.22102  1.0000
  C   C109      1.0  0.20958  0.36871  0.94764  1.0000
  C   C110      1.0  0.23377  0.36029  0.02206  1.0000
  H   H121      1.0  0.20930  0.50866  0.45158  1.0000
  H   H122      1.0  0.11970  0.51431  0.52170  1.0000
  Fe  Fe18      1.0  0.12536  0.65442  0.89492  1.0000
  C   C111      1.0  0.04861  0.52529  0.00227  1.0000
  H   H123      1.0  0.12609  0.57869  0.83919  1.0000
  C   C112      1.0  0.01274  0.38526  0.99914  1.0000
  H   H124      1.0  0.13705  0.56767  0.77941  1.0000
  C   C113      1.0  0.01818  0.55657  0.98761  1.0000
  H   H125      1.0  0.13871  0.63137  0.71347  1.0000
  C   C114      1.0  0.21171  0.52278  0.47982  1.0000
  H   H126      1.0  0.13936  0.33433  0.16319  1.0000
  C   C115      1.0  0.15393  0.51421  0.55885  1.0000
  C   C116      1.0  0.00744  0.51384  0.98917  1.0000
  H   H127      1.0  0.01077  0.63817  0.05415  1.0000
  C   C117      1.0  0.01034  0.39063  0.94776  1.0000
  H   H128      1.0  0.08824  0.65669  0.47082  1.0000
  C   C118      1.0  0.12685  0.34758  0.17892  1.0000
  H   H129      1.0  0.02221  0.35729  0.21825  1.0000
  C   C119      1.0  0.05867  0.47449  0.96667  1.0000
  H   H130      1.0  0.06447  0.48727  0.06347  1.0000
  H   H131      1.0  0.23420  0.65259  0.75645  1.0000
  H   H132      1.0  0.15628  0.44510  0.52659  1.0000
  Fe  Fe19      1.0  0.09431  0.64908  0.98848  1.0000
  H   H133      1.0  0.23518  0.57211  0.45360  1.0000
  C   C120      1.0  0.15192  0.64417  0.72647  1.0000
  C   C121      1.0  0.04668  0.33054  0.01675  1.0000
  H   H134      1.0  0.19150  0.40445  0.00302  1.0000
  H   H135      1.0  0.24262  0.45919  0.87973  1.0000
  N   N6        1.0  0.03929  0.48043  0.00303  1.0000
  S   S35       1.0  0.17328  0.65291  0.55456  1.0000
  C   C122      1.0  0.01474  0.62745  0.90975  1.0000
  H   H136      1.0  0.15338  0.59047  0.90574  1.0000
  H   H137      1.0  0.20578  0.42747  0.62026  1.0000
  H   H138      1.0  0.19645  0.43813  0.50682  1.0000
  H   H139      1.0  0.19235  0.35781  0.07057  1.0000
  C   C123      1.0  0.06962  0.34008  0.10816  1.0000
  H   H140      1.0  0.17272  0.64130  0.65857  1.0000
  H   H141      1.0  0.17329  0.36331  0.01814  1.0000
  H   H142      1.0  0.22563  0.62585  0.69579  1.0000
  S   S36       1.0  0.07960  0.35182  0.29728  1.0000
  H   H143      1.0  0.17764  0.34618  0.93953  1.0000
  C   C124      1.0  0.03190  0.35721  0.18163  1.0000
  S   S37       1.0  0.05900  0.64433  0.02644  1.0000
  H   H144      1.0  0.05009  0.36385  0.19036  1.0000
  N   N7        1.0  0.19696  0.45951  0.57588  1.0000
  C   C125      1.0  0.18990  0.43845  0.60724  1.0000
  C   C126      1.0  0.20838  0.45016  0.52901  1.0000
  C   C127      1.0  0.21531  0.47297  0.60477  1.0000
  C   C128      1.0  0.17570  0.47476  0.56264  1.0000
  C   C129      1.0  0.19171  0.35574  0.92076  1.0000
  H   H145      1.0  0.22497  0.43926  0.53730  1.0000
  C   C130      1.0  0.23177  0.43940  0.75951  1.0000
  H   H146      1.0  0.13248  0.66010  0.47251  1.0000
  C   C131      1.0  0.07060  0.33711  0.01713  1.0000
  H   H147      1.0  0.01583  0.62452  0.86939  1.0000
  H   H148      1.0  0.01308  0.57569  0.98318  1.0000
  H   H149      1.0  0.23109  0.46105  0.61331  1.0000
  C   C132      1.0  0.23532  0.54093  0.54658  1.0000
  H   H150      1.0  0.20650  0.39795  0.06151  1.0000
  H   H151      1.0  0.08003  0.33934  0.98187  1.0000
  C   C133      1.0  0.20838  0.36750  0.84045  1.0000
  H   H152      1.0  0.17634  0.48375  0.88768  1.0000
  H   H153      1.0  0.17723  0.34560  0.84814  1.0000
  H   H154      1.0  0.24036  0.39192  0.93592  1.0000
  H   H155      1.0  0.05240  0.63480  0.91857  1.0000
  C   C134      1.0  0.04193  0.54995  0.99699  1.0000
  H   H156      1.0  0.20769  0.36752  0.79955  1.0000
  C   C135      1.0  0.23224  0.52266  0.51011  1.0000
  C   C136      1.0  0.24248  0.58142  0.42005  1.0000
  C   C137      1.0  0.22652  0.58730  0.68574  1.0000
  H   H157      1.0  0.07908  0.34446  0.14244  1.0000
  C   C138      1.0  0.23300  0.45112  0.84849  1.0000
  S   S38       1.0  0.15831  0.66170  0.94048  1.0000
  C   C139      1.0  0.24343  0.45069  0.79999  1.0000
  H   H158      1.0  0.23470  0.36036  0.06408  1.0000
  C   C140      1.0  0.19123  0.35525  0.86794  1.0000
  Fe  Fe20      1.0  0.20835  0.66201  0.59002  1.0000
  H   H159      1.0  0.99729  0.62325  0.26386  1.0000
  Fe  Fe21      1.0  0.19782  0.85955  0.22708  1.0000
  S   S39       1.0  0.21230  0.82758  0.27146  1.0000
  S   S40       1.0  0.22093  0.88304  0.17828  1.0000
  Fe  Fe22      1.0  0.14682  0.84777  0.25014  1.0000
  S   S41       1.0  0.15688  0.81459  0.29485  1.0000
  S   S42       1.0  0.10813  0.85858  0.24658  1.0000
  Fe  Fe23      1.0  0.18472  0.83850  0.32926  1.0000
  S   S43       1.0  0.19005  0.83497  0.41374  1.0000
  Fe  Fe24      1.0  0.18315  0.80646  0.23334  1.0000
  S   S44       1.0  0.19128  0.76792  0.20533  1.0000
  S   S45       1.0  0.17281  0.87244  0.28817  1.0000
  S   S46       1.0  0.17053  0.83765  0.18501  1.0000
  Fe  Fe25      1.0  0.18541  0.91024  0.74371  1.0000
  S   S47       1.0  0.17656  0.94422  0.69952  1.0000
  H   H160      1.0  0.16518  0.67997  0.82772  1.0000
  Fe  Fe26      1.0  0.13597  0.88959  0.72339  1.0000
  S   S48       1.0  0.12422  0.92186  0.67758  1.0000
  S   S49       1.0  0.10668  0.86215  0.72818  1.0000
  Fe  Fe27      1.0  0.16048  0.91861  0.64284  1.0000
  S   S50       1.0  0.16565  0.92451  0.55936  1.0000
  Fe  Fe28      1.0  0.14138  0.94372  0.73873  1.0000
  N   N8        1.0  0.06805  0.71691  0.09352  1.0000
  S   S51       1.0  0.17142  0.88455  0.68414  1.0000
  S   S52       1.0  0.15110  0.91165  0.78745  1.0000
  H   H161      1.0  0.08137  0.73220  0.42885  1.0000
  C   C141      1.0  0.15732  0.96416  0.16354  1.0000
  H   H162      1.0  0.16142  0.96639  0.20318  1.0000
  S   S53       1.0  0.13740  0.72537  0.01350  1.0000
  H   H163      1.0  0.08006  0.69676  0.15869  1.0000
  H   H164      1.0  0.20528  0.87158  0.82921  1.0000
  H   H165      1.0  0.19470  0.94520  0.98841  1.0000
  H   H166      1.0  0.20773  0.91172  0.62513  1.0000
  H   H167      1.0  0.14587  0.96061  0.01919  1.0000
  H   H168      1.0  0.12525  0.73600  0.43434  1.0000
  C   C142      1.0  0.08172  0.69411  0.44866  1.0000
  C   C143      1.0  0.09235  0.71644  0.43838  1.0000
  C   C144      1.0  0.12606  0.74177  0.67793  1.0000
  C   C145      1.0  0.01210  0.70920  0.95910  1.0000
  C   C146      1.0  0.10823  0.86855  0.50429  1.0000
  S   S54       1.0  0.06041  0.75518  0.24413  1.0000
  C   C147      1.0  0.01042  0.96412  0.68913  1.0000
  S   S55       1.0  0.05033  0.69110  0.44657  1.0000
  C   C148      1.0  0.03671  0.89960  0.77832  1.0000
  C   C149      1.0  0.03611  0.87871  0.74759  1.0000
  C   C150      1.0  0.05761  0.86699  0.73272  1.0000
  C   C151      1.0  0.07971  0.87653  0.74733  1.0000
  C   C152      1.0  0.08021  0.89772  0.77703  1.0000
  C   C153      1.0  0.05882  0.90889  0.79326  1.0000
  H   H169      1.0  0.01910  0.87138  0.73603  1.0000
  H   H170      1.0  0.05710  0.85058  0.70985  1.0000
  H   H171      1.0  0.09712  0.90515  0.78873  1.0000
  H   H172      1.0  0.05945  0.92482  0.81755  1.0000
  C   C154      1.0  0.09336  0.83068  0.24391  1.0000
  C   C155      1.0  0.10338  0.81151  0.21561  1.0000
  C   C156      1.0  0.09262  0.78870  0.21476  1.0000
  C   C157      1.0  0.07227  0.78460  0.24370  1.0000
  C   C158      1.0  0.06220  0.80370  0.27238  1.0000
  C   C159      1.0  0.07259  0.82691  0.27191  1.0000
  H   H173      1.0  0.11944  0.81431  0.19407  1.0000
  H   H174      1.0  0.10047  0.77420  0.19220  1.0000
  H   H175      1.0  0.04646  0.85224  0.43494  1.0000
  H   H176      1.0  0.06493  0.84172  0.29411  1.0000
  C   C160      1.0  0.15116  0.73603  0.06938  1.0000
  C   C161      1.0  0.14726  0.76052  0.08386  1.0000
  C   C162      1.0  0.15891  0.77029  0.12634  1.0000
  C   C163      1.0  0.17496  0.75575  0.15411  1.0000
  C   C164      1.0  0.17849  0.73109  0.14036  1.0000
  C   C165      1.0  0.16647  0.72117  0.09834  1.0000
  H   H177      1.0  0.13546  0.77214  0.06161  1.0000
  H   H178      1.0  0.15595  0.78925  0.13667  1.0000
  H   H179      1.0  0.19084  0.71970  0.16180  1.0000
  H   H180      1.0  0.16963  0.70229  0.08746  1.0000
  C   C166      1.0  0.18238  0.85991  0.45336  1.0000
  C   C167      1.0  0.17929  0.88357  0.43432  1.0000
  C   C168      1.0  0.17407  0.90321  0.46718  1.0000
  C   C169      1.0  0.17165  0.89931  0.51917  1.0000
  C   C170      1.0  0.17431  0.87559  0.53809  1.0000
  C   C171      1.0  0.17988  0.85601  0.50535  1.0000
  H   H181      1.0  0.14384  0.88480  0.18618  1.0000
  H   H182      1.0  0.17200  0.92151  0.45224  1.0000
  H   H183      1.0  0.17223  0.87227  0.57790  1.0000
  H   H184      1.0  0.18218  0.83774  0.52030  1.0000
  C   C172      1.0  0.21862  0.91463  0.18992  1.0000
  C   C173      1.0  0.21104  0.92352  0.23681  1.0000
  C   C174      1.0  0.20961  0.94880  0.24580  1.0000
  C   C175      1.0  0.22359  0.95642  0.16117  1.0000
  C   C176      1.0  0.22489  0.93109  0.15208  1.0000
  H   H185      1.0  0.20669  0.91096  0.26654  1.0000
  H   H186      1.0  0.23811  0.94603  0.88212  1.0000
  H   H187      1.0  0.19949  0.82418  0.96589  1.0000
  H   H188      1.0  0.01950  0.81430  0.53406  1.0000
  C   C177      1.0  0.03212  0.73761  0.13590  1.0000
  C   C178      1.0  0.11092  0.92009  0.16887  1.0000
  C   C179      1.0  0.08109  0.73947  0.10674  1.0000
  C   C180      1.0  0.22597  0.96235  0.88563  1.0000
  H   H189      1.0  0.09402  0.87700  0.62747  1.0000
  C   C181      1.0  0.22304  0.78488  0.07746  1.0000
  C   C182      1.0  0.99891  0.98256  0.81461  1.0000
  C   C183      1.0  0.23710  0.88644  0.56645  1.0000
  H   H190      1.0  0.11438  0.68257  0.70991  1.0000
  H   H191      1.0  0.15197  0.72966  0.59321  1.0000
  H   H192      1.0  0.16159  0.70114  0.62053  1.0000
  H   H193      1.0  0.03525  0.68043  0.08369  1.0000
  H   H194      1.0  0.08741  0.71402  0.02367  1.0000
  S   S56       1.0  0.01041  0.91522  0.79751  1.0000
  Fe  Fe29      1.0  0.02880  0.71665  0.39588  1.0000
  H   H195      1.0  0.22360  0.84693  0.89842  1.0000
  H   H196      1.0  0.13195  0.66885  0.63646  1.0000
  C   C184      1.0  0.18576  0.67765  0.75898  1.0000
  N   N9        1.0  0.12337  0.70632  0.61738  1.0000
  C   C185      1.0  0.12063  0.73708  0.76790  1.0000
  C   C186      1.0  0.19200  0.93627  0.88603  1.0000
  H   H197      1.0  0.11329  0.70074  0.79309  1.0000
  H   H198      1.0  0.12819  0.77122  0.73224  1.0000
  N   N10       1.0  0.14079  0.72990  0.29806  1.0000
  C   C187      1.0  0.13371  0.73845  0.24692  1.0000
  C   C188      1.0  0.16587  0.72060  0.29536  1.0000
  C   C189      1.0  0.12559  0.70908  0.31180  1.0000
  C   C190      1.0  0.13736  0.75014  0.33490  1.0000
  C   C191      1.0  0.11483  0.76234  0.33895  1.0000
  C   C192      1.0  0.15601  0.75866  0.36681  1.0000
  C   C193      1.0  0.11139  0.78237  0.37125  1.0000
  C   C194      1.0  0.15231  0.77855  0.39946  1.0000
  C   C195      1.0  0.13014  0.79053  0.40134  1.0000
  H   H199      1.0  0.14220  0.75617  0.23810  1.0000
  H   H200      1.0  0.13901  0.72516  0.21687  1.0000
  H   H201      1.0  0.11406  0.74117  0.24323  1.0000
  H   H202      1.0  0.16806  0.70588  0.26649  1.0000
  H   H203      1.0  0.17189  0.71259  0.33202  1.0000
  H   H204      1.0  0.17823  0.73540  0.28474  1.0000
  H   H205      1.0  0.10640  0.71449  0.31516  1.0000
  H   H206      1.0  0.12676  0.69410  0.28329  1.0000
  H   H207      1.0  0.13126  0.70115  0.34860  1.0000
  H   H208      1.0  0.09975  0.75661  0.31659  1.0000
  H   H209      1.0  0.17367  0.75038  0.36721  1.0000
  H   H210      1.0  0.09420  0.79180  0.37197  1.0000
  H   H211      1.0  0.16696  0.78517  0.42246  1.0000
  H   H212      1.0  0.12774  0.80642  0.42550  1.0000
  C   C196      1.0  0.14109  0.92753  0.23109  1.0000
  Fe  Fe30      1.0  0.18694  0.67226  0.48684  1.0000
  H   H213      1.0  0.10476  0.71081  0.54634  1.0000
  H   H214      1.0  0.18312  0.78303  0.98035  1.0000
  H   H215      1.0  0.07076  0.79957  0.50746  1.0000
  H   H216      1.0  0.10382  0.90591  0.19462  1.0000
  H   H217      1.0  0.13184  0.94454  0.24446  1.0000
  S   S57       1.0  0.10222  0.68076  0.93881  1.0000
  H   H218      1.0  0.08719  0.71787  0.60101  1.0000
  Fe  Fe31      1.0  0.03314  0.74771  0.30373  1.0000
  H   H219      1.0  0.23326  0.89561  0.52972  1.0000
  C   C197      1.0  0.22301  0.87566  0.84290  1.0000
  H   H220      1.0  0.19861  0.69096  0.77138  1.0000
  H   H221      1.0  0.07283  0.75596  0.08888  1.0000
  C   C198      1.0  0.11853  0.67973  0.61453  1.0000
  S   S58       1.0  0.21076  0.67612  0.67015  1.0000
  C   C199      1.0  0.10545  0.71903  0.58482  1.0000
  Fe  Fe32      1.0  0.13434  0.68560  0.98928  1.0000
  H   H222      1.0  0.10065  0.69604  0.10657  1.0000
  N   N11       1.0  0.20390  0.95656  0.91327  1.0000
  H   H223      1.0  0.08174  0.74225  0.14831  1.0000
  H   H224      1.0  0.22865  0.77332  0.10852  1.0000
  H   H225      1.0  0.09994  0.73854  0.09355  1.0000
  H   H226      1.0  0.19831  0.75789  0.05102  1.0000
  H   H227      1.0  0.01169  0.95010  0.71765  1.0000
  C   C200      1.0  0.06873  0.71412  0.03789  1.0000
  H   H228      1.0  0.10637  0.91387  0.13010  1.0000
  H   H229      1.0  0.22779  0.93484  0.64468  1.0000
  H   H230      1.0  0.05082  0.93188  0.62341  1.0000
  S   S59       1.0  0.22347  0.91277  0.77234  1.0000
  H   H231      1.0  0.07238  0.92617  0.67288  1.0000
  H   H232      1.0  0.22028  0.92927  0.96215  1.0000
  C   C201      1.0  0.19697  0.79004  0.00499  1.0000
  C   C202      1.0  0.12139  0.67596  0.46384  1.0000
  H   H233      1.0  0.18985  0.94014  0.84502  1.0000
  C   C203      1.0  0.23282  0.80838  0.07055  1.0000
  C   C204      1.0  0.20551  0.77589  0.04492  1.0000
  N   N12       1.0  0.24454  0.90437  0.60545  1.0000
  H   H234      1.0  0.10944  0.73864  0.57943  1.0000
  H   H235      1.0  0.16934  0.90192  0.16708  1.0000
  H   H236      1.0  0.20378  0.95563  0.28222  1.0000
  C   C205      1.0  0.08136  0.69606  0.11677  1.0000
  C   C206      1.0  0.05487  0.93515  0.66402  1.0000
  H   H237      1.0  0.12496  0.88766  0.56583  1.0000
  H   H238      1.0  0.03038  0.71287  0.94881  1.0000
  H   H239      1.0  0.02895  0.86492  0.48568  1.0000
  H   H240      1.0  0.23014  0.84037  0.02071  1.0000
  C   C207      1.0  0.06021  0.96486  0.73045  1.0000
  H   H241      1.0  0.04642  0.80061  0.29468  1.0000
  C   C208      1.0  0.21590  0.96529  0.20809  1.0000
  C   C209      1.0  0.03399  0.82630  0.54772  1.0000
  H   H242      1.0  0.22057  0.87691  0.57764  1.0000
  C   C210      1.0  0.14912  0.96148  0.05954  1.0000
  C   C211      1.0  0.23572  0.89464  0.82126  1.0000
  H   H243      1.0  0.23623  0.97688  0.90507  1.0000
  H   H244      1.0  0.02483  0.84253  0.56501  1.0000
  H   H245      1.0  0.12013  0.74486  0.80561  1.0000
  H   H246      1.0  0.12202  0.87323  0.47752  1.0000
  S   S60       1.0  0.03910  0.75572  0.38577  1.0000
  H   H247      1.0  0.02976  0.96503  0.84796  1.0000
  C   C212      1.0  0.03593  0.84752  0.46885  1.0000
  S   S61       1.0  0.22120  0.68386  0.52438  1.0000
  C   C213      1.0  0.05883  0.81026  0.48164  1.0000
  H   H248      1.0  0.00798  0.68158  0.90187  1.0000
  H   H249      1.0  0.08808  0.84903  0.44972  1.0000
  H   H250      1.0  0.16047  0.92870  0.24015  1.0000
  C   C214      1.0  0.22381  0.82233  0.02920  1.0000
  H   H251      1.0  0.18140  0.88684  0.39445  1.0000
  H   H252      1.0  0.11944  0.67271  0.57499  1.0000
  C   C215      1.0  0.07467  0.97282  0.64760  1.0000
  H   H253      1.0  0.13301  0.92725  0.07318  1.0000
  C   C216      1.0  0.03102  0.97250  0.66405  1.0000
  H   H254      1.0  0.07279  0.96985  0.60620  1.0000
  H   H255      1.0  0.04369  0.81588  0.57770  1.0000
  C   C217      1.0  0.14172  0.94257  0.09084  1.0000
  H   H256      1.0  0.06875  0.81358  0.44625  1.0000
  C   C218      1.0  0.08882  0.85452  0.48895  1.0000
  N   N13       1.0  0.05020  0.83325  0.50614  1.0000
  C   C219      1.0  0.04292  0.71720  0.11085  1.0000
  H   H257      1.0  0.14924  0.70227  0.55764  1.0000
  C   C220      1.0  0.99525  0.71590  0.14690  1.0000
  H   H258      1.0  0.14622  0.89470  0.12259  1.0000
  H   H259      1.0  0.04698  0.95588  0.75481  1.0000
  S   S62       1.0  0.02533  0.70795  0.31320  1.0000
  H   H260      1.0  0.02029  0.83710  0.45492  1.0000
  H   H261      1.0  0.13421  0.91223  0.25426  1.0000
  C   C221      1.0  0.12224  0.71649  0.66927  1.0000
  C   C222      1.0  0.10998  0.87669  0.55404  1.0000
  H   H262      1.0  0.10034  0.67562  0.62852  1.0000
  H   H263      1.0  0.04369  0.79834  0.47053  1.0000
  C   C223      1.0  0.07069  0.84794  0.52340  1.0000
  C   C224      1.0  0.11729  0.71856  0.44130  1.0000
  H   H264      1.0  0.13689  0.98928  0.67833  1.0000
  H   H265      1.0  0.05891  0.72939  0.01898  1.0000
  C   C225      1.0  0.07303  0.85667  0.57389  1.0000
  C   C226      1.0  0.14754  0.71004  0.59642  1.0000
  C   C227      1.0  0.14965  0.90025  0.16230  1.0000
  C   C228      1.0  0.00876  0.73674  0.15411  1.0000
  N   N14       1.0  0.05485  0.96169  0.67598  1.0000
  N   N15       1.0  0.13699  0.92333  0.17627  1.0000
  C   C229      1.0  0.13196  0.69823  0.45258  1.0000
  S   S63       1.0  0.16332  0.70116  0.44977  1.0000
  H   H266      1.0  0.23771  0.79944  0.17193  1.0000
  H   H267      1.0  0.09234  0.96473  0.65865  1.0000
  H   H268      1.0  0.04143  0.92519  0.68630  1.0000
  H   H269      1.0  0.07460  0.67805  0.10409  1.0000
  H   H270      1.0  0.04156  0.75428  0.14336  1.0000
  H   H271      1.0  0.07788  0.95653  0.74082  1.0000
  H   H272      1.0  0.20277  0.91896  0.88756  1.0000
  H   H273      1.0  0.10084  0.93746  0.17637  1.0000
  H   H274      1.0  0.06017  0.85287  0.60294  1.0000
  C   C230      1.0  0.20612  0.81319  0.99709  1.0000
  C   C231      1.0  0.21069  0.94730  0.96420  1.0000
  H   H275      1.0  0.22336  0.95944  0.98425  1.0000
  C   C232      1.0  0.09245  0.87076  0.58867  1.0000
  S   S64       1.0  0.12251  0.97478  0.77875  1.0000
  H   H276      1.0  0.22547  0.82935  0.15981  1.0000
  H   H277      1.0  0.17419  0.93249  0.90232  1.0000
  C   C233      1.0  0.14538  0.94342  0.14395  1.0000
  C   C234      1.0  0.02237  0.98186  0.83219  1.0000
  C   C235      1.0  0.12521  0.75185  0.72654  1.0000
  H   H278      1.0  0.12984  0.75394  0.64712  1.0000
  Fe  Fe33      1.0  0.99960  0.76434  0.38917  1.0000
  C   C236      1.0  0.16689  0.67140  0.79099  1.0000
  H   H279      1.0  0.06086  0.69666  0.02491  1.0000
  C   C237      1.0  0.11747  0.70197  0.71232  1.0000
  C   C238      1.0  0.11674  0.71224  0.76076  1.0000
  H   H280      1.0  0.23071  0.92428  0.11567  1.0000
  C   C239      1.0  0.09633  0.67401  0.46247  1.0000
  C   C240      1.0  0.18763  0.66727  0.71060  1.0000
  C   C241      1.0  0.02844  0.69648  0.10314  1.0000
  H   H281      1.0  0.16347  0.97048  0.85544  1.0000
  H   H282      1.0  0.22836  0.96908  0.13182  1.0000
  C   C242      1.0  0.00498  0.69589  0.12088  1.0000
  H   H283      1.0  0.22181  0.96876  0.84671  1.0000
  H   H284      1.0  0.21902  0.93161  0.57873  1.0000
  C   C243      1.0  0.18864  0.97898  0.91691  1.0000
  C   C244      1.0  0.22404  0.92154  0.61381  1.0000
  C   C245      1.0  0.99945  0.69165  0.93248  1.0000
  H   H285      1.0  0.06063  0.98456  0.74100  1.0000
  C   C246      1.0  0.16866  0.98330  0.88446  1.0000
  C   C247      1.0  0.00117  0.72199  0.99860  1.0000
  C   C248      1.0  0.16464  0.98294  0.13188  1.0000
  C   C249      1.0  0.24210  0.81790  0.15773  1.0000
  C   C250      1.0  0.23339  0.86177  0.88214  1.0000
  H   H286      1.0  0.01099  0.73578  0.01910  1.0000
  H   H287      1.0  0.23257  0.88313  0.66884  1.0000
  C   C251      1.0  0.02730  0.99074  0.62652  1.0000
  C   C252      1.0  0.16051  0.98166  0.08009  1.0000
  H   H288      1.0  0.00132  0.75218  0.17502  1.0000
  H   H289      1.0  0.07584  0.99280  0.65548  1.0000
  H   H290      1.0  0.24299  0.73892  0.46709  1.0000
  H   H291      1.0  0.24461  0.85605  0.09577  1.0000
  H   H292      1.0  0.24445  0.75834  0.98598  1.0000
  Fe  Fe34      1.0  0.47481  0.21561  0.82565  1.0000
  S   S65       1.0  0.47569  0.22575  0.90924  1.0000
  S   S66       1.0  0.45736  0.18181  0.78921  1.0000
  H   H293      1.0  0.27780  0.12711  0.16207  1.0000
  H   H294      1.0  0.44930  0.28825  0.10462  1.0000
  C   C253      1.0  0.46706  0.01913  0.43145  1.0000
  H   H295      1.0  0.41354  0.28588  0.93807  1.0000
  C   C254      1.0  0.39463  0.23599  0.00048  1.0000
  S   S67       1.0  0.46143  0.29981  0.92106  1.0000
  H   H296      1.0  0.48898  0.19832  0.69727  1.0000
  S   S68       1.0  0.47283  0.25512  0.80205  1.0000
  Fe  Fe35      1.0  0.42947  0.09539  0.43812  1.0000
  S   S69       1.0  0.43678  0.09136  0.52059  1.0000
  S   S70       1.0  0.46097  0.10063  0.38744  1.0000
  Fe  Fe36      1.0  0.37633  0.08447  0.44730  1.0000
  S   S71       1.0  0.37982  0.08069  0.53267  1.0000
  S   S72       1.0  0.34168  0.07200  0.40749  1.0000
  Fe  Fe37      1.0  0.40354  0.11402  0.53166  1.0000
  S   S73       1.0  0.40600  0.14855  0.58241  1.0000
  Fe  Fe38      1.0  0.41327  0.05883  0.51523  1.0000
  S   S74       1.0  0.42889  0.02355  0.54633  1.0000
  S   S75       1.0  0.39702  0.11968  0.44760  1.0000
  S   S76       1.0  0.40878  0.06098  0.43152  1.0000
  H   H297      1.0  0.38805  0.20104  0.96845  1.0000
  H   H298      1.0  0.36935  0.03210  0.36228  1.0000
  S   S77       1.0  0.29969  0.07533  0.18097  1.0000
  H   H299      1.0  0.30565  0.00598  0.03864  1.0000
  H   H300      1.0  0.34696  0.99841  0.13935  1.0000
  S   S78       1.0  0.26741  0.01576  0.13838  1.0000
  H   H301      1.0  0.39373  0.00997  0.42103  1.0000
  C   C255      1.0  0.37009  0.01616  0.33586  1.0000
  C   C256      1.0  0.33121  0.07205  0.34347  1.0000
  C   C257      1.0  0.34280  0.08449  0.30492  1.0000
  C   C258      1.0  0.33317  0.08483  0.25542  1.0000
  C   C259      1.0  0.31199  0.07253  0.24334  1.0000
  C   C260      1.0  0.30075  0.05951  0.28157  1.0000
  C   C261      1.0  0.31022  0.05941  0.33120  1.0000
  H   H302      1.0  0.35893  0.09432  0.31347  1.0000
  H   H303      1.0  0.34210  0.09499  0.22637  1.0000
  H   H304      1.0  0.28448  0.04991  0.27321  1.0000
  H   H305      1.0  0.30104  0.04970  0.36056  1.0000
  H   H306      1.0  0.32910  0.02290  0.20884  1.0000
  H   H307      1.0  0.28421  0.13273  0.29810  1.0000
  S   S79       1.0  0.25758  0.06177  0.05941  1.0000
  H   H308      1.0  0.28990  0.11846  0.23940  1.0000
  C   C262      1.0  0.40174  0.25989  0.99238  1.0000
  H   H309      1.0  0.38565  0.01912  0.31083  1.0000
  H   H310      1.0  0.34953  0.00710  0.42238  1.0000
  H   H311      1.0  0.40246  0.27284  0.02353  1.0000
  H   H312      1.0  0.47895  0.19043  0.60348  1.0000
  H   H313      1.0  0.35333  0.01727  0.31311  1.0000
  H   H314      1.0  0.38972  0.23038  0.03817  1.0000
  C   C263      1.0  0.45842  0.30942  0.98536  1.0000
  H   H315      1.0  0.47527  0.03489  0.59615  1.0000
  H   H316      1.0  0.45587  0.27340  0.01665  1.0000
  C   C264      1.0  0.38745  0.99863  0.52716  1.0000
  Fe  Fe39      1.0  0.25411  0.02096  0.05903  1.0000
  C   C265      1.0  0.45570  0.29279  0.02480  1.0000
  C   C266      1.0  0.45179  0.30130  0.07465  1.0000
  C   C267      1.0  0.45073  0.32652  0.08606  1.0000
  C   C268      1.0  0.27798  0.13218  0.25809  1.0000
  C   C269      1.0  0.44516  0.17310  0.72906  1.0000
  C   C270      1.0  0.43662  0.19022  0.69382  1.0000
  C   C271      1.0  0.42519  0.18233  0.64892  1.0000
  C   C272      1.0  0.42255  0.15726  0.63770  1.0000
  C   C273      1.0  0.43188  0.14017  0.67214  1.0000
  C   C274      1.0  0.44281  0.14806  0.71760  1.0000
  H   H317      1.0  0.43806  0.20954  0.70181  1.0000
  H   H318      1.0  0.41797  0.19578  0.62287  1.0000
  H   H319      1.0  0.42985  0.12086  0.66465  1.0000
  H   H320      1.0  0.44916  0.13456  0.74447  1.0000
  Fe  Fe40      1.0  0.47773  0.26514  0.88501  1.0000
  C   C275      1.0  0.24985  0.10060  0.27418  1.0000
  C   C276      1.0  0.48284  0.11784  0.41831  1.0000
  H   H321      1.0  0.45890  0.13207  0.47512  1.0000
  H   H322      1.0  0.46606  0.04733  0.37508  1.0000
  N   N16       1.0  0.39931  0.20807  0.86875  1.0000
  H   H323      1.0  0.37265  0.18721  0.82932  1.0000
  C   C277      1.0  0.40757  0.21777  0.81968  1.0000
  C   C278      1.0  0.41447  0.18628  0.88089  1.0000
  C   C279      1.0  0.40045  0.22608  0.91065  1.0000
  C   C280      1.0  0.40806  0.26720  0.94413  1.0000
  C   C281      1.0  0.47718  0.13085  0.46233  1.0000
  H   H324      1.0  0.37829  0.01623  0.52873  1.0000
  C   C282      1.0  0.37431  0.20020  0.86167  1.0000
  H   H325      1.0  0.40819  0.17625  0.91443  1.0000
  S   S80       1.0  0.26007  0.99603  0.99256  1.0000
  H   H326      1.0  0.36737  0.19069  0.89536  1.0000
  H   H327      1.0  0.39622  0.23346  0.80662  1.0000
  H   H328      1.0  0.40698  0.20365  0.78920  1.0000
  H   H329      1.0  0.42648  0.22359  0.82202  1.0000
  C   C283      1.0  0.40767  0.25064  0.90376  1.0000
  H   H330      1.0  0.41488  0.17280  0.84916  1.0000
  H   H331      1.0  0.43330  0.19154  0.88827  1.0000
  H   H332      1.0  0.41324  0.25761  0.86772  1.0000
  N   N17       1.0  0.25241  0.12557  0.25376  1.0000
  H   H333      1.0  0.36220  0.21619  0.85405  1.0000
  H   H334      1.0  0.44966  0.02416  0.44646  1.0000
  Fe  Fe41      1.0  0.26766  0.05683  0.14248  1.0000
  C   C284      1.0  0.39385  0.21932  0.96030  1.0000
  H   H335      1.0  0.28123  0.15041  0.24128  1.0000
  H   H336      1.0  0.25931  0.08692  0.24985  1.0000
  C   C285      1.0  0.48035  0.99999  0.45320  1.0000
  H   H337      1.0  0.49065  0.15190  0.52465  1.0000
  H   H338      1.0  0.48449  0.99753  0.64250  1.0000
  H   H339      1.0  0.25747  0.09890  0.31296  1.0000
  C   C286      1.0  0.47628  0.03220  0.39130  1.0000
  H   H340      1.0  0.49001  0.21985  0.58727  1.0000
  C   C287      1.0  0.25859  0.12670  0.15854  1.0000
  H   H341      1.0  0.24641  0.14461  0.32452  1.0000
  H   H342      1.0  0.47380  0.07589  0.59686  1.0000
  H   H343      1.0  0.26146  0.12634  0.07740  1.0000
  C   C288      1.0  0.24943  0.12612  0.10932  1.0000
  H   H344      1.0  0.47590  0.05275  0.51692  1.0000
  C   C289      1.0  0.32414  0.00397  0.20348  1.0000
  H   H345      1.0  0.29914  0.00458  0.26460  1.0000
  H   H346      1.0  0.48714  0.10170  0.56900  1.0000
  C   C290      1.0  0.41217  0.99713  0.53492  1.0000
  C   C291      1.0  0.49134  0.08396  0.58800  1.0000
  C   C292      1.0  0.49312  0.06175  0.50905  1.0000
  H   H347      1.0  0.48862  0.07846  0.48679  1.0000
  C   C293      1.0  0.49391  0.02991  0.60181  1.0000
  C   C294      1.0  0.26425  0.60161  0.33307  1.0000
  S   S81       1.0  0.27533  0.63967  0.47055  1.0000
  S   S82       1.0  0.26732  0.49737  0.64765  1.0000
  S   S83       1.0  0.33488  0.64122  0.65405  1.0000
  H   H348      1.0  0.34144  0.62992  0.35107  1.0000
  H   H349      1.0  0.24558  0.63615  0.81024  1.0000
  S   S84       1.0  0.25440  0.50037  0.49903  1.0000
  H   H350      1.0  0.34587  0.65351  0.06391  1.0000
  Fe  Fe42      1.0  0.35925  0.63733  0.23102  1.0000
  S   S85       1.0  0.35068  0.60134  0.19430  1.0000
  S   S86       1.0  0.24531  0.43571  0.69881  1.0000
  Fe  Fe43      1.0  0.41136  0.63420  0.19613  1.0000
  S   S87       1.0  0.40656  0.59773  0.15900  1.0000
  C   C295      1.0  0.25941  0.54406  0.38696  1.0000
  Fe  Fe44      1.0  0.37240  0.61396  0.12906  1.0000
  S   S88       1.0  0.36597  0.60453  0.04735  1.0000
  Fe  Fe45      1.0  0.38557  0.58821  0.22752  1.0000
  S   S89       1.0  0.38474  0.55081  0.26387  1.0000
  S   S90       1.0  0.37819  0.65105  0.16196  1.0000
  S   S91       1.0  0.39312  0.62358  0.26852  1.0000
  Fe  Fe46      1.0  0.27628  0.48973  0.56669  1.0000
  H   H351      1.0  0.45280  0.36255  0.05452  1.0000
  Fe  Fe47      1.0  0.32030  0.45830  0.58858  1.0000
  S   S92       1.0  0.31447  0.46202  0.67319  1.0000
  S   S93       1.0  0.35486  0.44260  0.55267  1.0000
  Fe  Fe48      1.0  0.27489  0.45729  0.65938  1.0000
  C   C296      1.0  0.27313  0.64856  0.69956  1.0000
  Fe  Fe49      1.0  0.30684  0.50179  0.65698  1.0000
  S   S94       1.0  0.32226  0.52975  0.71019  1.0000
  S   S95       1.0  0.28159  0.44937  0.57636  1.0000
  S   S96       1.0  0.31493  0.49851  0.57451  1.0000
  Fe  Fe50      1.0  0.44414  0.37276  0.19335  1.0000
  Fe  Fe51      1.0  0.44569  0.42863  0.20427  1.0000
  S   S97       1.0  0.44793  0.42803  0.28858  1.0000
  S   S98       1.0  0.44821  0.46558  0.16700  1.0000
  Fe  Fe52      1.0  0.47383  0.39663  0.27644  1.0000
  H   H352      1.0  0.41962  0.65825  0.91412  1.0000
  Fe  Fe53      1.0  0.41909  0.40028  0.28403  1.0000
  S   S99       1.0  0.38545  0.40194  0.33405  1.0000
  S   S100      1.0  0.47423  0.39954  0.19230  1.0000
  S   S101      1.0  0.41527  0.40236  0.19893  1.0000
  C   C297      1.0  0.36234  0.43349  0.48971  1.0000
  C   C298      1.0  0.34575  0.42300  0.45678  1.0000
  C   C299      1.0  0.35309  0.41395  0.40907  1.0000
  C   C300      1.0  0.37691  0.41581  0.39283  1.0000
  C   C301      1.0  0.39317  0.42757  0.42465  1.0000
  C   C302      1.0  0.38609  0.43575  0.47314  1.0000
  H   H353      1.0  0.32748  0.42092  0.46885  1.0000
  H   H354      1.0  0.34025  0.40499  0.38492  1.0000
  H   H355      1.0  0.41135  0.42979  0.41255  1.0000
  H   H356      1.0  0.39913  0.44377  0.49818  1.0000
  C   C303      1.0  0.40344  0.52747  0.23869  1.0000
  C   C304      1.0  0.42220  0.53277  0.20612  1.0000
  C   C305      1.0  0.43605  0.51370  0.18464  1.0000
  C   C306      1.0  0.43154  0.48924  0.19644  1.0000
  C   C307      1.0  0.41317  0.48397  0.22998  1.0000
  C   C308      1.0  0.39910  0.50301  0.25075  1.0000
  H   H357      1.0  0.42609  0.55154  0.19748  1.0000
  H   H358      1.0  0.45030  0.51789  0.15886  1.0000
  H   H359      1.0  0.40943  0.46515  0.23896  1.0000
  H   H360      1.0  0.38452  0.49866  0.27535  1.0000
  C   C309      1.0  0.34788  0.64061  0.91969  1.0000
  C   C310      1.0  0.46979  0.63409  0.25897  1.0000
  H   H361      1.0  0.45253  0.62951  0.27396  1.0000
  N   N18       1.0  0.45216  0.37293  0.43964  1.0000
  H   H362      1.0  0.32549  0.57778  0.28326  1.0000
  C   C311      1.0  0.27586  0.58195  0.35894  1.0000
  C   C312      1.0  0.35527  0.62733  0.00600  1.0000
  C   C313      1.0  0.35575  0.62268  0.95396  1.0000
  H   H363      1.0  0.45021  0.41126  0.42223  1.0000
  H   H364      1.0  0.36231  0.60518  0.94002  1.0000
  C   C314      1.0  0.45109  0.34931  0.41187  1.0000
  C   C315      1.0  0.33297  0.60968  0.66696  1.0000
  C   C316      1.0  0.31921  0.59463  0.63551  1.0000
  C   C317      1.0  0.31628  0.56978  0.64733  1.0000
  C   C318      1.0  0.32695  0.56002  0.69091  1.0000
  C   C319      1.0  0.34086  0.57503  0.72181  1.0000
  C   C320      1.0  0.34407  0.59964  0.70962  1.0000
  H   H365      1.0  0.31045  0.60229  0.60252  1.0000
  H   H366      1.0  0.30529  0.55836  0.62361  1.0000
  H   H367      1.0  0.34923  0.56755  0.75542  1.0000
  H   H368      1.0  0.35499  0.61084  0.73363  1.0000
  S   S102      1.0  0.44530  0.33602  0.14977  1.0000
  H   H369      1.0  0.37125  0.37262  0.48148  1.0000
  C   C321      1.0  0.28963  0.64563  0.41251  1.0000
  H   H370      1.0  0.43740  0.62986  0.03685  1.0000
  C   C322      1.0  0.28179  0.56869  0.44581  1.0000
  H   H371      1.0  0.28849  0.61979  0.80847  1.0000
  C   C323      1.0  0.32439  0.63888  0.35815  1.0000
  C   C324      1.0  0.30827  0.58424  0.29706  1.0000
  H   H372      1.0  0.27168  0.54852  0.72065  1.0000
  S   S103      1.0  0.44531  0.36841  0.27838  1.0000
  C   C325      1.0  0.44955  0.39315  0.40301  1.0000
  C   C326      1.0  0.27089  0.58739  0.73454  1.0000
  C   C327      1.0  0.47131  0.64560  0.21213  1.0000
  C   C328      1.0  0.34657  0.64991  0.02376  1.0000
  H   H373      1.0  0.39327  0.65816  0.95154  1.0000
  H   H374      1.0  0.28838  0.58605  0.75189  1.0000
  C   C329      1.0  0.45372  0.34313  0.04667  1.0000
  H   H375      1.0  0.49069  0.37214  0.43361  1.0000
  H   H376      1.0  0.48749  0.51364  0.22646  1.0000
  C   C330      1.0  0.43251  0.37497  0.47673  1.0000
  H   H377      1.0  0.24749  0.54385  0.35316  1.0000
  C   C331      1.0  0.27440  0.61197  0.29034  1.0000
  C   C332      1.0  0.31485  0.65521  0.32259  1.0000
  C   C333      1.0  0.25829  0.61004  0.72859  1.0000
  S   S104      1.0  0.44544  0.65364  0.17733  1.0000
  H   H378      1.0  0.26550  0.62723  0.27161  1.0000
  C   C334      1.0  0.39371  0.38192  0.54433  1.0000
  H   H379      1.0  0.26090  0.45831  0.79440  1.0000
  H   H380      1.0  0.25660  0.65331  0.67808  1.0000
  N   N19       1.0  0.36213  0.50986  0.40186  1.0000
  C   C335      1.0  0.38779  0.50927  0.38818  1.0000
  C   C336      1.0  0.35743  0.48761  0.43185  1.0000
  C   C337      1.0  0.34756  0.50827  0.35499  1.0000
  C   C338      1.0  0.35646  0.53297  0.42909  1.0000
  C   C339      1.0  0.34980  0.53369  0.48082  1.0000
  C   C340      1.0  0.35824  0.55579  0.40423  1.0000
  C   C341      1.0  0.34460  0.55584  0.50542  1.0000
  C   C342      1.0  0.35306  0.57784  0.42917  1.0000
  C   C343      1.0  0.34615  0.57787  0.47963  1.0000
  H   H381      1.0  0.39932  0.51118  0.42230  1.0000
  H   H382      1.0  0.39305  0.49178  0.36908  1.0000
  H   H383      1.0  0.39237  0.52426  0.36187  1.0000
  H   H384      1.0  0.36918  0.48631  0.46586  1.0000
  H   H385      1.0  0.36095  0.47059  0.40961  1.0000
  H   H386      1.0  0.33848  0.48694  0.44427  1.0000
  H   H387      1.0  0.35198  0.52263  0.32720  1.0000
  H   H388      1.0  0.35060  0.49049  0.33502  1.0000
  H   H389      1.0  0.32816  0.50993  0.36355  1.0000
  H   H390      1.0  0.34886  0.51739  0.50345  1.0000
  H   H391      1.0  0.36413  0.55680  0.36547  1.0000
  H   H392      1.0  0.33972  0.55592  0.54507  1.0000
  H   H393      1.0  0.35484  0.59500  0.40938  1.0000
  H   H394      1.0  0.34236  0.59500  0.49914  1.0000
  N   N20       1.0  0.37850  0.52522  0.07122  1.0000
  C   C344      1.0  0.38529  0.50282  0.09988  1.0000
  C   C345      1.0  0.39945  0.54136  0.07078  1.0000
  C   C346      1.0  0.35887  0.53776  0.09936  1.0000
  C   C347      1.0  0.37094  0.52020  0.01853  1.0000
  C   C348      1.0  0.37269  0.49654  0.99605  1.0000
  C   C349      1.0  0.36219  0.53949  0.98739  1.0000
  C   C350      1.0  0.36562  0.49257  0.94594  1.0000
  C   C351      1.0  0.35521  0.53532  0.93738  1.0000
  C   C352      1.0  0.35685  0.51190  0.91672  1.0000
  H   H395      1.0  0.40160  0.49359  0.08430  1.0000
  H   H396      1.0  0.38960  0.50708  0.13993  1.0000
  H   H397      1.0  0.37047  0.48957  0.10066  1.0000
  H   H398      1.0  0.39526  0.55933  0.05299  1.0000
  H   H399      1.0  0.41458  0.53276  0.04963  1.0000
  H   H400      1.0  0.40589  0.54541  0.10966  1.0000
  H   H401      1.0  0.35441  0.55620  0.08415  1.0000
  H   H402      1.0  0.34229  0.52687  0.09814  1.0000
  H   H403      1.0  0.36373  0.54083  0.13978  1.0000
  H   H404      1.0  0.37956  0.48078  0.01623  1.0000
  H   H405      1.0  0.36084  0.55805  0.00133  1.0000
  H   H406      1.0  0.36704  0.47440  0.92951  1.0000
  H   H407      1.0  0.34857  0.55040  0.91446  1.0000
  H   H408      1.0  0.35145  0.50876  0.87784  1.0000
  H   H409      1.0  0.47941  0.39265  0.48013  1.0000
  H   H410      1.0  0.43490  0.34799  0.38759  1.0000
  H   H411      1.0  0.31955  0.62196  0.43066  1.0000
  N   N21       1.0  0.26497  0.56943  0.40226  1.0000
  C   C353      1.0  0.47639  0.37443  0.46258  1.0000
  C   C354      1.0  0.38948  0.37467  0.49472  1.0000
  C   C355      1.0  0.45729  0.33461  0.99671  1.0000
  H   H412      1.0  0.48938  0.62053  0.32378  1.0000
  H   H413      1.0  0.45378  0.38547  0.54317  1.0000
  H   H414      1.0  0.41087  0.62593  0.00058  1.0000
  H   H415      1.0  0.46649  0.34677  0.38572  1.0000
  C   C356      1.0  0.29079  0.63128  0.77436  1.0000
  H   H416      1.0  0.37881  0.38544  0.56953  1.0000
  C   C357      1.0  0.41704  0.38547  0.56095  1.0000
  H   H417      1.0  0.47940  0.35994  0.49139  1.0000
  C   C358      1.0  0.40849  0.37141  0.46122  1.0000
  S   S105      1.0  0.36769  0.65310  0.78736  1.0000
  H   H418      1.0  0.24903  0.37123  0.00890  1.0000
  H   H419      1.0  0.40402  0.36717  0.42242  1.0000
  H   H420      1.0  0.46405  0.39259  0.37458  1.0000
  H   H421      1.0  0.28732  0.58748  0.45658  1.0000
  H   H422      1.0  0.43236  0.39242  0.38183  1.0000
  H   H423      1.0  0.42014  0.39142  0.59951  1.0000
  C   C359      1.0  0.25077  0.64729  0.77718  1.0000
  H   H424      1.0  0.30543  0.62325  0.75112  1.0000
  C   C360      1.0  0.31193  0.63435  0.40307  1.0000
  H   H425      1.0  0.27355  0.56034  0.47965  1.0000
  H   H426      1.0  0.45901  0.34771  0.96654  1.0000
  H   H427      1.0  0.34806  0.63668  0.87976  1.0000
  C   C361      1.0  0.42857  0.63495  0.00056  1.0000
  H   H428      1.0  0.27572  0.53303  0.37798  1.0000
  C   C362      1.0  0.29631  0.60335  0.27242  1.0000
  C   C363      1.0  0.43625  0.38203  0.52790  1.0000
  N   N22       1.0  0.26820  0.63376  0.74491  1.0000
  H   H429      1.0  0.25130  0.54099  0.56976  1.0000
  H   H430      1.0  0.30422  0.61200  0.24001  1.0000
  C   C364      1.0  0.49066  0.62907  0.28718  1.0000
  H   H431      1.0  0.29817  0.55761  0.43815  1.0000
  C   C365      1.0  0.29818  0.57356  0.33953  1.0000
  H   H432      1.0  0.28510  0.63834  0.67308  1.0000
  H   H433      1.0  0.30657  0.66159  0.55353  1.0000
  H   H434      1.0  0.33861  0.66037  0.55223  1.0000
  H   H435      1.0  0.30790  0.55855  0.35683  1.0000
  H   H436      1.0  0.43930  0.62673  0.96929  1.0000
  C   C366      1.0  0.26144  0.56549  0.71654  1.0000
  H   H437      1.0  0.29737  0.64933  0.78764  1.0000
  H   H438      1.0  0.45118  0.33361  0.43843  1.0000
  H   H439      1.0  0.25019  0.53418  0.41739  1.0000
  H   H440      1.0  0.24744  0.60954  0.34528  1.0000
  C   C367      1.0  0.49378  0.65154  0.19312  1.0000
  H   H441      1.0  0.24547  0.60072  0.43163  1.0000
  C   C368      1.0  0.27995  0.66182  0.37684  1.0000
  S   S106      1.0  0.33009  0.66175  0.26585  1.0000
  H   H442      1.0  0.46106  0.66075  0.06772  1.0000
  N   N23       1.0  0.42597  0.66182  0.99453  1.0000
  Fe  Fe54      1.0  0.35885  0.84013  0.97729  1.0000
  S   S107      1.0  0.32637  0.82420  0.01365  1.0000
  S   S108      1.0  0.38371  0.81348  0.93630  1.0000
  Fe  Fe55      1.0  0.34436  0.89144  0.00860  1.0000
  S   S109      1.0  0.31100  0.87966  0.04666  1.0000
  S   S110      1.0  0.35333  0.93093  0.01761  1.0000
  Fe  Fe56      1.0  0.33405  0.84955  0.07830  1.0000
  S   S111      1.0  0.32748  0.84074  0.16040  1.0000
  Fe  Fe57      1.0  0.30614  0.85578  0.97875  1.0000
  S   S112      1.0  0.26890  0.84879  0.94892  1.0000
  S   S113      1.0  0.36807  0.86303  0.04494  1.0000
  S   S114      1.0  0.33786  0.86993  0.93729  1.0000
  Fe  Fe58      1.0  0.41076  0.86733  0.39061  1.0000
  S   S115      1.0  0.37663  0.86481  0.43341  1.0000
  S   S116      1.0  0.41391  0.86601  0.30597  1.0000
  Fe  Fe59      1.0  0.44110  0.87011  0.48638  1.0000
  S   S117      1.0  0.40916  0.86780  0.53717  1.0000
  H   H443      1.0  0.31134  0.69220  0.62249  1.0000
  Fe  Fe60      1.0  0.39690  0.83848  0.48369  1.0000
  S   S118      1.0  0.38569  0.79942  0.49708  1.0000
  Fe  Fe61      1.0  0.39222  0.89439  0.48228  1.0000
  S   S119      1.0  0.36983  0.92804  0.50120  1.0000
  S   S120      1.0  0.43013  0.83906  0.43689  1.0000
  S   S121      1.0  0.42509  0.89878  0.43551  1.0000
  S   S122      1.0  0.37746  0.71141  0.80919  1.0000
  C   C369      1.0  0.42382  0.97419  0.53374  1.0000
  Fe  Fe62      1.0  0.36165  0.71921  0.73296  1.0000
  S   S123      1.0  0.35801  0.75934  0.71302  1.0000
  C   C370      1.0  0.33411  0.99020  0.16429  1.0000
  H   H444      1.0  0.39297  0.81927  0.74712  1.0000
  H   H445      1.0  0.33154  0.68516  0.00325  1.0000
  H   H446      1.0  0.38971  0.80755  0.27187  1.0000
  C   C371      1.0  0.44509  0.71078  0.73579  1.0000
  H   H447      1.0  0.45470  0.83658  0.79115  1.0000
  C   C372      1.0  0.45232  0.69630  0.77667  1.0000
  H   H448      1.0  0.25143  0.74297  0.55838  1.0000
  C   C373      1.0  0.26615  0.78345  0.94524  1.0000
  C   C374      1.0  0.37923  0.78871  0.55812  1.0000
  C   C375      1.0  0.37336  0.80477  0.59755  1.0000
  C   C376      1.0  0.36698  0.79550  0.64493  1.0000
  C   C377      1.0  0.36686  0.77018  0.65347  1.0000
  C   C378      1.0  0.37336  0.75413  0.61444  1.0000
  C   C379      1.0  0.37932  0.76339  0.56679  1.0000
  H   H449      1.0  0.37326  0.82430  0.59123  1.0000
  H   H450      1.0  0.36192  0.80802  0.67491  1.0000
  H   H451      1.0  0.37359  0.73463  0.62081  1.0000
  H   H452      1.0  0.38413  0.75092  0.53656  1.0000
  C   C380      1.0  0.41096  0.95291  0.52347  1.0000
  C   C381      1.0  0.38624  0.95437  0.51581  1.0000
  C   C382      1.0  0.37447  0.97724  0.51856  1.0000
  H   H453      1.0  0.25516  0.82574  0.18495  1.0000
  H   H454      1.0  0.42013  0.93534  0.52231  1.0000
  H   H455      1.0  0.35531  0.97849  0.51363  1.0000
  C   C383      1.0  0.32797  0.94951  0.00749  1.0000
  C   C384      1.0  0.30789  0.94013  0.98305  1.0000
  H   H456      1.0  0.30842  0.92175  0.96780  1.0000
  C   C385      1.0  0.25646  0.86681  0.90003  1.0000
  C   C386      1.0  0.37387  0.97081  0.33017  1.0000
  H   H457      1.0  0.34419  0.72720  0.52443  1.0000
  H   H458      1.0  0.44283  0.97284  0.54070  1.0000
  C   C387      1.0  0.26906  0.88594  0.87868  1.0000
  H   H459      1.0  0.27970  0.79928  0.06423  1.0000
  Fe  Fe63      1.0  0.35226  0.66530  0.71298  1.0000
  H   H460      1.0  0.28680  0.89003  0.89229  1.0000
  C   C388      1.0  0.35128  0.84810  0.20126  1.0000
  C   C389      1.0  0.37432  0.85081  0.18247  1.0000
  C   C390      1.0  0.39321  0.85662  0.21504  1.0000
  C   C391      1.0  0.38930  0.85965  0.26682  1.0000
  C   C392      1.0  0.36624  0.85702  0.28595  1.0000
  C   C393      1.0  0.34728  0.85110  0.25321  1.0000
  H   H461      1.0  0.37782  0.84788  0.14295  1.0000
  H   H462      1.0  0.41101  0.85852  0.20001  1.0000
  H   H463      1.0  0.36300  0.85951  0.32580  1.0000
  H   H464      1.0  0.32948  0.84901  0.26808  1.0000
  C   C394      1.0  0.41494  0.81762  0.93784  1.0000
  C   C395      1.0  0.42498  0.83874  0.95812  1.0000
  C   C396      1.0  0.44988  0.84188  0.95644  1.0000
  C   C397      1.0  0.40100  0.79751  0.29980  1.0000
  C   C398      1.0  0.43000  0.79955  0.91660  1.0000
  H   H465      1.0  0.41358  0.85280  0.97463  1.0000
  H   H466      1.0  0.45748  0.85835  0.97201  1.0000
  H   H467      1.0  0.42237  0.78304  0.90137  1.0000
  H   H468      1.0  0.39981  0.80326  0.80479  1.0000
  N   N24       1.0  0.30057  0.93056  0.17327  1.0000
  C   C399      1.0  0.28823  0.93169  0.12363  1.0000
  C   C400      1.0  0.32087  0.91271  0.16994  1.0000
  C   C401      1.0  0.28343  0.92098  0.21061  1.0000
  C   C402      1.0  0.30934  0.95522  0.18613  1.0000
  C   C403      1.0  0.29975  0.96967  0.22632  1.0000
  C   C404      1.0  0.26387  0.73288  0.53449  1.0000
  C   C405      1.0  0.48846  0.71987  0.78460  1.0000
  H   H469      1.0  0.38069  0.91219  0.24485  1.0000
  C   C406      1.0  0.32256  0.66990  0.53615  1.0000
  H   H470      1.0  0.27986  0.91402  0.11356  1.0000
  H   H471      1.0  0.27394  0.94616  0.12345  1.0000
  H   H472      1.0  0.30067  0.93605  0.09252  1.0000
  H   H473      1.0  0.33298  0.91640  0.13780  1.0000
  C   C407      1.0  0.45061  0.83980  0.63452  1.0000
  H   H474      1.0  0.33480  0.95641  0.12420  1.0000
  C   C408      1.0  0.25960  0.84241  0.09377  1.0000
  C   C409      1.0  0.25907  0.73063  0.48304  1.0000
  H   H475      1.0  0.29162  0.91968  0.24889  1.0000
  H   H476      1.0  0.35229  0.97447  0.42141  1.0000
  C   C410      1.0  0.48107  0.73442  0.74392  1.0000
  C   C411      1.0  0.47423  0.70056  0.80049  1.0000
  H   H477      1.0  0.32499  0.90273  0.55813  1.0000
  H   H478      1.0  0.28185  0.66606  0.70943  1.0000
  H   H479      1.0  0.28821  0.88293  0.58403  1.0000
  H   H480      1.0  0.44855  0.82426  0.55994  1.0000
  H   H481      1.0  0.42838  0.70745  0.71691  1.0000
  C   C412      1.0  0.28440  0.72193  0.55547  1.0000
  C   C413      1.0  0.43531  0.79983  0.61625  1.0000
  C   C414      1.0  0.29532  0.70636  0.47281  1.0000
  H   H482      1.0  0.42277  0.77932  0.67826  1.0000
  C   C415      1.0  0.48071  0.69648  0.94962  1.0000
  C   C416      1.0  0.37906  0.92627  0.32065  1.0000
  H   H483      1.0  0.33450  0.98978  0.37430  1.0000
  H   H484      1.0  0.34284  0.69134  0.61485  1.0000
  C   C417      1.0  0.48857  0.68095  0.03317  1.0000
  C   C418      1.0  0.27476  0.71738  0.45229  1.0000
  H   H485      1.0  0.34292  0.98078  0.04488  1.0000
  C   C419      1.0  0.37674  0.94707  0.35123  1.0000
  C   C420      1.0  0.39424  0.99382  0.39529  1.0000
  C   C421      1.0  0.32612  0.70041  0.60080  1.0000
  H   H486      1.0  0.47993  0.88285  0.41558  1.0000
  C   C422      1.0  0.30965  0.93893  0.55960  1.0000
  H   H487      1.0  0.37750  0.94437  0.39168  1.0000
  H   H488      1.0  0.25589  0.90402  0.68323  1.0000
  C   C423      1.0  0.44990  0.67288  0.99246  1.0000
  H   H489      1.0  0.44163  0.78595  0.81685  1.0000
  H   H490      1.0  0.28691  0.72434  0.59559  1.0000
  N   N25       1.0  0.32730  0.77001  0.88605  1.0000
  C   C424      1.0  0.32641  0.75435  0.84031  1.0000
  C   C425      1.0  0.33171  0.79545  0.86947  1.0000
  C   C426      1.0  0.34805  0.76204  0.91752  1.0000
  C   C427      1.0  0.30481  0.76751  0.91461  1.0000
  C   C428      1.0  0.28758  0.78682  0.91950  1.0000
  C   C429      1.0  0.29911  0.74484  0.93695  1.0000
  H   H491      1.0  0.48666  0.70641  0.91676  1.0000
  C   C430      1.0  0.27767  0.74167  0.96261  1.0000
  N   N26       1.0  0.37237  0.99262  0.36350  1.0000
  H   H492      1.0  0.31097  0.75952  0.81570  1.0000
  H   H493      1.0  0.34289  0.75594  0.81734  1.0000
  H   H494      1.0  0.32472  0.73467  0.84973  1.0000
  H   H495      1.0  0.31790  0.80209  0.84218  1.0000
  H   H496      1.0  0.34921  0.79691  0.84995  1.0000
  H   H497      1.0  0.33234  0.80826  0.90221  1.0000
  H   H498      1.0  0.34805  0.74215  0.92594  1.0000
  H   H499      1.0  0.36534  0.76532  0.89831  1.0000
  H   H500      1.0  0.34844  0.77229  0.95396  1.0000
  H   H501      1.0  0.29014  0.80472  0.90367  1.0000
  H   H502      1.0  0.31108  0.72922  0.93417  1.0000
  C   C431      1.0  0.35129  0.99087  0.39682  1.0000
  H   H503      1.0  0.32210  0.66524  0.49534  1.0000
  C   C432      1.0  0.44525  0.82149  0.59980  1.0000
  H   H504      1.0  0.28753  0.80752  0.12789  1.0000
  C   C433      1.0  0.32697  0.96616  0.15583  1.0000
  N   N27       1.0  0.32291  0.69666  0.54560  1.0000
  C   C434      1.0  0.30083  0.70830  0.52506  1.0000
  N   N28       1.0  0.38664  0.78439  0.33760  1.0000
  C   C435      1.0  0.40348  0.77436  0.37619  1.0000
  C   C436      1.0  0.37058  0.80227  0.36344  1.0000
  H   H505      1.0  0.41395  0.78908  0.39467  1.0000
  H   H506      1.0  0.39382  0.76526  0.40735  1.0000
  H   H507      1.0  0.41251  0.81154  0.31783  1.0000
  H   H508      1.0  0.35951  0.79317  0.39240  1.0000
  H   H509      1.0  0.38089  0.81664  0.38329  1.0000
  H   H510      1.0  0.35827  0.81190  0.33690  1.0000
  C   C437      1.0  0.46488  0.82414  0.93390  1.0000
  S   S124      1.0  0.32931  0.68592  0.89471  1.0000
  Fe  Fe64      1.0  0.34775  0.68532  0.81947  1.0000
  S   S125      1.0  0.32979  0.69581  0.74655  1.0000
  C   C438      1.0  0.37284  0.97229  0.27658  1.0000
  H   H511      1.0  0.38605  0.73325  0.35290  1.0000
  C   C439      1.0  0.28716  0.95470  0.97777  1.0000
  C   C440      1.0  0.37398  0.74023  0.32429  1.0000
  H   H512      1.0  0.46452  0.79351  0.77274  1.0000
  H   H513      1.0  0.41087  0.69213  0.03650  1.0000
  C   C441      1.0  0.30721  0.99363  0.23477  1.0000
  H   H514      1.0  0.37475  0.95283  0.20554  1.0000
  C   C442      1.0  0.24912  0.89130  0.65363  1.0000
  H   H515      1.0  0.33176  0.91268  0.20521  1.0000
  H   H516      1.0  0.28596  0.96320  0.25092  1.0000
  C   C443      1.0  0.25873  0.89974  0.83930  1.0000
  C   C444      1.0  0.43535  0.83221  0.79076  1.0000
  C   C445      1.0  0.27273  0.80077  0.10347  1.0000
  H   H517      1.0  0.45406  0.74055  0.68694  1.0000
  H   H518      1.0  0.26876  0.78204  0.11657  1.0000
  H   H519      1.0  0.37054  0.98944  0.25704  1.0000
  H   H520      1.0  0.38177  0.90840  0.33762  1.0000
  H   H521      1.0  0.32745  0.72016  0.61078  1.0000
  H   H522      1.0  0.27376  0.72403  0.97884  1.0000
  C   C446      1.0  0.26792  0.94233  0.58289  1.0000
  C   C447      1.0  0.37839  0.92838  0.26832  1.0000
  H   H523      1.0  0.36106  0.69947  0.53643  1.0000
  C   C448      1.0  0.28627  0.97833  0.99834  1.0000
  C   C449      1.0  0.43057  0.79644  0.66748  1.0000
  H   H524      1.0  0.31464  0.89370  0.16374  1.0000
  H   H525      1.0  0.26244  0.87611  0.64959  1.0000
  H   H526      1.0  0.47915  0.75519  0.00833  1.0000
  C   C450      1.0  0.45483  0.80288  0.91421  1.0000
  H   H527      1.0  0.46615  0.78898  0.89711  1.0000
  C   C451      1.0  0.40473  0.80488  0.76424  1.0000
  H   H528      1.0  0.40006  0.78716  0.74635  1.0000
  H   H529      1.0  0.48584  0.95250  0.48307  1.0000
  C   C452      1.0  0.45967  0.72950  0.71877  1.0000
  C   C453      1.0  0.26659  0.91657  0.58923  1.0000
  H   H530      1.0  0.41665  0.76124  0.35930  1.0000
  H   H531      1.0  0.43055  0.82886  0.83081  1.0000
  H   H532      1.0  0.42475  0.84863  0.77883  1.0000
  H   H533      1.0  0.35320  0.79116  0.26220  1.0000
  H   H534      1.0  0.47599  0.74538  0.09171  1.0000
  H   H535      1.0  0.41282  0.78463  0.27839  1.0000
  N   N29       1.0  0.43033  0.81075  0.75797  1.0000
  H   H536      1.0  0.39419  0.66443  0.04023  1.0000
  H   H537      1.0  0.42115  0.66711  0.07516  1.0000
  C   C454      1.0  0.37220  0.76552  0.31206  1.0000
  H   H538      1.0  0.28993  0.97289  0.56390  1.0000
  C   C455      1.0  0.34402  0.70692  0.52024  1.0000
  C   C456      1.0  0.44511  0.78988  0.77658  1.0000
  C   C457      1.0  0.35559  0.77228  0.27358  1.0000
  C   C458      1.0  0.32729  0.97342  0.02658  1.0000
  H   H539      1.0  0.32615  0.94741  0.54856  1.0000
  C   C459      1.0  0.43561  0.81480  0.70394  1.0000
  H   H540      1.0  0.45811  0.85675  0.62128  1.0000
  H   H541      1.0  0.44149  0.77271  0.75568  1.0000
  H   H542      1.0  0.26782  0.84319  0.05573  1.0000
  H   H543      1.0  0.43085  0.78573  0.58904  1.0000
  S   S126      1.0  0.38287  0.68963  0.69357  1.0000
  H   H544      1.0  0.27176  0.94749  0.95841  1.0000
  C   C460      1.0  0.34173  0.75485  0.24888  1.0000
  C   C461      1.0  0.36000  0.72296  0.29927  1.0000
  C   C462      1.0  0.44603  0.83660  0.68591  1.0000
  Fe  Fe65      1.0  0.39629  0.68004  0.77145  1.0000
  C   C463      1.0  0.30893  0.91368  0.56519  1.0000
  S   S127      1.0  0.47768  0.87068  0.52241  1.0000
  H   H545      1.0  0.27732  0.90231  0.20021  1.0000
  C   C464      1.0  0.37513  0.95130  0.24635  1.0000
  H   H546      1.0  0.25324  0.79843  0.94816  1.0000
  H   H547      1.0  0.36160  0.70369  0.30876  1.0000
  C   C465      1.0  0.28921  0.95322  0.56833  1.0000
  C   C466      1.0  0.34393  0.73024  0.26172  1.0000
  H   H548      1.0  0.32924  0.76047  0.21954  1.0000
  H   H549      1.0  0.27346  0.84866  0.12106  1.0000
  H   H550      1.0  0.45064  0.85156  0.71059  1.0000
  C   C467      1.0  0.28779  0.90258  0.57987  1.0000
  H   H551      1.0  0.26691  0.93259  0.21274  1.0000
  C   C468      1.0  0.41254  0.67185  0.03842  1.0000
  H   H552      1.0  0.33322  0.71666  0.24254  1.0000
  H   H553      1.0  0.25282  0.95453  0.58907  1.0000
  H   H554      1.0  0.26866  0.91444  0.82280  1.0000
  S   S128      1.0  0.43375  0.67334  0.79900  1.0000
  C   C469      1.0  0.26119  0.76094  0.96667  1.0000
  H   H555      1.0  0.34437  0.70259  0.47922  1.0000
  H   H556      1.0  0.26281  0.67064  0.38369  1.0000
  H   H557      1.0  0.30677  0.69604  0.44741  1.0000
  N   N30       1.0  0.25148  0.81737  0.10550  1.0000
  H   H558      1.0  0.49467  0.80754  0.04015  1.0000
  C   C470      1.0  0.29271  0.66686  0.33244  1.0000
  H   H559      1.0  0.49359  0.77715  0.97059  1.0000
  C   C471      1.0  0.30625  0.98764  0.02310  1.0000
  C   C472      1.0  0.45810  0.68599  0.94978  1.0000
  H   H560      1.0  0.48007  0.68906  0.83141  1.0000
  H   H561      1.0  0.28521  0.67954  0.30515  1.0000
  H   H562      1.0  0.47828  0.78644  0.07642  1.0000
  H   H563      1.0  0.48135  0.71232  0.15287  1.0000
  H   H564      1.0  0.27086  0.71541  0.41235  1.0000
  C   C473      1.0  0.33841  0.66778  0.98940  1.0000
  C   C474      1.0  0.46592  0.67061  0.03407  1.0000
  H   H565      1.0  0.39661  0.97762  0.42006  1.0000
  H   H566      1.0  0.25083  0.87191  0.55957  1.0000
  C   C475      1.0  0.41121  0.66641  0.94856  1.0000
  H   H567      1.0  0.44753  0.68828  0.91575  1.0000
  H   H568      1.0  0.25817  0.66474  0.79170  1.0000
  H   H569      1.0  0.40805  0.68630  0.94212  1.0000
  H   H570      1.0  0.41055  0.99499  0.37167  1.0000
  C   C476      1.0  0.49402  0.73971  0.10145  1.0000
  H   H571      1.0  0.47264  0.99103  0.48531  1.0000
  C   C477      1.0  0.33925  0.66323  0.93726  1.0000
  Fe  Fe66      1.0  0.72918  0.17920  0.99440  1.0000
  S   S129      1.0  0.69809  0.16769  0.94656  1.0000
  C   C478      1.0  0.55734  0.19917  0.60696  1.0000
  Fe  Fe67      1.0  0.69921  0.18049  0.09144  1.0000
  S   S130      1.0  0.66590  0.16909  0.05125  1.0000
  S   S131      1.0  0.70170  0.18598  0.17600  1.0000
  Fe  Fe68      1.0  0.69028  0.14264  0.01128  1.0000
  S   S132      1.0  0.67930  0.10374  0.00283  1.0000
  Fe  Fe69      1.0  0.67649  0.19538  0.99110  1.0000
  S   S133      1.0  0.65175  0.22314  0.95321  1.0000
  S   S134      1.0  0.72300  0.15185  0.05572  1.0000
  S   S135      1.0  0.70828  0.20902  0.03440  1.0000
  Fe  Fe70      1.0  0.57803  0.15462  0.47851  1.0000
  S   S136      1.0  0.60886  0.15591  0.53293  1.0000
  S   S137      1.0  0.54119  0.15364  0.51189  1.0000
  Fe  Fe71      1.0  0.61006  0.16067  0.38649  1.0000
  S   S138      1.0  0.64330  0.16242  0.43351  1.0000
  S   S139      1.0  0.60844  0.16463  0.30179  1.0000
  Fe  Fe72      1.0  0.62718  0.13125  0.47620  1.0000
  S   S140      1.0  0.64859  0.09705  0.49544  1.0000
  Fe  Fe73      1.0  0.62171  0.18686  0.48534  1.0000
  S   S141      1.0  0.63055  0.22593  0.50560  1.0000
  S   S142      1.0  0.59536  0.12783  0.42507  1.0000
  S   S143      1.0  0.58941  0.18713  0.43491  1.0000
  H   H572      1.0  0.57864  0.18043  0.00070  1.0000
  S   S144      1.0  0.67495  0.26055  0.71440  1.0000
  H   H573      1.0  0.62255  0.18529  0.99792  1.0000
  H   H574      1.0  0.64017  0.25540  0.78631  1.0000
  C   C479      1.0  0.69457  0.02361  0.12443  1.0000
  C   C480      1.0  0.54409  0.30546  0.77711  1.0000
  C   C481      1.0  0.60975  0.22985  0.73016  1.0000
  H   H575      1.0  0.52762  0.30350  0.79770  1.0000
  C   C482      1.0  0.64235  0.23485  0.56461  1.0000
  C   C483      1.0  0.64361  0.25990  0.57580  1.0000
  C   C484      1.0  0.65325  0.26793  0.62189  1.0000
  C   C485      1.0  0.66209  0.25096  0.65684  1.0000
  C   C486      1.0  0.66063  0.22586  0.64598  1.0000
  C   C487      1.0  0.65058  0.21779  0.60012  1.0000
  H   H576      1.0  0.63725  0.27320  0.54852  1.0000
  H   H577      1.0  0.65431  0.28728  0.62980  1.0000
  H   H578      1.0  0.66748  0.21261  0.67284  1.0000
  H   H579      1.0  0.64973  0.19844  0.59174  1.0000
  C   C488      1.0  0.51880  0.14149  0.47318  1.0000
  H   H580      1.0  0.59134  0.22820  0.71467  1.0000
  C   C489      1.0  0.52441  0.12917  0.42824  1.0000
  C   C490      1.0  0.68109  0.01639  0.03624  1.0000
  H   H581      1.0  0.54263  0.12835  0.41506  1.0000
  C   C491      1.0  0.60533  0.02745  0.51165  1.0000
  C   C492      1.0  0.59368  0.05008  0.50494  1.0000
  C   C493      1.0  0.60678  0.07161  0.50158  1.0000
  C   C494      1.0  0.63172  0.07060  0.50454  1.0000
  C   C495      1.0  0.64341  0.04796  0.51215  1.0000
  C   C496      1.0  0.63026  0.02638  0.51533  1.0000
  H   H582      1.0  0.57452  0.05087  0.50113  1.0000
  H   H583      1.0  0.59756  0.08894  0.49650  1.0000
  H   H584      1.0  0.66269  0.04711  0.51513  1.0000
  H   H585      1.0  0.63939  0.00899  0.52098  1.0000
  C   C497      1.0  0.70441  0.08439  0.99916  1.0000
  C   C498      1.0  0.71937  0.08072  0.04118  1.0000
  C   C499      1.0  0.64449  0.29199  0.24108  1.0000
  H   H586      1.0  0.64805  0.22370  0.78823  1.0000
  H   H587      1.0  0.62928  0.22095  0.39749  1.0000
  C   C500      1.0  0.70867  0.07136  0.95458  1.0000
  H   H588      1.0  0.71604  0.09086  0.07567  1.0000
  H   H589      1.0  0.51086  0.10730  0.36673  1.0000
  H   H590      1.0  0.69711  0.07420  0.92215  1.0000
  C   C501      1.0  0.53689  0.28149  0.01156  1.0000
  C   C502      1.0  0.55101  0.28787  0.74138  1.0000
  H   H591      1.0  0.55933  0.17949  0.60705  1.0000
  C   C503      1.0  0.67578  0.17957  0.21067  1.0000
  C   C504      1.0  0.65333  0.17929  0.18737  1.0000
  C   C505      1.0  0.63287  0.17439  0.21567  1.0000
  C   C506      1.0  0.63469  0.16974  0.26749  1.0000
  C   C507      1.0  0.65713  0.16992  0.29089  1.0000
  C   C508      1.0  0.67757  0.17515  0.26268  1.0000
  H   H592      1.0  0.65156  0.18340  0.14779  1.0000
  H   H593      1.0  0.61554  0.17438  0.19734  1.0000
  H   H594      1.0  0.65878  0.16629  0.33075  1.0000
  H   H595      1.0  0.69476  0.17575  0.28134  1.0000
  C   C509      1.0  0.57065  0.21363  0.96004  1.0000
  C   C510      1.0  0.58030  0.23437  0.93794  1.0000
  C   C511      1.0  0.60518  0.23756  0.93823  1.0000
  C   C512      1.0  0.62059  0.21969  0.95892  1.0000
  C   C513      1.0  0.61091  0.19919  0.98180  1.0000
  C   C514      1.0  0.58600  0.19636  0.98295  1.0000
  H   H596      1.0  0.56857  0.24800  0.92105  1.0000
  H   H597      1.0  0.61265  0.25374  0.92184  1.0000
  H   H598      1.0  0.60938  0.25548  0.17508  1.0000
  C   C515      1.0  0.50643  0.11728  0.40088  1.0000
  C   C516      1.0  0.62783  0.03115  0.38399  1.0000
  C   C517      1.0  0.63686  0.10226  0.31845  1.0000
  C   C518      1.0  0.68653  0.04840  0.12088  1.0000
  C   C519      1.0  0.54118  0.01449  0.61724  1.0000
  H   H599      1.0  0.63344  0.11968  0.33709  1.0000
  N   N31       1.0  0.62129  0.24512  0.33496  1.0000
  H   H600      1.0  0.70474  0.27004  0.80923  1.0000
  C   C520      1.0  0.60112  0.23082  0.31485  1.0000
  C   C521      1.0  0.65892  0.25184  0.21663  1.0000
  C   C522      1.0  0.63385  0.25647  0.29220  1.0000
  C   C523      1.0  0.63262  0.28201  0.28227  1.0000
  C   C524      1.0  0.53629  0.03624  0.59126  1.0000
  H   H601      1.0  0.50595  0.03648  0.34155  1.0000
  H   H602      1.0  0.55425  0.26992  0.59880  1.0000
  C   C525      1.0  0.52261  0.00069  0.63607  1.0000
  H   H603      1.0  0.51880  0.24783  0.62257  1.0000
  H   H604      1.0  0.64106  0.00836  0.29995  1.0000
  C   C526      1.0  0.53485  0.23725  0.61471  1.0000
  H   H605      1.0  0.59145  0.22131  0.34544  1.0000
  H   H606      1.0  0.60341  0.25394  0.40513  1.0000
  C   C527      1.0  0.66977  0.04010  0.39130  1.0000
  C   C528      1.0  0.65775  0.27699  0.20856  1.0000
  C   C529      1.0  0.69926  0.05676  0.20673  1.0000
  C   C530      1.0  0.71159  0.26659  0.84802  1.0000
  H   H607      1.0  0.62266  0.29477  0.30571  1.0000
  H   H608      1.0  0.70815  0.24254  0.93414  1.0000
  H   H609      1.0  0.61720  0.24655  0.71271  1.0000
  H   H610      1.0  0.58359  0.30468  0.91594  1.0000
  S   S145      1.0  0.51783  0.26546  0.88078  1.0000
  C   C531      1.0  0.57857  0.19974  0.79654  1.0000
  H   H611      1.0  0.60031  0.26965  0.78773  1.0000
  H   H612      1.0  0.58615  0.29323  0.19576  1.0000
  H   H613      1.0  0.64082  0.08329  0.38771  1.0000
  C   C532      1.0  0.57214  0.29069  0.71417  1.0000
  H   H614      1.0  0.60723  0.21637  0.28793  1.0000
  H   H615      1.0  0.61235  0.02817  0.35833  1.0000
  H   H616      1.0  0.49661  0.22794  0.67670  1.0000
  H   H617      1.0  0.53222  0.16890  0.67333  1.0000
  H   H618      1.0  0.55190  0.17260  0.81001  1.0000
  N   N32       1.0  0.53049  0.27885  0.06550  1.0000
  S   S146      1.0  0.53446  0.26130  0.73317  1.0000
  H   H619      1.0  0.70125  0.06949  0.23793  1.0000
  H   H620      1.0  0.50853  0.25550  0.11012  1.0000
  C   C533      1.0  0.55833  0.32587  0.78568  1.0000
  H   H621      1.0  0.59399  0.20274  0.58324  1.0000
  C   C534      1.0  0.64044  0.07854  0.24190  1.0000
  C   C535      1.0  0.64697  0.24168  0.25743  1.0000
  H   H622      1.0  0.73890  0.24899  0.92329  1.0000
  H   H623      1.0  0.55065  0.30441  0.14806  1.0000
  H   H624      1.0  0.72840  0.21795  0.91957  1.0000
  H   H625      1.0  0.59333  0.25322  0.84372  1.0000
  C   C536      1.0  0.72788  0.05474  0.95171  1.0000
  C   C537      1.0  0.64576  0.05815  0.32384  1.0000
  C   C538      1.0  0.51213  0.00663  0.39345  1.0000
  H   H626      1.0  0.59716  0.27493  0.35539  1.0000
  H   H627      1.0  0.64812  0.04070  0.24900  1.0000
  C   C539      1.0  0.61599  0.19366  0.84156  1.0000
  C   C540      1.0  0.63778  0.22841  0.36312  1.0000
  S   S147      1.0  0.65021  0.30812  0.80569  1.0000
  H   H628      1.0  0.64348  0.31158  0.23457  1.0000
  C   C541      1.0  0.58399  0.16505  0.85211  1.0000
  H   H629      1.0  0.57760  0.27703  0.68667  1.0000
  C   C542      1.0  0.64128  0.08126  0.34707  1.0000
  C   C543      1.0  0.55507  0.25013  0.60084  1.0000
  C   C544      1.0  0.61155  0.26315  0.37206  1.0000
  H   H630      1.0  0.68271  0.22894  0.86754  1.0000
  C   C545      1.0  0.56986  0.17849  0.81842  1.0000
  H   H631      1.0  0.69211  0.22779  0.80321  1.0000
  C   C546      1.0  0.59364  0.26038  0.15313  1.0000
  H   H632      1.0  0.72103  0.24379  0.75235  1.0000
  C   C547      1.0  0.61206  0.30834  0.06055  1.0000
  H   H633      1.0  0.71569  0.02649  0.24634  1.0000
  N   N33       1.0  0.50646  0.06767  0.55588  1.0000
  H   H634      1.0  0.74078  0.17786  0.25994  1.0000
  C   C548      1.0  0.52774  0.08173  0.54122  1.0000
  H   H635      1.0  0.65927  0.99767  0.35054  1.0000
  C   C549      1.0  0.51240  0.04475  0.58315  1.0000
  C   C550      1.0  0.58048  0.28155  0.16478  1.0000
  C   C551      1.0  0.64518  0.05740  0.27013  1.0000
  H   H636      1.0  0.61793  0.16216  0.89001  1.0000
  H   H637      1.0  0.69163  0.03172  0.02097  1.0000
  N   N34       1.0  0.71879  0.24061  0.85581  1.0000
  H   H638      1.0  0.72763  0.15069  0.23580  1.0000
  C   C552      1.0  0.65592  0.01370  0.32552  1.0000
  H   H639      1.0  0.67359  0.02358  0.41472  1.0000
  H   H640      1.0  0.67859  0.05591  0.08687  1.0000
  C   C553      1.0  0.59968  0.31420  0.90233  1.0000
  H   H641      1.0  0.53897  0.07154  0.51350  1.0000
  H   H642      1.0  0.59692  0.31752  0.86123  1.0000
  C   C554      1.0  0.49900  0.00835  0.62821  1.0000
  H   H643      1.0  0.50378  0.04931  0.48419  1.0000
  C   C555      1.0  0.58661  0.24561  0.11292  1.0000
  N   N35       1.0  0.69253  0.00585  0.08222  1.0000
  C   C556      1.0  0.69830  0.22498  0.84274  1.0000
  H   H644      1.0  0.64328  0.21210  0.34081  1.0000
  H   H645      1.0  0.55959  0.00828  0.62248  1.0000
  C   C557      1.0  0.51332  0.25866  0.06997  1.0000
  C   C558      1.0  0.55223  0.27304  0.09567  1.0000
  C   C559      1.0  0.56004  0.28787  0.13668  1.0000
  Fe  Fe74      1.0  0.67189  0.30063  0.73632  1.0000
  H   H646      1.0  0.63968  0.07761  0.20104  1.0000
  C   C560      1.0  0.59419  0.25179  0.80220  1.0000
  H   H647      1.0  0.55090  0.29541  0.00675  1.0000
  H   H648      1.0  0.51804  0.21004  0.71149  1.0000
  H   H649      1.0  0.67247  0.01599  0.30310  1.0000
  H   H650      1.0  0.68361  0.32474  0.01949  1.0000
  H   H651      1.0  0.72688  0.27895  0.85467  1.0000
  C   C561      1.0  0.57745  0.21228  0.59284  1.0000
  H   H652      1.0  0.65416  0.23800  0.37564  1.0000
  H   H653      1.0  0.59693  0.22918  0.10362  1.0000
  Fe  Fe75      1.0  0.51278  0.25231  0.80126  1.0000
  H   H654      1.0  0.49650  0.26264  0.04874  1.0000
  S   S148      1.0  0.53948  0.20959  0.96263  1.0000
  H   H655      1.0  0.58800  0.24272  0.29436  1.0000
  H   H656      1.0  0.66917  0.24006  0.19124  1.0000
  C   C562      1.0  0.63479  0.23756  0.80203  1.0000
  N   N36       1.0  0.51373  0.19827  0.63460  1.0000
  H   H657      1.0  0.74083  0.12006  0.17272  1.0000
  H   H658      1.0  0.66257  0.02316  0.04383  1.0000
  H   H659      1.0  0.69701  0.27253  0.87411  1.0000
  C   C563      1.0  0.56624  0.25177  0.08458  1.0000
  Fe  Fe76      1.0  0.51575  0.22608  0.90188  1.0000
  H   H660      1.0  0.64806  0.22206  0.26136  1.0000
  C   C564      1.0  0.70730  0.03261  0.21147  1.0000
  C   C565      1.0  0.60704  0.17252  0.86334  1.0000
  H   H661      1.0  0.70320  0.20525  0.84700  1.0000
  H   H662      1.0  0.50168  0.16272  0.65773  1.0000
  H   H663      1.0  0.62590  0.27493  0.38746  1.0000
  H   H664      1.0  0.63387  0.19846  0.85277  1.0000
  C   C566      1.0  0.53543  0.21138  0.61920  1.0000
  H   H665      1.0  0.56140  0.23954  0.05411  1.0000
  C   C567      1.0  0.60182  0.20816  0.80793  1.0000
  H   H666      1.0  0.56679  0.20983  0.77131  1.0000
  H   H667      1.0  0.54361  0.26400  0.99480  1.0000
  C   C568      1.0  0.63637  0.10092  0.26601  1.0000
  N   N37       1.0  0.61018  0.23134  0.78614  1.0000
  H   H668      1.0  0.55160  0.04595  0.57792  1.0000
  C   C569      1.0  0.51799  0.30185  0.08144  1.0000
  H   H669      1.0  0.51124  0.30070  0.12083  1.0000
  H   H670      1.0  0.52973  0.31794  0.07828  1.0000
  H   H671      1.0  0.57698  0.14894  0.86997  1.0000
  H   H672      1.0  0.63637  0.23939  0.84379  1.0000
  H   H673      1.0  0.57562  0.24947  0.78865  1.0000
  C   C570      1.0  0.49880  0.02604  0.37253  1.0000
  C   C571      1.0  0.57634  0.23767  0.58999  1.0000
  H   H674      1.0  0.62057  0.21390  0.71636  1.0000
  H   H675      1.0  0.59194  0.24768  0.57872  1.0000
  C   C572      1.0  0.51809  0.17180  0.64415  1.0000
  S   S149      1.0  0.51474  0.21280  0.82201  1.0000
  N   N38       1.0  0.64982  0.03609  0.35518  1.0000
  C   C573      1.0  0.68902  0.06465  0.16146  1.0000
  C   C574      1.0  0.60841  0.31071  0.00850  1.0000
  H   H676      1.0  0.68646  0.04473  0.37120  1.0000
  H   H677      1.0  0.72855  0.01199  0.05862  1.0000
  H   H678      1.0  0.63252  0.11727  0.24414  1.0000
  H   H679      1.0  0.68314  0.08359  0.15741  1.0000
  C   C575      1.0  0.70500  0.01627  0.17106  1.0000
  C   C576      1.0  0.58692  0.31054  0.72437  1.0000
  H   H680      1.0  0.66711  0.28485  0.17702  1.0000
  H   H681      1.0  0.66589  0.05519  0.41850  1.0000
  H   H682      1.0  0.60725  0.29388  0.98721  1.0000
  H   H683      1.0  0.60360  0.31230  0.70440  1.0000
  H   H684      1.0  0.61360  0.29032  0.07712  1.0000
  S   S150      1.0  0.58814  0.00094  0.51473  1.0000
  H   H685      1.0  0.62281  0.04659  0.40946  1.0000
  C   C577      1.0  0.50393  0.20910  0.68187  1.0000
  H   H686      1.0  0.52338  0.16186  0.60913  1.0000
  H   H687      1.0  0.53883  0.08676  0.57456  1.0000
  H   H688      1.0  0.71178  0.99782  0.17637  1.0000
  H   H689      1.0  0.61713  0.32714  0.13146  1.0000
  H   H690      1.0  0.63001  0.01465  0.40824  1.0000
  H   H691      1.0  0.52259  0.09916  0.52242  1.0000
  C   C578      1.0  0.72390  0.23737  0.91050  1.0000
  C   C579      1.0  0.73809  0.06327  0.03896  1.0000
  C   C580      1.0  0.74286  0.15756  0.25860  1.0000
  H   H692      1.0  0.67984  0.00266  0.00519  1.0000
  H   H693      1.0  0.61557  0.30170  0.90518  1.0000
  H   H694      1.0  0.73117  0.04481  0.91692  1.0000
  H   H695      1.0  0.52109  0.28715  0.98821  1.0000
  H   H696      1.0  0.50207  0.30598  0.05735  1.0000
  H   H697      1.0  0.52050  0.24106  0.05436  1.0000
  H   H698      1.0  0.50042  0.08808  0.62445  1.0000
  H   H699      1.0  0.74078  0.15046  0.29759  1.0000
  C   C581      1.0  0.73924  0.23403  0.82283  1.0000
  C   C582      1.0  0.73719  0.23656  0.76963  1.0000
  S   S151      1.0  0.70362  0.32088  0.76589  1.0000
  H   H700      1.0  0.50248  0.19298  0.55773  1.0000
  C   C583      1.0  0.74233  0.05040  0.99400  1.0000
  C   C584      1.0  0.71663  0.99666  0.06777  1.0000
  H   H701      1.0  0.52943  0.00286  0.37703  1.0000
  S   S152      1.0  0.69252  0.32543  0.91278  1.0000
  H   H702      1.0  0.74274  0.07551  0.16620  1.0000
  C   C585      1.0  0.49514  0.14243  0.48997  1.0000
  C   C586      1.0  0.49547  0.20050  0.59410  1.0000
  C   C587      1.0  0.57998  0.32817  0.76006  1.0000
  H   H703      1.0  0.53408  0.99645  0.51076  1.0000
  Fe  Fe77      1.0  0.60587  0.59489  0.19988  1.0000
  S   S153      1.0  0.60004  0.59756  0.28329  1.0000
  S   S154      1.0  0.60940  0.55847  0.15891  1.0000
  Fe  Fe78      1.0  0.57384  0.62757  0.26295  1.0000
  S   S155      1.0  0.53897  0.62918  0.30504  1.0000
  S   S156      1.0  0.63513  0.62252  0.19861  1.0000
  S   S157      1.0  0.57706  0.62254  0.17913  1.0000
  H   H704      1.0  0.61964  0.60333  0.57267  1.0000
  S   S158      1.0  0.66598  0.36550  0.79773  1.0000
  C   C588      1.0  0.70548  0.49123  0.39326  1.0000
  C   C589      1.0  0.68015  0.34315  0.00623  1.0000
  H   H705      1.0  0.68335  0.39854  0.46727  1.0000
  Fe  Fe79      1.0  0.68669  0.35397  0.72890  1.0000
  S   S159      1.0  0.70988  0.37883  0.68260  1.0000
  N   N39       1.0  0.73670  0.39628  0.09532  1.0000
  S   S160      1.0  0.59876  0.35239  0.77518  1.0000
  H   H706      1.0  0.58477  0.58653  0.08101  1.0000
  Fe  Fe80      1.0  0.65647  0.40247  0.14825  1.0000
  S   S161      1.0  0.66557  0.36715  0.18663  1.0000
  S   S162      1.0  0.65824  0.40883  0.06441  1.0000
  Fe  Fe81      1.0  0.64447  0.42860  0.24728  1.0000
  S   S163      1.0  0.65260  0.39513  0.29389  1.0000
  S   S164      1.0  0.63304  0.46328  0.28747  1.0000
  Fe  Fe82      1.0  0.68484  0.39029  0.24399  1.0000
  S   S165      1.0  0.72458  0.38598  0.26102  1.0000
  Fe  Fe83      1.0  0.63256  0.37543  0.23228  1.0000
  S   S166      1.0  0.60306  0.34802  0.23748  1.0000
  S   S167      1.0  0.67784  0.42527  0.20181  1.0000
  S   S168      1.0  0.62220  0.40931  0.18978  1.0000
  Fe  Fe84      1.0  0.72298  0.55587  0.58483  1.0000
  S   S169      1.0  0.73098  0.55702  0.66926  1.0000
  S   S170      1.0  0.69022  0.57205  0.54196  1.0000
  Fe  Fe85      1.0  0.72827  0.51600  0.66755  1.0000
  S   S171      1.0  0.70801  0.49335  0.72310  1.0000
  S   S172      1.0  0.71752  0.51545  0.58673  1.0000
  C   C590      1.0  0.53373  0.38290  0.29808  1.0000
  C   C591      1.0  0.55597  0.39030  0.31657  1.0000
  C   C592      1.0  0.57724  0.38016  0.29693  1.0000
  C   C593      1.0  0.57640  0.36181  0.26006  1.0000
  C   C594      1.0  0.55415  0.35422  0.24175  1.0000
  C   C595      1.0  0.53285  0.36506  0.26006  1.0000
  H   H707      1.0  0.55679  0.40403  0.34606  1.0000
  H   H708      1.0  0.59430  0.38607  0.31141  1.0000
  C   C596      1.0  0.53251  0.43654  0.22007  1.0000
  H   H709      1.0  0.71948  0.43620  0.94198  1.0000
  H   H710      1.0  0.62860  0.36694  0.92626  1.0000
  H   H711      1.0  0.59199  0.61832  0.50766  1.0000
  H   H712      1.0  0.64459  0.63916  0.04330  1.0000
  C   C597      1.0  0.66748  0.38516  0.02311  1.0000
  C   C598      1.0  0.67054  0.39054  0.97198  1.0000
  C   C599      1.0  0.67836  0.37234  0.93807  1.0000
  Fe  Fe86      1.0  0.63740  0.34175  0.76555  1.0000
  H   H713      1.0  0.73323  0.46307  0.64962  1.0000
  H   H714      1.0  0.66713  0.40895  0.95860  1.0000
  H   H715      1.0  0.68101  0.37684  0.89892  1.0000
  C   C600      1.0  0.70970  0.41053  0.69567  1.0000
  C   C601      1.0  0.72345  0.42588  0.66568  1.0000
  C   C602      1.0  0.72298  0.45132  0.67359  1.0000
  C   C603      1.0  0.70900  0.46153  0.71222  1.0000
  C   C604      1.0  0.69554  0.44616  0.74272  1.0000
  C   C605      1.0  0.69580  0.42076  0.73434  1.0000
  H   H716      1.0  0.58092  0.63720  0.36926  1.0000
  H   H717      1.0  0.71229  0.39936  0.43817  1.0000
  H   H718      1.0  0.68469  0.45397  0.77261  1.0000
  H   H719      1.0  0.68510  0.40921  0.75759  1.0000
  C   C606      1.0  0.69149  0.61288  0.41230  1.0000
  C   C607      1.0  0.69901  0.60043  0.45649  1.0000
  C   C608      1.0  0.68331  0.58515  0.48171  1.0000
  C   C609      1.0  0.66047  0.58162  0.46053  1.0000
  C   C610      1.0  0.65325  0.59342  0.41543  1.0000
  C   C611      1.0  0.62782  0.59522  0.05859  1.0000
  H   H720      1.0  0.71653  0.60362  0.47235  1.0000
  H   H721      1.0  0.64803  0.57005  0.47977  1.0000
  C   C612      1.0  0.67199  0.36130  0.04006  1.0000
  H   H722      1.0  0.63561  0.59047  0.40018  1.0000
  C   C613      1.0  0.60697  0.33413  0.98539  1.0000
  C   C614      1.0  0.61691  0.53218  0.19471  1.0000
  C   C615      1.0  0.61789  0.53311  0.24743  1.0000
  C   C616      1.0  0.62303  0.51190  0.27533  1.0000
  C   C617      1.0  0.62762  0.48958  0.25079  1.0000
  C   C618      1.0  0.62701  0.48855  0.19802  1.0000
  C   C619      1.0  0.62148  0.50978  0.17008  1.0000
  H   H723      1.0  0.61454  0.55009  0.26695  1.0000
  H   H724      1.0  0.62339  0.51282  0.31613  1.0000
  H   H725      1.0  0.63062  0.47139  0.17873  1.0000
  H   H726      1.0  0.62083  0.50886  0.12930  1.0000
  C   C620      1.0  0.52222  0.52978  0.22770  1.0000
  C   C621      1.0  0.72545  0.41963  0.96096  1.0000
  N   N40       1.0  0.69962  0.51564  0.41499  1.0000
  C   C622      1.0  0.72882  0.48047  0.39530  1.0000
  H   H727      1.0  0.58178  0.46479  0.17740  1.0000
  C   C623      1.0  0.62758  0.60829  0.97248  1.0000
  H   H728      1.0  0.64770  0.59544  0.05892  1.0000
  C   C624      1.0  0.66847  0.60975  0.39169  1.0000
  C   C625      1.0  0.59390  0.63137  0.39907  1.0000
  S   S173      1.0  0.65918  0.62814  0.33905  1.0000
  H   H729      1.0  0.61557  0.36824  0.09320  1.0000
  H   H730      1.0  0.70534  0.36207  0.35004  1.0000
  N   N41       1.0  0.60349  0.33744  0.93034  1.0000
  C   C626      1.0  0.54061  0.48100  0.22413  1.0000
  H   H731      1.0  0.62300  0.35209  0.86773  1.0000
  C   C627      1.0  0.60972  0.35476  0.01758  1.0000
  H   H732      1.0  0.58563  0.61601  0.41946  1.0000
  N   N42       1.0  0.71179  0.40972  0.51661  1.0000
  C   C628      1.0  0.57689  0.59840  0.05278  1.0000
  H   H733      1.0  0.67855  0.44431  0.32927  1.0000
  H   H734      1.0  0.73419  0.41805  0.63581  1.0000
  C   C629      1.0  0.61709  0.64297  0.47229  1.0000
  C   C630      1.0  0.64126  0.65047  0.47504  1.0000
  H   H735      1.0  0.72226  0.43587  0.03315  1.0000
  C   C631      1.0  0.54012  0.61380  0.01498  1.0000
  H   H736      1.0  0.61866  0.65279  0.01432  1.0000
  H   H737      1.0  0.71556  0.54628  0.45374  1.0000
  H   H738      1.0  0.55339  0.34010  0.21315  1.0000
  C   C632      1.0  0.56603  0.45122  0.26706  1.0000
  N   N43       1.0  0.61728  0.61343  0.02303  1.0000
  C   C633      1.0  0.68153  0.51308  0.45520  1.0000
  C   C634      1.0  0.71968  0.37833  0.11510  1.0000
  H   H739      1.0  0.58746  0.64035  0.96075  1.0000
  H   H740      1.0  0.68638  0.55087  0.38935  1.0000
  H   H741      1.0  0.58109  0.46409  0.27014  1.0000
  H   H742      1.0  0.54079  0.41786  0.21844  1.0000
  N   N44       1.0  0.55084  0.45583  0.22189  1.0000
  C   C635      1.0  0.56583  0.45300  0.17613  1.0000
  H   H743      1.0  0.64097  0.33692  0.91449  1.0000
  H   H744      1.0  0.66116  0.61757  0.57612  1.0000
  H   H745      1.0  0.57511  0.49901  0.22517  1.0000
  H   H746      1.0  0.62255  0.57623  0.04878  1.0000
  H   H747      1.0  0.57913  0.35602  0.87926  1.0000
  C   C636      1.0  0.68332  0.34864  0.95512  1.0000
  C   C637      1.0  0.55192  0.59895  0.05005  1.0000
  C   C638      1.0  0.54681  0.52538  0.22716  1.0000
  C   C639      1.0  0.69255  0.45432  0.34823  1.0000
  H   H748      1.0  0.62311  0.62285  0.94472  1.0000
  N   N45       1.0  0.60014  0.65189  0.43301  1.0000
  H   H749      1.0  0.72826  0.51735  0.46979  1.0000
  C   C640      1.0  0.51557  0.48613  0.22444  1.0000
  H   H750      1.0  0.56768  0.64722  0.47591  1.0000
  C   C641      1.0  0.73364  0.45731  0.37464  1.0000
  C   C642      1.0  0.51315  0.63502  0.26822  1.0000
  H   H751      1.0  0.67233  0.52557  0.35984  1.0000
  H   H752      1.0  0.67528  0.64701  0.51329  1.0000
  H   H753      1.0  0.58493  0.37252  0.93553  1.0000
  H   H754      1.0  0.52080  0.43837  0.18614  1.0000
  H   H755      1.0  0.61009  0.62392  0.37980  1.0000
  Fe  Fe87      1.0  0.68058  0.33094  0.83205  1.0000
  S   S174      1.0  0.65664  0.33277  0.69348  1.0000
  H   H756      1.0  0.73325  0.41829  0.16307  1.0000
  S   S175      1.0  0.60104  0.65707  0.26863  1.0000
  H   H757      1.0  0.55274  0.33964  0.81279  1.0000
  C   C643      1.0  0.68747  0.47736  0.36915  1.0000
  C   C644      1.0  0.62543  0.61688  0.54588  1.0000
  S   S176      1.0  0.50752  0.39617  0.32388  1.0000
  H   H758      1.0  0.70127  0.37235  0.53050  1.0000
  C   C645      1.0  0.71703  0.38429  0.53376  1.0000
  H   H759      1.0  0.62230  0.59910  0.09814  1.0000
  H   H760      1.0  0.55543  0.45297  0.30237  1.0000
  H   H761      1.0  0.67733  0.53093  0.47392  1.0000
  H   H762      1.0  0.72492  0.34838  0.42976  1.0000
  C   C646      1.0  0.73526  0.35761  0.40151  1.0000
  Fe  Fe88      1.0  0.62793  0.62633  0.28218  1.0000
  C   C647      1.0  0.68971  0.53192  0.37503  1.0000
  H   H763      1.0  0.68811  0.50042  0.48518  1.0000
  C   C648      1.0  0.72411  0.36535  0.35639  1.0000
  H   H764      1.0  0.66930  0.48430  0.36568  1.0000
  H   H765      1.0  0.70348  0.62543  0.39446  1.0000
  C   C649      1.0  0.60976  0.62562  0.50852  1.0000
  C   C650      1.0  0.50666  0.51020  0.22628  1.0000
  H   H766      1.0  0.73110  0.37505  0.51066  1.0000
  C   C651      1.0  0.70040  0.40864  0.46612  1.0000
  C   C652      1.0  0.61424  0.32901  0.09111  1.0000
  H   H767      1.0  0.70225  0.53314  0.34272  1.0000
  H   H768      1.0  0.60983  0.37314  0.00268  1.0000
  Fe  Fe89      1.0  0.60566  0.65076  0.18484  1.0000
  H   H769      1.0  0.62099  0.59066  0.95704  1.0000
  C   C653      1.0  0.72052  0.52801  0.43777  1.0000
  H   H770      1.0  0.55898  0.54062  0.22791  1.0000
  C   C654      1.0  0.65674  0.64163  0.51266  1.0000
  H   H771      1.0  0.51523  0.54841  0.22919  1.0000
  C   C655      1.0  0.55591  0.50141  0.22550  1.0000
  H   H772      1.0  0.72343  0.38402  0.57367  1.0000
  H   H773      1.0  0.57435  0.43256  0.26625  1.0000
  C   C656      1.0  0.61316  0.35217  0.06960  1.0000
  C   C657      1.0  0.69547  0.42328  0.55114  1.0000
  C   C658      1.0  0.69404  0.44926  0.55088  1.0000
  C   C659      1.0  0.67952  0.41112  0.58377  1.0000
  C   C660      1.0  0.67864  0.46213  0.58340  1.0000
  C   C661      1.0  0.66434  0.42419  0.61628  1.0000
  C   C662      1.0  0.66410  0.44963  0.61652  1.0000
  C   C663      1.0  0.62490  0.34886  0.90894  1.0000
  H   H774      1.0  0.66913  0.35676  0.07910  1.0000
  H   H775      1.0  0.71292  0.42653  0.11373  1.0000
  H   H776      1.0  0.55545  0.45782  0.14149  1.0000
  H   H777      1.0  0.69617  0.42727  0.45144  1.0000
  H   H778      1.0  0.52112  0.43697  0.25443  1.0000
  C   C664      1.0  0.71558  0.44433  0.35091  1.0000
  C   C665      1.0  0.72715  0.41915  0.01367  1.0000
  H   H779      1.0  0.52077  0.61418  0.01310  1.0000
  H   H780      1.0  0.70507  0.45992  0.52636  1.0000
  H   H781      1.0  0.67906  0.39145  0.58644  1.0000
  H   H782      1.0  0.67830  0.48192  0.58405  1.0000
  H   H783      1.0  0.65327  0.41448  0.64268  1.0000
  H   H784      1.0  0.65291  0.45969  0.64301  1.0000
  H   H785      1.0  0.70100  0.38452  0.10764  1.0000
  H   H786      1.0  0.71947  0.42658  0.33418  1.0000
  H   H787      1.0  0.61734  0.64229  0.07799  1.0000
  H   H788      1.0  0.51575  0.35923  0.24562  1.0000
  C   C666      1.0  0.73158  0.41996  0.12121  1.0000
  H   H789      1.0  0.66434  0.50605  0.44050  1.0000
  H   H790      1.0  0.64746  0.60702  0.97386  1.0000
  C   C667      1.0  0.62482  0.63795  0.04011  1.0000
  C   C668      1.0  0.57817  0.62813  0.98549  1.0000
  H   H791      1.0  0.54401  0.63996  0.95552  1.0000
  C   C669      1.0  0.58247  0.35373  0.92053  1.0000
  C   C670      1.0  0.55322  0.62828  0.98260  1.0000
  H   H792      1.0  0.73475  0.53108  0.40949  1.0000
  H   H793      1.0  0.54172  0.58783  0.07561  1.0000
  C   C671      1.0  0.59083  0.61303  0.02042  1.0000
  C   C672      1.0  0.51468  0.64608  0.22087  1.0000
  H   H794      1.0  0.57278  0.43390  0.17161  1.0000
  H   H795      1.0  0.72158  0.37604  0.15664  1.0000
  C   C673      1.0  0.73510  0.42209  0.51174  1.0000
  C   C674      1.0  0.64883  0.62496  0.54809  1.0000
  H   H796      1.0  0.73375  0.43907  0.48900  1.0000
  C   C675      1.0  0.73746  0.37674  0.31916  1.0000
  H   H797      1.0  0.74261  0.42698  0.54930  1.0000
  H   H798      1.0  0.53191  0.65090  0.20613  1.0000
  C   C676      1.0  0.73078  0.39874  0.93261  1.0000
  H   H799      1.0  0.72888  0.39904  0.89186  1.0000
  H   H800      1.0  0.72207  0.35989  0.09797  1.0000
  H   H801      1.0  0.49504  0.66034  0.15684  1.0000
  C   C677      1.0  0.73959  0.37652  0.00944  1.0000
  C   C678      1.0  0.73449  0.39752  0.03959  1.0000
  H   H802      1.0  0.74376  0.48961  0.41242  1.0000
  C   C679      1.0  0.73773  0.37720  0.95682  1.0000
  H   H803      1.0  0.56601  0.34632  0.93754  1.0000
  H   H804      1.0  0.50240  0.47194  0.22311  1.0000
  H   H805      1.0  0.74102  0.36072  0.93470  1.0000
  H   H806      1.0  0.74468  0.35925  0.02633  1.0000
  C   C680      1.0  0.57791  0.66164  0.45671  1.0000
  H   H807      1.0  0.74417  0.43430  0.10929  1.0000
  Fe  Fe90      1.0  0.62541  0.91434  0.52239  1.0000
  S   S177      1.0  0.63005  0.90344  0.44045  1.0000
  S   S178      1.0  0.63605  0.88617  0.58317  1.0000
  Fe  Fe91      1.0  0.60691  0.96567  0.49284  1.0000
  S   S179      1.0  0.60940  0.95797  0.40997  1.0000
  H   H808      1.0  0.54925  0.83823  0.45641  1.0000
  Fe  Fe92      1.0  0.59398  0.92173  0.43055  1.0000
  S   S180      1.0  0.56275  0.90691  0.38666  1.0000
  Fe  Fe93      1.0  0.64543  0.94086  0.42692  1.0000
  S   S181      1.0  0.67990  0.95349  0.38709  1.0000
  S   S182      1.0  0.58884  0.93081  0.51227  1.0000
  S   S183      1.0  0.64356  0.95057  0.51027  1.0000
  Fe  Fe94      1.0  0.56350  0.80310  0.81052  1.0000
  S   S184      1.0  0.55921  0.79967  0.89598  1.0000
  S   S185      1.0  0.59261  0.82174  0.76328  1.0000
  Fe  Fe95      1.0  0.52065  0.77224  0.78989  1.0000
  S   S186      1.0  0.51219  0.76634  0.87095  1.0000
  H   H809      1.0  0.67553  0.97147  0.06690  1.0000
  Fe  Fe96      1.0  0.51985  0.80587  0.88063  1.0000
  C   C681      1.0  0.51750  0.83271  0.63341  1.0000
  Fe  Fe97      1.0  0.55161  0.75959  0.88344  1.0000
  S   S187      1.0  0.55544  0.72564  0.93513  1.0000
  S   S188      1.0  0.52480  0.81269  0.79786  1.0000
  S   S189      1.0  0.55928  0.76227  0.79951  1.0000
  H   H810      1.0  0.50528  0.72323  0.80335  1.0000
  H   H811      1.0  0.49649  0.94445  0.42117  1.0000
  C   C682      1.0  0.58954  0.82718  0.54998  1.0000
  S   S190      1.0  0.60918  0.68461  0.13380  1.0000
  H   H812      1.0  0.70483  0.92200  0.51592  1.0000
  C   C683      1.0  0.49670  0.79165  0.06625  1.0000
  H   H813      1.0  0.56537  0.66965  0.42811  1.0000
  H   H814      1.0  0.54864  0.94984  0.44901  1.0000
  H   H815      1.0  0.52171  0.82568  0.52174  1.0000
  H   H816      1.0  0.58237  0.81438  0.62327  1.0000
  C   C684      1.0  0.57085  0.71476  0.99036  1.0000
  C   C685      1.0  0.58887  0.72789  0.01449  1.0000
  C   C686      1.0  0.60035  0.71835  0.05810  1.0000
  C   C687      1.0  0.59396  0.69566  0.07857  1.0000
  C   C688      1.0  0.57583  0.68262  0.05464  1.0000
  C   C689      1.0  0.56456  0.69203  0.01075  1.0000
  H   H817      1.0  0.59413  0.74530  0.99938  1.0000
  H   H818      1.0  0.61437  0.72865  0.07611  1.0000
  C   C690      1.0  0.51588  0.79169  0.59990  1.0000
  H   H819      1.0  0.55084  0.68156  0.99241  1.0000
  C   C691      1.0  0.72155  0.88727  0.45412  1.0000
  H   H820      1.0  0.50677  0.84008  0.60117  1.0000
  C   C692      1.0  0.50101  0.88049  0.48373  1.0000
  H   H821      1.0  0.61544  0.68755  0.42472  1.0000
  H   H822      1.0  0.67549  0.87571  0.43504  1.0000
  N   N46       1.0  0.51049  0.77118  0.04263  1.0000
  H   H823      1.0  0.52625  0.77552  0.58569  1.0000
  C   C693      1.0  0.57416  0.81906  0.58750  1.0000
  S   S191      1.0  0.49771  0.75962  0.72566  1.0000
  C   C694      1.0  0.72155  0.95310  0.23491  1.0000
  C   C695      1.0  0.70067  0.93931  0.24022  1.0000
  C   C696      1.0  0.68749  0.93948  0.28579  1.0000
  C   C697      1.0  0.69507  0.95333  0.32733  1.0000
  C   C698      1.0  0.71583  0.96729  0.32189  1.0000
  H   H824      1.0  0.69473  0.92817  0.20889  1.0000
  H   H825      1.0  0.67169  0.92855  0.28894  1.0000
  H   H826      1.0  0.68248  0.91716  0.46874  1.0000
  C   C699      1.0  0.62186  0.86963  0.63299  1.0000
  C   C700      1.0  0.63635  0.85361  0.66142  1.0000
  C   C701      1.0  0.62695  0.83968  0.70081  1.0000
  C   C702      1.0  0.60266  0.84113  0.71322  1.0000
  C   C703      1.0  0.58781  0.85724  0.68506  1.0000
  C   C704      1.0  0.59736  0.87141  0.64503  1.0000
  H   H827      1.0  0.65520  0.85193  0.65306  1.0000
  H   H828      1.0  0.63871  0.82750  0.72188  1.0000
  H   H829      1.0  0.56908  0.85891  0.69425  1.0000
  H   H830      1.0  0.58582  0.88363  0.62362  1.0000
  C   C705      1.0  0.53925  0.89601  0.42387  1.0000
  C   C706      1.0  0.51652  0.89294  0.40248  1.0000
  H   H831      1.0  0.50474  0.82840  0.66408  1.0000
  H   H832      1.0  0.52654  0.98393  0.65647  1.0000
  C   C707      1.0  0.52373  0.88339  0.50494  1.0000
  C   C708      1.0  0.54281  0.89088  0.47503  1.0000
  H   H833      1.0  0.51364  0.89667  0.36281  1.0000
  C   C709      1.0  0.58061  0.83390  0.50280  1.0000
  H   H834      1.0  0.52674  0.87948  0.54449  1.0000
  H   H835      1.0  0.56041  0.89189  0.49142  1.0000
  H   H836      1.0  0.51335  0.70214  0.99065  1.0000
  C   C710      1.0  0.54909  0.81788  0.57897  1.0000
  N   N47       1.0  0.51686  0.97244  0.45809  1.0000
  C   C711      1.0  0.49739  0.88523  0.43236  1.0000
  S   S192      1.0  0.73760  0.95171  0.17621  1.0000
  H   H837      1.0  0.50706  0.74731  0.97850  1.0000
  S   S193      1.0  0.49604  0.82892  0.93182  1.0000
  H   H838      1.0  0.55583  0.78520  0.65656  1.0000
  C   C712      1.0  0.53931  0.96578  0.43121  1.0000
  C   C713      1.0  0.69121  0.90889  0.50245  1.0000
  C   C714      1.0  0.72887  0.96732  0.27614  1.0000
  H   H839      1.0  0.53581  0.96030  0.39134  1.0000
  H   H840      1.0  0.51223  0.93448  0.47678  1.0000
  N   N48       1.0  0.53209  0.81092  0.61881  1.0000
  H   H841      1.0  0.54407  0.76720  0.00322  1.0000
  H   H842      1.0  0.50056  0.67882  0.06522  1.0000
  C   C715      1.0  0.52339  0.97947  0.51036  1.0000
  H   H843      1.0  0.54410  0.78912  0.05476  1.0000
  H   H844      1.0  0.71789  0.85517  0.53530  1.0000
  H   H845      1.0  0.72356  0.88568  0.55934  1.0000
  H   H846      1.0  0.67717  0.90783  0.53199  1.0000
  N   N49       1.0  0.70215  0.88456  0.49139  1.0000
  H   H847      1.0  0.52189  0.69812  0.17803  1.0000
  H   H848      1.0  0.69107  0.84990  0.46155  1.0000
  H   H849      1.0  0.53448  0.96498  0.52919  1.0000
  H   H850      1.0  0.69866  0.90346  0.39549  1.0000
  C   C716      1.0  0.68354  0.86840  0.47040  1.0000
  C   C717      1.0  0.60987  0.67168  0.40134  1.0000
  H   H851      1.0  0.55237  0.98089  0.43226  1.0000
  H   H852      1.0  0.55470  0.81541  0.68471  1.0000
  C   C718      1.0  0.54400  0.80127  0.66508  1.0000
  C   C719      1.0  0.73458  0.90105  0.37062  1.0000
  C   C720      1.0  0.53317  0.78133  0.02363  1.0000
  C   C721      1.0  0.71019  0.87394  0.54029  1.0000
  C   C722      1.0  0.71656  0.89760  0.40601  1.0000
  H   H853      1.0  0.50385  0.78512  0.63016  1.0000
  H   H854      1.0  0.52906  0.84773  0.64712  1.0000
  H   H855      1.0  0.59252  0.84062  0.47414  1.0000
  C   C723      1.0  0.54060  0.82503  0.53052  1.0000
  C   C724      1.0  0.55622  0.83252  0.49290  1.0000
  H   H856      1.0  0.69498  0.87230  0.56715  1.0000
  H   H857      1.0  0.66850  0.86617  0.49740  1.0000
  H   H858      1.0  0.59645  0.67862  0.37343  1.0000
  H   H859      1.0  0.60848  0.82879  0.55805  1.0000
  H   H860      1.0  0.55333  0.74940  0.07959  1.0000
  H   H861      1.0  0.62546  0.66506  0.37869  1.0000
  H   H862      1.0  0.66023  0.99093  0.11182  1.0000
  H   H863      1.0  0.50385  0.79827  0.56919  1.0000
  H   H864      1.0  0.53085  0.79504  0.69326  1.0000
  H   H865      1.0  0.72210  0.97799  0.35359  1.0000
  H   H866      1.0  0.64894  0.66254  0.44770  1.0000
  H   H867      1.0  0.52980  0.79643  0.99618  1.0000
  H   H868      1.0  0.71611  0.98439  0.03413  1.0000
  C   C725      1.0  0.53702  0.74217  0.09444  1.0000
  H   H869      1.0  0.50741  0.98278  0.53424  1.0000
  C   C726      1.0  0.67816  0.98478  0.09832  1.0000
  H   H870      1.0  0.68697  0.97419  0.12933  1.0000
  C   C727      1.0  0.53965  0.72332  0.12964  1.0000
  C   C728      1.0  0.50215  0.95016  0.45978  1.0000
  C   C729      1.0  0.51966  0.71269  0.15067  1.0000
  H   H871      1.0  0.58198  0.67609  0.48503  1.0000
  H   H872      1.0  0.72540  0.98583  0.09825  1.0000
  H   H873      1.0  0.57052  0.66524  0.06987  1.0000
  H   H874      1.0  0.50576  0.79826  0.10112  1.0000
  H   H875      1.0  0.73030  0.90938  0.33446  1.0000
  H   H876      1.0  0.55739  0.71685  0.14068  1.0000
  C   C730      1.0  0.51403  0.75107  0.07938  1.0000
  C   C731      1.0  0.50315  0.99281  0.43432  1.0000
  C   C732      1.0  0.49695  0.76222  0.99827  1.0000
  C   C733      1.0  0.49687  0.72081  0.13654  1.0000
  C   C734      1.0  0.49586  0.69400  0.99119  1.0000
  Fe  Fe98      1.0  0.85668  0.17075  0.22630  1.0000
  S   S194      1.0  0.83815  0.20263  0.26500  1.0000
  S   S195      1.0  0.83449  0.14747  0.17326  1.0000
  Fe  Fe99      1.0  0.90465  0.18344  0.27105  1.0000
  S   S196      1.0  0.88975  0.21579  0.31265  1.0000
  S   S197      1.0  0.94392  0.17677  0.28308  1.0000
  Fe  Fe100     1.0  0.85994  0.19138  0.33292  1.0000
  S   S198      1.0  0.84593  0.19421  0.41265  1.0000
  Fe  Fe101     1.0  0.86994  0.22408  0.24102  1.0000
  S   S199      1.0  0.86901  0.26423  0.22055  1.0000
  S   S200      1.0  0.87611  0.15798  0.29626  1.0000
  S   S201      1.0  0.88703  0.19326  0.19733  1.0000
  Fe  Fe102     1.0  0.88581  0.12583  0.66121  1.0000
  S   S202      1.0  0.87445  0.15918  0.70530  1.0000
  S   S203      1.0  0.89238  0.12317  0.57708  1.0000
  Fe  Fe103     1.0  0.89538  0.09554  0.75646  1.0000
  S   S204      1.0  0.88497  0.12656  0.80835  1.0000
  S   S205      1.0  0.90815  0.06041  0.79319  1.0000
  Fe  Fe104     1.0  0.85435  0.13303  0.75454  1.0000
  S   S206      1.0  0.81505  0.13559  0.77643  1.0000
  Fe  Fe105     1.0  0.90599  0.14967  0.75519  1.0000
  S   S207      1.0  0.93411  0.17694  0.77628  1.0000
  S   S208      1.0  0.86342  0.10007  0.70604  1.0000
  S   S209      1.0  0.91870  0.11813  0.70792  1.0000
  S   S210      1.0  0.89787  0.30014  0.00173  1.0000
  H   H877      1.0  0.74935  0.05998  0.07162  1.0000
  C   C735      1.0  0.91307  0.03435  0.75535  1.0000
  C   C736      1.0  0.80455  0.17522  0.90568  1.0000
  C   C737      1.0  0.90983  0.03464  0.70297  1.0000
  H   H878      1.0  0.80022  0.31274  0.41798  1.0000
  H   H879      1.0  0.90409  0.05136  0.68439  1.0000
  C   C738      1.0  0.78820  0.09431  0.00441  1.0000
  C   C739      1.0  0.78532  0.16025  0.26901  1.0000
  C   C740      1.0  0.96155  0.16208  0.79045  1.0000
  C   C741      1.0  0.96199  0.13785  0.80695  1.0000
  H   H880      1.0  0.88842  0.05530  0.89852  1.0000
  H   H881      1.0  0.94542  0.12836  0.81220  1.0000
  S   S211      1.0  0.76563  0.02889  0.98879  1.0000
  S   S212      1.0  0.76806  0.01297  0.14039  1.0000
  H   H882      1.0  0.80331  0.15408  0.25585  1.0000
  H   H883      1.0  0.92891  0.22281  0.23997  1.0000
  C   C742      1.0  0.87097  0.01239  0.87280  1.0000
  C   C743      1.0  0.87752  0.27383  0.15979  1.0000
  C   C744      1.0  0.88218  0.29864  0.15163  1.0000
  C   C745      1.0  0.88845  0.30699  0.10340  1.0000
  C   C746      1.0  0.88971  0.29060  0.06279  1.0000
  C   C747      1.0  0.88497  0.26580  0.07092  1.0000
  C   C748      1.0  0.87915  0.25739  0.11933  1.0000
  H   H884      1.0  0.88091  0.31148  0.18275  1.0000
  C   C749      1.0  0.99218  0.17090  0.59332  1.0000
  H   H885      1.0  0.88570  0.25302  0.03964  1.0000
  H   H886      1.0  0.87534  0.23830  0.12508  1.0000
  C   C750      1.0  0.85941  0.17501  0.45869  1.0000
  C   C751      1.0  0.85256  0.17722  0.50949  1.0000
  C   C752      1.0  0.86268  0.16167  0.54649  1.0000
  C   C753      1.0  0.87955  0.14367  0.53271  1.0000
  C   C754      1.0  0.88654  0.14168  0.48202  1.0000
  C   C755      1.0  0.87668  0.15738  0.44527  1.0000
  H   H887      1.0  0.83924  0.19084  0.52022  1.0000
  H   H888      1.0  0.85715  0.16334  0.58542  1.0000
  H   H889      1.0  0.89950  0.12774  0.47101  1.0000
  H   H890      1.0  0.88216  0.15549  0.40642  1.0000
  C   C756      1.0  0.83252  0.11577  0.18447  1.0000
  C   C757      1.0  0.84651  0.10417  0.22141  1.0000
  C   C758      1.0  0.84481  0.07883  0.22886  1.0000
  C   C759      1.0  0.82942  0.06487  0.19891  1.0000
  C   C760      1.0  0.81548  0.07643  0.16179  1.0000
  C   C761      1.0  0.81675  0.10185  0.15526  1.0000
  H   H891      1.0  0.85875  0.11460  0.24412  1.0000
  H   H892      1.0  0.85555  0.07000  0.25782  1.0000
  H   H893      1.0  0.80336  0.06585  0.13895  1.0000
  H   H894      1.0  0.80548  0.11071  0.12753  1.0000
  C   C762      1.0  0.81569  0.16392  0.86379  1.0000
  C   C763      1.0  0.80230  0.14975  0.83037  1.0000
  C   C764      1.0  0.77785  0.14666  0.83972  1.0000
  C   C765      1.0  0.76680  0.15767  0.88193  1.0000
  H   H895      1.0  0.83450  0.16649  0.85690  1.0000
  H   H896      1.0  0.76735  0.13579  0.81393  1.0000
  S   S213      1.0  0.82705  0.03333  0.21059  1.0000
  N   N50       1.0  0.94034  0.23414  0.42799  1.0000
  C   C766      1.0  0.93594  0.20760  0.42055  1.0000
  C   C767      1.0  0.94417  0.24552  0.37824  1.0000
  C   C768      1.0  0.96201  0.23805  0.45912  1.0000
  H   H897      1.0  0.93293  0.15074  0.52672  1.0000
  S   S214      1.0  0.81694  0.01058  0.07254  1.0000
  C   C769      1.0  0.78153  0.10820  0.26663  1.0000
  H   H898      1.0  0.77036  0.18099  0.18754  1.0000
  H   H899      1.0  0.87204  0.05975  0.95616  1.0000
  H   H900      1.0  0.91826  0.20423  0.40266  1.0000
  C   C770      1.0  0.87954  0.04564  0.92992  1.0000
  H   H901      1.0  0.95995  0.23731  0.35894  1.0000
  H   H902      1.0  0.92853  0.24347  0.35271  1.0000
  C   C771      1.0  0.95059  0.15749  0.59742  1.0000
  C   C772      1.0  0.77703  0.21974  0.75718  1.0000
  H   H903      1.0  0.79328  0.07187  0.28788  1.0000
  N   N51       1.0  0.90301  0.28551  0.83532  1.0000
  C   C773      1.0  0.88348  0.29998  0.85966  1.0000
  C   C774      1.0  0.91571  0.27171  0.87588  1.0000
  C   C775      1.0  0.92024  0.30252  0.81290  1.0000
  C   C776      1.0  0.89313  0.26975  0.79495  1.0000
  C   C777      1.0  0.89736  0.24402  0.79290  1.0000
  C   C778      1.0  0.87936  0.28022  0.75502  1.0000
  C   C779      1.0  0.88812  0.22983  0.75357  1.0000
  C   C780      1.0  0.87012  0.26584  0.71604  1.0000
  C   C781      1.0  0.87448  0.24067  0.71533  1.0000
  H   H904      1.0  0.94967  0.26185  0.23043  1.0000
  C   C782      1.0  0.95291  0.23714  0.10224  1.0000
  H   H905      1.0  0.87431  0.31274  0.83318  1.0000
  H   H906      1.0  0.90359  0.25873  0.89477  1.0000
  H   H907      1.0  0.80065  0.28854  0.29670  1.0000
  H   H908      1.0  0.93157  0.26146  0.86111  1.0000
  C   C783      1.0  0.85366  0.01366  0.95530  1.0000
  H   H909      1.0  0.93617  0.19778  0.45721  1.0000
  C   C784      1.0  0.98998  0.17032  0.53990  1.0000
  H   H910      1.0  0.90790  0.23429  0.82086  1.0000
  H   H911      1.0  0.87578  0.29972  0.75322  1.0000
  H   H912      1.0  0.89177  0.21025  0.75257  1.0000
  H   H913      1.0  0.85965  0.27436  0.68606  1.0000
  H   H914      1.0  0.87733  0.02260  0.83940  1.0000
  H   H915      1.0  0.88468  0.08006  0.11096  1.0000
  H   H916      1.0  0.82990  0.08734  0.79980  1.0000
  H   H917      1.0  0.79948  0.22299  0.44219  1.0000
  C   C785      1.0  0.98384  0.12608  0.81827  1.0000
  H   H918      1.0  0.93385  0.28084  0.12039  1.0000
  H   H919      1.0  0.99230  0.19041  0.30556  1.0000
  H   H920      1.0  0.82965  0.28899  0.26780  1.0000
  C   C786      1.0  0.96889  0.16302  0.51621  1.0000
  H   H921      1.0  0.85755  0.02715  0.69128  1.0000
  C   C787      1.0  0.94926  0.15657  0.54496  1.0000
  H   H922      1.0  0.86247  0.06340  0.83672  1.0000
  C   C788      1.0  0.96352  0.25753  0.49468  1.0000
  C   C789      1.0  0.84856  0.01495  0.71687  1.0000
  H   H923      1.0  0.86975  0.28781  0.87563  1.0000
  H   H924      1.0  0.81883  0.26114  0.29297  1.0000
  C   C790      1.0  0.81494  0.27770  0.38970  1.0000
  H   H925      1.0  0.95801  0.25065  0.00402  1.0000
  H   H926      1.0  0.99311  0.27611  0.00615  1.0000
  C   C791      1.0  0.98494  0.26251  0.51978  1.0000
  C   C792      1.0  0.77979  0.21734  0.80917  1.0000
  C   C793      1.0  0.98054  0.04425  0.72095  1.0000
  C   C794      1.0  0.81344  0.25212  0.39743  1.0000
  H   H927      1.0  0.97074  0.00385  0.78242  1.0000
  C   C795      1.0  0.87002  0.08612  0.08691  1.0000
  C   C796      1.0  0.86684  0.11087  0.07628  1.0000
  H   H928      1.0  0.93132  0.26230  0.03263  1.0000
  H   H929      1.0  0.78506  0.18061  0.26832  1.0000
  H   H930      1.0  0.81120  0.02751  0.93304  1.0000
  H   H931      1.0  0.96658  0.99702  0.62971  1.0000
  H   H932      1.0  0.96539  0.03145  0.72236  1.0000
  C   C797      1.0  0.79965  0.24261  0.43622  1.0000
  C   C798      1.0  0.78684  0.28339  0.45994  1.0000
  H   H933      1.0  0.93535  0.29240  0.79467  1.0000
  C   C799      1.0  0.75320  0.08469  0.19483  1.0000
  C   C800      1.0  0.76128  0.22436  0.84176  1.0000
  H   H934      1.0  0.91187  0.31427  0.78343  1.0000
  H   H935      1.0  0.98005  0.06138  0.84443  1.0000
  H   H936      1.0  0.77948  0.05167  0.89397  1.0000
  H   H937      1.0  0.89412  0.03559  0.95031  1.0000
  H   H938      1.0  0.97288  0.06144  0.70450  1.0000
  H   H939      1.0  0.93305  0.23628  0.09969  1.0000
  H   H940      1.0  0.79134  0.21393  0.73216  1.0000
  S   S215      1.0  0.76675  0.18701  0.96747  1.0000
  H   H941      1.0  0.92783  0.31516  0.84165  1.0000
  C   C801      1.0  0.98313  0.17442  0.78521  1.0000
  Fe  Fe106     1.0  0.77786  0.00938  0.05863  1.0000
  H   H942      1.0  0.95849  0.29894  0.10066  1.0000
  H   H943      1.0  0.94770  0.26537  0.38206  1.0000
  H   H944      1.0  0.97135  0.16479  0.66240  1.0000
  C   C802      1.0  0.80268  0.07115  0.84473  1.0000
  C   C803      1.0  0.80078  0.29309  0.42156  1.0000
  H   H945      1.0  0.78419  0.09010  0.04452  1.0000
  H   H946      1.0  0.77154  0.10209  0.98708  1.0000
  H   H947      1.0  0.82251  0.09551  0.93227  1.0000
  C   C804      1.0  0.91832  0.24524  0.45037  1.0000
  C   C805      1.0  0.95918  0.24624  0.24610  1.0000
  C   C806      1.0  0.85397  0.06927  0.06770  1.0000
  H   H948      1.0  0.79145  0.07686  0.98372  1.0000
  C   C807      1.0  0.78007  0.17218  0.91484  1.0000
  H   H949      1.0  0.81493  0.18651  0.93091  1.0000
  H   H950      1.0  0.82310  0.23920  0.37380  1.0000
  H   H951      1.0  0.86743  0.22954  0.68493  1.0000
  H   H952      1.0  0.78202  0.14063  0.00290  1.0000
  H   H953      1.0  0.82233  0.06325  0.02584  1.0000
  N   N52       1.0  0.80860  0.11124  0.00076  1.0000
  C   C808      1.0  0.79990  0.13566  0.01871  1.0000
  H   H954      1.0  0.79835  0.13636  0.06048  1.0000
  H   H955      1.0  0.82957  0.12694  0.94173  1.0000
  H   H956      1.0  0.79988  0.11886  0.92313  1.0000
  C   C809      1.0  0.81540  0.11321  0.94711  1.0000
  H   H957      1.0  0.81160  0.15078  0.00698  1.0000
  C   C810      1.0  0.82978  0.10248  0.02975  1.0000
  C   C811      1.0  0.83426  0.07718  0.03897  1.0000
  C   C812      1.0  0.85446  0.27603  0.35186  1.0000
  H   H958      1.0  0.94867  0.26985  0.50225  1.0000
  N   N53       1.0  0.76613  0.14987  0.23684  1.0000
  H   H959      1.0  0.98399  0.10773  0.83299  1.0000
  C   C813      1.0  0.94731  0.22416  0.25202  1.0000
  H   H960      1.0  0.84556  0.32084  0.32264  1.0000
  C   C814      1.0  0.84724  0.11899  0.04755  1.0000
  H   H961      1.0  0.84565  0.13843  0.04108  1.0000
  C   C815      1.0  0.95920  0.20400  0.27345  1.0000
  C   C816      1.0  0.92061  0.01271  0.77893  1.0000
  H   H962      1.0  0.77582  0.25081  0.49773  1.0000
  H   H963      1.0  0.89026  0.31150  0.89125  1.0000
  H   H964      1.0  0.95700  0.23445  0.14288  1.0000
  H   H965      1.0  0.92335  0.01240  0.81939  1.0000
  H   H966      1.0  0.87913  0.12402  0.09203  1.0000
  H   H967      1.0  0.78398  0.15301  0.16544  1.0000
  H   H968      1.0  0.76466  0.22177  0.88156  1.0000
  H   H969      1.0  0.99398  0.03668  0.69406  1.0000
  C   C817      1.0  0.83287  0.31428  0.35160  1.0000
  H   H970      1.0  0.92241  0.28418  0.90600  1.0000
  C   C818      1.0  0.75265  0.11022  0.19820  1.0000
  H   H971      1.0  0.98281  0.19335  0.77361  1.0000
  H   H972      1.0  0.93513  0.15254  0.61944  1.0000
  H   H973      1.0  0.96778  0.16217  0.47537  1.0000
  H   H974      1.0  0.99319  0.24628  0.15806  1.0000
  C   C819      1.0  0.76823  0.16080  0.18579  1.0000
  H   H975      1.0  0.95381  0.28311  0.01723  1.0000
  H   H976      1.0  0.84568  0.02497  0.98604  1.0000
  C   C820      1.0  0.76716  0.12282  0.23363  1.0000
  C   C821      1.0  0.95102  0.26431  0.03177  1.0000
  H   H977      1.0  0.92919  0.30921  0.36911  1.0000
  C   C822      1.0  0.93551  0.31369  0.40666  1.0000
  C   C823      1.0  0.98845  0.26028  0.08151  1.0000
  S   S216      1.0  0.88831  0.31705  0.43211  1.0000
  C   C824      1.0  0.79779  0.05416  0.88208  1.0000
  C   C825      1.0  0.75581  0.22948  0.73745  1.0000
  C   C826      1.0  0.82611  0.07425  0.82916  1.0000
  H   H978      1.0  0.97274  0.31224  0.38561  1.0000
  C   C827      1.0  0.78642  0.25822  0.46755  1.0000
  H   H979      1.0  0.91581  0.23901  0.48988  1.0000
  H   H980      1.0  0.86716  0.28489  0.32571  1.0000
  C   C828      1.0  0.76750  0.07095  0.22773  1.0000
  H   H981      1.0  0.82333  0.04255  0.74136  1.0000
  H   H982      1.0  0.78345  0.15514  0.30937  1.0000
  N   N54       1.0  0.96198  0.26060  0.08246  1.0000
  C   C829      1.0  0.98306  0.20598  0.28890  1.0000
  H   H983      1.0  0.85632  0.05008  0.07706  1.0000
  C   C830      1.0  0.96016  0.31537  0.41594  1.0000
  H   H984      1.0  0.96161  0.27936  0.15436  1.0000
  H   H985      1.0  0.86198  0.27748  0.39071  1.0000
  C   C831      1.0  0.81634  0.04035  0.90438  1.0000
  H   H986      1.0  0.91067  0.01321  0.63420  1.0000
  N   N55       1.0  0.83012  0.28733  0.34905  1.0000
  C   C832      1.0  0.95363  0.28078  0.11590  1.0000
  H   H987      1.0  0.89204  0.32612  0.09760  1.0000
  C   C833      1.0  0.84051  0.04327  0.88957  1.0000
  C   C834      1.0  0.97253  0.05708  0.80648  1.0000
  N   N56       1.0  0.86066  0.02894  0.91181  1.0000
  H   H988      1.0  0.78836  0.08204  0.82775  1.0000
  H   H989      1.0  0.74795  0.15523  0.88844  1.0000
  Fe  Fe107     1.0  0.80761  0.01000  0.15397  1.0000
  H   H990      1.0  0.75208  0.15810  0.16200  1.0000
  H   H991      1.0  0.77644  0.29560  0.48413  1.0000
  H   H992      1.0  0.76840  0.05118  0.22459  1.0000
  H   H993      1.0  0.91844  0.26558  0.44982  1.0000
  C   C835      1.0  0.91368  0.01306  0.67460  1.0000
  H   H994      1.0  0.91485  0.32703  0.52424  1.0000
  C   C836      1.0  0.97167  0.16453  0.62159  1.0000
  H   H995      1.0  0.90197  0.24029  0.42870  1.0000
  C   C837      1.0  0.91907  0.31833  0.44539  1.0000
  H   H996      1.0  0.85477  0.25642  0.34090  1.0000
  C   C838      1.0  0.84472  0.06048  0.85088  1.0000
  H   H997      1.0  0.95862  0.04318  0.81186  1.0000
  C   C839      1.0  0.81930  0.28124  0.29954  1.0000
  H   H998      1.0  0.85750  0.99923  0.85910  1.0000
  H   H999      1.0  0.79633  0.20971  0.82431  1.0000
  H   H1000     1.0  0.79337  0.11597  0.29443  1.0000
  C   C840      1.0  0.78152  0.08267  0.26362  1.0000
  H   H1001     1.0  0.80274  0.01499  0.79996  1.0000
  C   C841      1.0  0.92736  0.32398  0.49384  1.0000
  H   H1002     1.0  0.94899  0.19861  0.39457  1.0000
  C   C842      1.0  0.98302  0.24824  0.26137  1.0000
  H   H1003     1.0  0.84013  0.31992  0.38898  1.0000
  C   C843      1.0  0.82933  0.02367  0.74521  1.0000
  H   H1004     1.0  0.96300  0.07382  0.79238  1.0000
  H   H1005     1.0  0.81566  0.32426  0.34460  1.0000
  H   H1006     1.0  0.96057  0.22122  0.08108  1.0000
  C   C844      1.0  0.98914  0.00415  0.79455  1.0000
  H   H1007     1.0  0.75366  0.23139  0.69694  1.0000
  H   H1008     1.0  0.98413  0.21024  0.42100  1.0000
  N   N57       1.0  0.99149  0.04861  0.77130  1.0000
  C   C845      1.0  0.95198  0.32565  0.50310  1.0000
  H   H1009     1.0  0.88651  0.00157  0.88772  1.0000
  C   C846      1.0  0.81777  0.00808  0.77810  1.0000
  C   C847      1.0  0.98332  0.22417  0.45002  1.0000
  C   C848      1.0  0.96842  0.32180  0.46402  1.0000
  H   H1010     1.0  0.98596  0.27819  0.54493  1.0000
  H   H1011     1.0  0.86921  0.00355  0.97219  1.0000
  H   H1012     1.0  0.84077  0.99930  0.94424  1.0000
  S   S217      1.0  0.83243  0.32487  0.52333  1.0000
  H   H1013     1.0  0.74868  0.41037  0.49202  1.0000
  H   H1014     1.0  0.87795  0.36105  0.83209  1.0000
  H   H1015     1.0  0.91924  0.40188  0.63042  1.0000
  Fe  Fe108     1.0  0.85199  0.39169  0.51165  1.0000
  S   S218      1.0  0.81978  0.38134  0.55551  1.0000
  S   S219      1.0  0.86257  0.43092  0.51288  1.0000
  C   C849      1.0  0.95338  0.38544  0.61296  1.0000
  H   H1016     1.0  0.98914  0.58931  0.20761  1.0000
  Fe  Fe109     1.0  0.81158  0.35664  0.49018  1.0000
  S   S220      1.0  0.77263  0.35204  0.46797  1.0000
  S   S221      1.0  0.87609  0.36322  0.54588  1.0000
  S   S222      1.0  0.84205  0.36969  0.44329  1.0000
  Fe  Fe110     1.0  0.93687  0.60206  0.94413  1.0000
  S   S223      1.0  0.94425  0.59289  0.02482  1.0000
  S   S224      1.0  0.96674  0.61840  0.89929  1.0000
  Fe  Fe111     1.0  0.88529  0.58419  0.94637  1.0000
  S   S225      1.0  0.88888  0.57548  0.02992  1.0000
  S   S226      1.0  0.85034  0.57165  0.90796  1.0000
  Fe  Fe112     1.0  0.90885  0.61084  0.03979  1.0000
  S   S227      1.0  0.90483  0.63734  0.10758  1.0000
  Fe  Fe113     1.0  0.92425  0.55879  0.00868  1.0000
  S   S228      1.0  0.94100  0.52406  0.03873  1.0000
  S   S229      1.0  0.90165  0.62142  0.95842  1.0000
  S   S230      1.0  0.92032  0.56589  0.92585  1.0000
  N   N58       1.0  0.94414  0.56917  0.18502  1.0000
  C   C850      1.0  0.81024  0.49135  0.74143  1.0000
  Fe  Fe114     1.0  0.90444  0.39460  0.98661  1.0000
  S   S231      1.0  0.93780  0.39964  0.94183  1.0000
  S   S232      1.0  0.88167  0.42788  0.00576  1.0000
  Fe  Fe115     1.0  0.92469  0.36811  0.89557  1.0000
  S   S233      1.0  0.92837  0.36839  0.81072  1.0000
  Fe  Fe116     1.0  0.95357  0.37117  0.99345  1.0000
  S   S234      1.0  0.94391  0.33993  0.94283  1.0000
  S   S235      1.0  0.89005  0.36491  0.93645  1.0000
  S   S236      1.0  0.92102  0.36818  0.04214  1.0000
  C   C851      1.0  0.94120  0.39430  0.51030  1.0000
  S   S237      1.0  0.76146  0.48245  0.51158  1.0000
  H   H1017     1.0  0.89313  0.51939  0.80758  1.0000
  H   H1018     1.0  0.80206  0.43278  0.59974  1.0000
  S   S238      1.0  0.80370  0.56638  0.68482  1.0000
  C   C852      1.0  0.88480  0.42775  0.82944  1.0000
  C   C853      1.0  0.83800  0.57009  0.84529  1.0000
  C   C854      1.0  0.84978  0.57905  0.80292  1.0000
  C   C855      1.0  0.83904  0.57767  0.75445  1.0000
  C   C856      1.0  0.81642  0.56722  0.74722  1.0000
  C   C857      1.0  0.80489  0.55776  0.78943  1.0000
  C   C858      1.0  0.81559  0.55922  0.83793  1.0000
  H   H1019     1.0  0.86700  0.58743  0.80753  1.0000
  H   H1020     1.0  0.84824  0.58503  0.72229  1.0000
  H   H1021     1.0  0.78750  0.54974  0.78488  1.0000
  H   H1022     1.0  0.80620  0.55221  0.87018  1.0000
  H   H1023     1.0  0.76632  0.43340  0.71833  1.0000
  C   C859      1.0  0.88161  0.42850  0.77732  1.0000
  Fe  Fe117     1.0  0.75631  0.51131  0.57089  1.0000
  C   C860      1.0  0.92414  0.49750  0.03118  1.0000
  C   C861      1.0  0.93592  0.47467  0.03003  1.0000
  C   C862      1.0  0.92296  0.45321  0.02297  1.0000
  C   C863      1.0  0.89809  0.45443  0.01790  1.0000
  C   C864      1.0  0.88622  0.47722  0.02097  1.0000
  C   C865      1.0  0.89924  0.49878  0.02676  1.0000
  H   H1024     1.0  0.95514  0.47356  0.03407  1.0000
  H   H1025     1.0  0.93222  0.43570  0.02203  1.0000
  H   H1026     1.0  0.86694  0.47820  0.01836  1.0000
  H   H1027     1.0  0.88999  0.51632  0.02836  1.0000
  Fe  Fe118     1.0  0.86370  0.33988  0.48141  1.0000
  H   H1028     1.0  0.84397  0.35107  0.77575  1.0000
  N   N59       1.0  0.88062  0.49522  0.86559  1.0000
  H   H1029     1.0  0.97472  0.62864  0.00531  1.0000
  C   C866      1.0  0.83549  0.44717  0.50777  1.0000
  C   C867      1.0  0.83229  0.46987  0.53166  1.0000
  C   C868      1.0  0.80948  0.48100  0.53325  1.0000
  C   C869      1.0  0.79027  0.46982  0.50897  1.0000
  C   C870      1.0  0.79383  0.44779  0.48293  1.0000
  C   C871      1.0  0.81630  0.43626  0.48312  1.0000
  H   H1030     1.0  0.84719  0.47837  0.55049  1.0000
  H   H1031     1.0  0.80675  0.49815  0.55317  1.0000
  H   H1032     1.0  0.77915  0.43936  0.46327  1.0000
  H   H1033     1.0  0.81873  0.41887  0.46411  1.0000
  C   C872      1.0  0.75966  0.36166  0.41022  1.0000
  H   H1034     1.0  0.99309  0.50099  0.98629  1.0000
  H   H1035     1.0  0.91341  0.59788  0.24165  1.0000
  H   H1036     1.0  0.90404  0.51344  0.91822  1.0000
  H   H1037     1.0  0.87505  0.45131  0.71288  1.0000
  H   H1038     1.0  0.79172  0.37656  0.37954  1.0000
  H   H1039     1.0  0.91816  0.55439  0.23595  1.0000
  C   C873      1.0  0.77295  0.37329  0.37322  1.0000
  C   C874      1.0  0.95019  0.58991  0.21867  1.0000
  C   C875      1.0  0.76190  0.38064  0.32774  1.0000
  Fe  Fe119     1.0  0.84313  0.35094  0.58509  1.0000
  C   C876      1.0  0.90338  0.36322  0.77179  1.0000
  C   C877      1.0  0.90659  0.36156  0.71947  1.0000
  C   C878      1.0  0.88733  0.35613  0.68744  1.0000
  H   H1040     1.0  0.80298  0.50275  0.77151  1.0000
  H   H1041     1.0  0.87938  0.53462  0.85981  1.0000
  H   H1042     1.0  0.92417  0.36394  0.70376  1.0000
  H   H1043     1.0  0.94911  0.43514  0.45947  1.0000
  C   C879      1.0  0.99272  0.62522  0.93422  1.0000
  C   C880      1.0  0.86472  0.35221  0.70760  1.0000
  S   S239      1.0  0.84049  0.34400  0.66885  1.0000
  H   H1044     1.0  0.88639  0.44767  0.89835  1.0000
  C   C881      1.0  0.90328  0.49650  0.89480  1.0000
  H   H1045     1.0  0.90794  0.58113  0.16576  1.0000
  H   H1046     1.0  0.83506  0.45272  0.63002  1.0000
  H   H1047     1.0  0.77234  0.38946  0.29910  1.0000
  C   C882      1.0  0.99150  0.62931  0.98625  1.0000
  H   H1048     1.0  0.91903  0.49618  0.86933  1.0000
  H   H1049     1.0  0.88241  0.41171  0.75541  1.0000
  H   H1050     1.0  0.98612  0.36968  0.58427  1.0000
  H   H1051     1.0  0.95959  0.54419  0.13004  1.0000
  C   C883      1.0  0.92567  0.40135  0.55024  1.0000
  H   H1052     1.0  0.91953  0.66156  0.02127  1.0000
  H   H1053     1.0  0.84890  0.49432  0.64375  1.0000
  H   H1054     1.0  0.86091  0.51945  0.81538  1.0000
  H   H1055     1.0  0.86128  0.47916  0.92714  1.0000
  C   C884      1.0  0.96483  0.55940  0.15573  1.0000
  H   H1056     1.0  0.94809  0.54268  0.24426  1.0000
  C   C885      1.0  0.86033  0.49510  0.90131  1.0000
  H   H1057     1.0  0.88812  0.41033  0.84792  1.0000
  C   C886      1.0  0.87693  0.47261  0.78151  1.0000
  H   H1058     1.0  0.95406  0.36898  0.42395  1.0000
  C   C887      1.0  0.87753  0.45084  0.75346  1.0000
  H   H1059     1.0  0.92215  0.56257  0.11910  1.0000
  H   H1060     1.0  0.85983  0.51191  0.92542  1.0000
  H   H1061     1.0  0.97905  0.55164  0.18073  1.0000
  N   N60       1.0  0.80029  0.42855  0.68097  1.0000
  C   C888      1.0  0.78897  0.42925  0.63017  1.0000
  C   C889      1.0  0.81980  0.40975  0.68092  1.0000
  C   C890      1.0  0.78195  0.42052  0.71736  1.0000
  C   C891      1.0  0.81008  0.45289  0.69291  1.0000
  C   C892      1.0  0.96342  0.38311  0.52423  1.0000
  C   C893      1.0  0.82788  0.46293  0.66170  1.0000
  H   H1062     1.0  0.78807  0.46186  0.75933  1.0000
  H   H1063     1.0  0.95011  0.66109  0.04174  1.0000
  H   H1064     1.0  0.93021  0.53285  0.19141  1.0000
  H   H1065     1.0  0.78043  0.41161  0.62043  1.0000
  H   H1066     1.0  0.77502  0.44404  0.62795  1.0000
  H   H1067     1.0  0.83310  0.41271  0.65068  1.0000
  H   H1068     1.0  0.96460  0.64505  0.30857  1.0000
  H   H1069     1.0  0.90596  0.38987  0.40493  1.0000
  H   H1070     1.0  0.77470  0.40230  0.70700  1.0000
  H   H1071     1.0  0.78946  0.41880  0.75619  1.0000
  H   H1072     1.0  0.96959  0.39766  0.42428  1.0000
  C   C894      1.0  0.97403  0.59779  0.22638  1.0000
  N   N61       1.0  0.93431  0.39919  0.45712  1.0000
  H   H1073     1.0  0.95794  0.38180  0.65208  1.0000
  S   S240      1.0  0.76202  0.55162  0.56480  1.0000
  H   H1074     1.0  0.93094  0.59379  0.12831  1.0000
  C   C895      1.0  0.93474  0.54891  0.21554  1.0000
  C   C896      1.0  0.95179  0.38917  0.41997  1.0000
  H   H1075     1.0  0.92288  0.63228  0.29666  1.0000
  H   H1076     1.0  0.76568  0.36944  0.09675  1.0000
  H   H1077     1.0  0.92765  0.43049  0.40949  1.0000
  C   C897      1.0  0.93163  0.39675  0.60069  1.0000
  H   H1078     1.0  0.87376  0.48925  0.76061  1.0000
  S   S241      1.0  0.76695  0.50842  0.65217  1.0000
  C   C898      1.0  0.93717  0.62232  0.27761  1.0000
  C   C899      1.0  0.93195  0.60273  0.24558  1.0000
  H   H1079     1.0  0.90567  0.48111  0.92162  1.0000
  C   C900      1.0  0.87843  0.51800  0.83542  1.0000
  C   C901      1.0  0.88405  0.44935  0.85791  1.0000
  C   C902      1.0  0.83606  0.48666  0.66943  1.0000
  H   H1080     1.0  0.81284  0.39102  0.67430  1.0000
  C   C903      1.0  0.80172  0.46772  0.73372  1.0000
  C   C904      1.0  0.96068  0.62954  0.28438  1.0000
  H   H1081     1.0  0.77478  0.40070  0.09330  1.0000
  Fe  Fe120     1.0  0.76984  0.54942  0.64963  1.0000
  H   H1082     1.0  0.89600  0.39696  0.46678  1.0000
  C   C905      1.0  0.88068  0.35972  0.79192  1.0000
  H   H1083     1.0  0.94243  0.65489  0.97699  1.0000
  C   C906      1.0  0.96927  0.37875  0.57482  1.0000
  H   H1084     1.0  0.84296  0.49434  0.88079  1.0000
  H   H1085     1.0  0.82955  0.40942  0.71765  1.0000
  H   H1086     1.0  0.90868  0.41035  0.54271  1.0000
  Fe  Fe121     1.0  0.91003  0.33882  0.98763  1.0000
  H   H1087     1.0  0.91109  0.36837  0.45478  1.0000
  C   C907      1.0  0.92551  0.57696  0.14810  1.0000
  H   H1088     1.0  0.97253  0.57373  0.13129  1.0000
  C   C908      1.0  0.88053  0.47254  0.83473  1.0000
  H   H1089     1.0  0.99342  0.38798  0.92879  1.0000
  C   C909      1.0  0.91089  0.38815  0.44552  1.0000
  C   C910      1.0  0.93215  0.42597  0.44939  1.0000
  H   H1090     1.0  0.91772  0.43443  0.47291  1.0000
  C   C911      1.0  0.86144  0.35411  0.75991  1.0000
  H   H1091     1.0  0.94591  0.39252  0.38036  1.0000
  H   H1092     1.0  0.98243  0.54381  0.97729  1.0000
  C   C912      1.0  0.94587  0.65582  0.15819  1.0000
  C   C913      1.0  0.97905  0.61732  0.25884  1.0000
  H   H1093     1.0  0.97648  0.37695  0.49685  1.0000
  C   C914      1.0  0.92076  0.65508  0.15359  1.0000
  S   S242      1.0  0.98902  0.37326  0.03389  1.0000
  H   H1094     1.0  0.89022  0.35423  0.64740  1.0000
  H   H1095     1.0  0.75160  0.44951  0.37660  1.0000
  H   H1096     1.0  0.76384  0.38835  0.15150  1.0000
  H   H1097     1.0  0.83282  0.51962  0.71374  1.0000
  H   H1098     1.0  0.95830  0.33008  0.54063  1.0000
  C   C915      1.0  0.76131  0.38835  0.10969  1.0000
  H   H1099     1.0  0.95688  0.64481  0.13313  1.0000
  C   C916      1.0  0.82710  0.50091  0.70895  1.0000
  Fe  Fe122     1.0  0.81628  0.96952  0.07291  1.0000
  S   S243      1.0  0.80953  0.96890  0.15780  1.0000
  S   S244      1.0  0.84882  0.95887  0.02294  1.0000
  C   C917      1.0  0.96432  0.69896  0.98608  1.0000
  H   H1100     1.0  0.86408  0.94449  0.67999  1.0000
  C   C918      1.0  0.92336  0.69887  0.95634  1.0000
  H   H1101     1.0  0.97745  0.77466  0.52139  1.0000
  Fe  Fe123     1.0  0.76969  0.97177  0.14101  1.0000
  H   H1102     1.0  0.88627  0.92940  0.77950  1.0000
  S   S245      1.0  0.98605  0.80044  0.42553  1.0000
  H   H1103     1.0  0.96686  0.67299  0.92314  1.0000
  H   H1104     1.0  0.87103  0.98462  0.69770  1.0000
  S   S246      1.0  0.96883  0.90686  0.68060  1.0000
  H   H1105     1.0  0.75128  0.87220  0.49959  1.0000
  Fe  Fe124     1.0  0.92173  0.89497  0.78755  1.0000
  S   S247      1.0  0.91256  0.89559  0.70431  1.0000
  S   S248      1.0  0.89052  0.89074  0.84341  1.0000
  Fe  Fe125     1.0  0.94651  0.87335  0.69019  1.0000
  S   S249      1.0  0.95051  0.83741  0.64407  1.0000
  Fe  Fe126     1.0  0.93579  0.92870  0.70201  1.0000
  S   S250      1.0  0.92380  0.96387  0.66302  1.0000
  S   S251      1.0  0.95396  0.87002  0.77424  1.0000
  S   S252      1.0  0.94357  0.92871  0.78490  1.0000
  H   H1106     1.0  0.81563  0.97262  0.80903  1.0000
  C   C919      1.0  0.87917  0.94831  0.77469  1.0000
  C   C920      1.0  0.85219  0.93621  0.70852  1.0000
  H   H1107     1.0  0.85781  0.91657  0.71084  1.0000
  C   C921      1.0  0.84497  0.97416  0.75429  1.0000
  Fe  Fe127     1.0  0.98694  0.72007  0.31940  1.0000
  S   S253      1.0  0.95399  0.70319  0.28060  1.0000
  H   H1108     1.0  0.98824  0.96623  0.81683  1.0000
  H   H1109     1.0  0.88157  0.95812  0.81119  1.0000
  S   S254      1.0  0.98937  0.72536  0.40446  1.0000
  H   H1110     1.0  0.83360  0.93711  0.69343  1.0000
  H   H1111     1.0  0.90643  0.69401  0.25051  1.0000
  C   C922      1.0  0.75806  0.89413  0.38177  1.0000
  C   C923      1.0  0.94257  0.68448  0.23021  1.0000
  Fe  Fe128     1.0  0.97482  0.90437  0.76421  1.0000
  N   N62       1.0  0.85381  0.94855  0.75843  1.0000
  H   H1112     1.0  0.97035  0.72751  0.04325  1.0000
  C   C924      1.0  0.91770  0.68354  0.22498  1.0000
  C   C925      1.0  0.93032  0.70633  0.04459  1.0000
  C   C926      1.0  0.96160  0.82783  0.58367  1.0000
  C   C927      1.0  0.96446  0.84406  0.54356  1.0000
  C   C928      1.0  0.97162  0.83526  0.49555  1.0000
  C   C929      1.0  0.97637  0.81017  0.48686  1.0000
  C   C930      1.0  0.97391  0.79398  0.52713  1.0000
  C   C931      1.0  0.96651  0.80276  0.57502  1.0000
  H   H1113     1.0  0.96057  0.86333  0.54923  1.0000
  H   H1114     1.0  0.92461  0.71845  0.94555  1.0000
  C   C932      1.0  0.84042  0.93375  0.79524  1.0000
  H   H1115     1.0  0.96426  0.78996  0.60555  1.0000
  C   C933      1.0  0.87884  0.91058  0.89186  1.0000
  C   C934      1.0  0.89101  0.93112  0.90931  1.0000
  C   C935      1.0  0.88143  0.94568  0.94895  1.0000
  C   C936      1.0  0.85932  0.94031  0.97125  1.0000
  C   C937      1.0  0.84675  0.92029  0.95253  1.0000
  C   C938      1.0  0.85656  0.90544  0.91358  1.0000
  H   H1116     1.0  0.90822  0.93530  0.89352  1.0000
  H   H1117     1.0  0.89153  0.96089  0.96329  1.0000
  H   H1118     1.0  0.82981  0.91575  0.96918  1.0000
  H   H1119     1.0  0.84692  0.88962  0.90064  1.0000
  C   C939      1.0  0.92472  0.99141  0.75061  1.0000
  C   C940      1.0  0.97587  0.68673  0.94530  1.0000
  C   C941      1.0  0.98447  0.99060  0.63964  1.0000
  H   H1120     1.0  0.93046  0.97508  0.76962  1.0000
  C   C942      1.0  0.97764  0.71702  0.01216  1.0000
  H   H1121     1.0  0.82126  0.93231  0.78449  1.0000
  H   H1122     1.0  0.94151  0.70231  0.07858  1.0000
  H   H1123     1.0  0.77198  0.89698  0.35423  1.0000
  N   N63       1.0  0.91671  0.75777  0.39313  1.0000
  C   C943      1.0  0.93804  0.76571  0.36510  1.0000
  C   C944      1.0  0.91880  0.73079  0.39897  1.0000
  C   C945      1.0  0.89514  0.76312  0.36208  1.0000
  C   C946      1.0  0.91496  0.77122  0.44175  1.0000
  C   C947      1.0  0.91427  0.79720  0.44250  1.0000
  C   C948      1.0  0.91376  0.75926  0.48923  1.0000
  C   C949      1.0  0.91266  0.81034  0.48781  1.0000
  C   C950      1.0  0.91210  0.77263  0.53432  1.0000
  C   C951      1.0  0.91152  0.79809  0.53360  1.0000
  H   H1124     1.0  0.95429  0.76400  0.38914  1.0000
  H   H1125     1.0  0.94112  0.75459  0.33026  1.0000
  H   H1126     1.0  0.93676  0.78509  0.35294  1.0000
  H   H1127     1.0  0.93494  0.72549  0.42147  1.0000
  H   H1128     1.0  0.92070  0.72126  0.36181  1.0000
  H   H1129     1.0  0.90271  0.72317  0.41712  1.0000
  H   H1130     1.0  0.89335  0.78286  0.35259  1.0000
  H   H1131     1.0  0.89563  0.75291  0.32555  1.0000
  H   H1132     1.0  0.87863  0.75794  0.38233  1.0000
  H   H1133     1.0  0.91536  0.80760  0.40808  1.0000
  H   H1134     1.0  0.91434  0.73961  0.49277  1.0000
  H   H1135     1.0  0.91290  0.83016  0.48764  1.0000
  H   H1136     1.0  0.91165  0.76324  0.57026  1.0000
  H   H1137     1.0  0.91087  0.80837  0.56876  1.0000
  N   N64       1.0  0.93947  0.69298  0.99942  1.0000
  C   C952      1.0  0.76360  0.88367  0.42837  1.0000
  S   S255      1.0  0.77670  0.96857  0.05643  1.0000
  H   H1138     1.0  0.92945  0.72643  0.03831  1.0000
  C   C953      1.0  0.82538  0.98365  0.78281  1.0000
  C   C954      1.0  0.92093  0.99126  0.69847  1.0000
  C   C955      1.0  0.95672  0.67050  0.19638  1.0000
  H   H1139     1.0  0.89089  0.95662  0.74632  1.0000
  C   C956      1.0  0.90701  0.66915  0.18735  1.0000
  C   C957      1.0  0.93793  0.66652  0.01024  1.0000
  H   H1140     1.0  0.92767  0.68765  0.92227  1.0000
  C   C958      1.0  0.85621  0.99057  0.72100  1.0000
  H   H1141     1.0  0.78194  0.87836  0.43682  1.0000
  H   H1142     1.0  0.97336  0.84803  0.46482  1.0000
  H   H1143     1.0  0.88772  0.66885  0.18463  1.0000
  H   H1144     1.0  0.90434  0.69522  0.96542  1.0000
  H   H1145     1.0  0.97221  0.96612  0.69661  1.0000
  C   C959      1.0  0.98760  0.97315  0.67721  1.0000
  H   H1146     1.0  0.84769  0.91463  0.79751  1.0000
  H   H1147     1.0  0.91186  0.70073  0.05436  1.0000
  H   H1148     1.0  0.97732  0.71523  0.16201  1.0000
  H   H1149     1.0  0.84180  0.94137  0.83420  1.0000
  H   H1150     1.0  0.97594  0.67046  0.20059  1.0000
  S   S256      1.0  0.99466  0.75974  0.30464  1.0000
  C   C960      1.0  0.74570  0.88024  0.46422  1.0000
  H   H1151     1.0  0.99449  0.67967  0.11493  1.0000
  H   H1152     1.0  0.74488  0.97797  0.27317  1.0000
