data_image0
_chemical_formula_structural       FeSH4CHC3HC2HSC2H4C2H2FeH2SHC2SCHC2SH2FeNCHCSHCH4C5H3NFeH4C2H2CSHC2HCH4C2H2C2HCSC3SCHSCHFeHCH3CH2C2Fe2H3CH2SNSCH2CHFeHCH2NC2S2H2FeSH2CHFeHNC3H2C3H2FeHSCHCSH2FeC2HCH2CHCHCH2S2HCFeHC2H2CH2C2HC2HCH5CHC2H2SNSHCSCH2CH5CSHFe2CSHCNCH2SHC3HCFeCSNHCH2CHCHCHC2SH2CH3CHNC2HSCH2CH3C4SH6C4HCHCHC5SHCFeCSCHCHSCNH2CHCH5SH3C3SHCHFeH3C3HCHCH2C2HFeCFeHCSFeH2SHC2NSH2FeH2CHS2NH3C4H2SCSCHCHSFeCHC3H4CSC3HN2HCFeH4CHC2H2CHCFeCFeHCHSH2SCHCH2CHCHC2HCH2CH4C2H4FeHCHCH3C2HC2FeC2HC2SH8SHSCHC2H2CH3C3NHNCHC3SCSC2H2C2HC2H2CHCH2SH3CFeHC2H6C4HSH6SFe2HNCH2SH4C3H2FeH2SNH2C3H2CS3HS2C6SCH2FeC2FeHCHC2H2CSC2FeH3SC3HCH3S2HFeCHCH3FeCNCH4CHS3HCHC2HC2HCHFeCH2CH4C3H2CH2SC2H2CH4C2H4FeSC4SH2C2HNHC3SC3H2SH5C2H2SHFeH2C3H2CHCH3C4SC2SH3CHC2HC2FeCH2FeC3H2CSC3FeSHCH2C2HC4SH3CH2C3SH3CSC2HFeCHSHCHC2HS2C2SH2SC3S2C2H4FeHN2HFeH2CHC2H3CFeCHSCHCFeHSH2C2H2CH2CH2FeH2SH3FeC3HCHC5H3CS2HNH3CSCHCHC2SHSHC2HC4HNHC2H2C2HSHC2H3CHCH3CHCFeCHSCHCH2SHC4H2CHCHCH3SC3H2NHCH2CHCHCH2CSCHN2S2HCH3SHCHNH2C3H5CS3H2CH7CHSC4H2CHC2H3C3NHCFeCHC2SFeCFeSC3HCHC2H2CSCHC2H7C2HCHCH3CH4C4FeHSHCHFeH3FeSCFeH2SCNHC4H2C2HCHSCFeC2SC2H2C2H3CSHS3C2HNHC2HCH8C4HSC2H3CHCH3CH2CFeH2CH2CHCHCSHSHCH2C3H2C3S2HC2SCH2NHSHCFe3HSCHC4H2FeH2C2H3CHCH
_chemical_formula_sum              "Fe64 S128 H576 C480 N32"
_cell_length_a       28.4742
_cell_length_b       24.9678
_cell_length_c       24.2748
_cell_angle_alpha    82.3107
_cell_angle_beta     87.2511
_cell_angle_gamma    94.6327

_space_group_name_H-M_alt    "P 1"
_space_group_IT_number       1

loop_
  _space_group_symop_operation_xyz
  'x, y, z'

loop_
  _atom_site_type_symbol
  _atom_site_label
  _atom_site_symmetry_multiplicity
  _atom_site_fract_x
  _atom_site_fract_y
  _atom_site_fract_z
  _atom_site_occupancy
  Fe  Fe1       1.0  0.47682  0.28452  0.92367  1.0000
  S   S1        1.0  0.07658  0.63961  0.87802  1.0000
  H   H1        1.0  0.31365  0.24028  0.91305  1.0000
  H   H2        1.0  0.42845  0.65363  0.79279  1.0000
  H   H3        1.0  0.21894  0.62824  0.97373  1.0000
  H   H4        1.0  0.48850  0.42075  0.94230  1.0000
  C   C1        1.0  0.31470  0.27251  0.80055  1.0000
  H   H5        1.0  0.05272  0.39881  0.94600  1.0000
  C   C2        1.0  0.27517  0.38610  0.98186  1.0000
  C   C3        1.0  0.52170  0.57206  0.86988  1.0000
  C   C4        1.0  0.45440  0.63096  0.81477  1.0000
  H   H6        1.0  0.29965  0.18429  0.87577  1.0000
  C   C5        1.0  0.19271  0.59821  0.95962  1.0000
  C   C6        1.0  0.14299  0.51152  0.98775  1.0000
  H   H7        1.0  0.43627  0.51806  0.97079  1.0000
  S   S2        1.0  0.51781  0.31932  0.84372  1.0000
  C   C7        1.0  0.04984  0.25686  0.86096  1.0000
  C   C8        1.0  0.49980  0.65517  0.81793  1.0000
  H   H8        1.0  0.05304  0.55755  0.80842  1.0000
  H   H9        1.0  0.35939  0.31053  0.85797  1.0000
  H   H10       1.0  0.36974  0.17723  0.81233  1.0000
  H   H11       1.0  0.13856  0.54711  0.90035  1.0000
  C   C9        1.0  0.42382  0.49170  0.93988  1.0000
  C   C10       1.0  0.47547  0.54630  0.86808  1.0000
  H   H12       1.0  0.23670  0.45939  0.86699  1.0000
  H   H13       1.0  0.08320  0.47638  0.87633  1.0000
  Fe  Fe2       1.0  0.30275  0.52327  0.79193  1.0000
  H   H14       1.0  0.22559  0.29960  0.88884  1.0000
  H   H15       1.0  0.25114  0.33927  0.82600  1.0000
  S   S3        1.0  0.46600  0.20029  0.90124  1.0000
  H   H16       1.0  0.39121  0.50751  0.92311  1.0000
  C   C11       1.0  0.44215  0.57760  0.83990  1.0000
  C   C12       1.0  0.31991  0.62693  0.85355  1.0000
  S   S4        1.0  0.15582  0.21211  0.95683  1.0000
  C   C13       1.0  0.09299  0.25586  0.88646  1.0000
  H   H17       1.0  0.43085  0.41425  0.87410  1.0000
  C   C14       1.0  0.27626  0.42368  0.93364  1.0000
  C   C15       1.0  0.19410  0.39853  0.92298  1.0000
  S   S5        1.0  0.32366  0.43988  0.78439  1.0000
  H   H18       1.0  0.52486  0.50804  0.75698  1.0000
  H   H19       1.0  0.30899  0.44741  0.91838  1.0000
  Fe  Fe3       1.0  0.51108  0.23377  0.82448  1.0000
  N   N1        1.0  0.46120  0.49027  0.89550  1.0000
  C   C16       1.0  0.23569  0.43029  0.90453  1.0000
  H   H20       1.0  0.51539  0.48441  0.95464  1.0000
  C   C17       1.0  0.06661  0.16855  0.93939  1.0000
  S   S6        1.0  0.41710  0.32130  0.96414  1.0000
  H   H21       1.0  0.42807  0.33316  0.79236  1.0000
  C   C18       1.0  0.35684  0.29905  0.81673  1.0000
  H   H22       1.0  0.21940  0.25905  0.78123  1.0000
  H   H23       1.0  0.21050  0.58321  0.92348  1.0000
  H   H24       1.0  0.52929  0.45855  0.89006  1.0000
  H   H25       1.0  0.35827  0.63575  0.92672  1.0000
  C   C19       1.0  0.07734  0.43004  0.95777  1.0000
  C   C20       1.0  0.23173  0.23228  0.81702  1.0000
  C   C21       1.0  0.39665  0.31167  0.77984  1.0000
  C   C22       1.0  0.10138  0.21179  0.92577  1.0000
  C   C23       1.0  0.19234  0.36134  0.97168  1.0000
  H   H26       1.0  0.40621  0.56111  0.83719  1.0000
  H   H27       1.0  0.46952  0.45372  0.82070  1.0000
  H   H28       1.0  0.23966  0.19330  0.80319  1.0000
  N   N2        1.0  0.27329  0.25868  0.84076  1.0000
  Fe  Fe4       1.0  0.53386  0.18776  0.94176  1.0000
  H   H29       1.0  0.28563  0.32744  0.88529  1.0000
  H   H30       1.0  0.41359  0.45054  0.96336  1.0000
  H   H31       1.0  0.15919  0.33725  0.98299  1.0000
  H   H32       1.0  0.11996  0.28918  0.87536  1.0000
  C   C24       1.0  0.25840  0.30838  0.86115  1.0000
  C   C25       1.0  0.44236  0.45644  0.85442  1.0000
  H   H33       1.0  0.41143  0.47270  0.83419  1.0000
  H   H34       1.0  0.20100  0.22285  0.84791  1.0000
  C   C26       1.0  0.28611  0.22116  0.88920  1.0000
  S   S7        1.0  0.30255  0.55784  0.87272  1.0000
  H   H35       1.0  0.16318  0.40217  0.89884  1.0000
  C   C27       1.0  0.50051  0.46253  0.92152  1.0000
  C   C28       1.0  0.09471  0.47379  0.91845  1.0000
  H   H36       1.0  0.25508  0.20785  0.91889  1.0000
  C   C29       1.0  0.12700  0.51414  0.93289  1.0000
  H   H37       1.0  0.38242  0.21007  0.96305  1.0000
  H   H38       1.0  0.28505  0.63066  0.77667  1.0000
  H   H39       1.0  0.16233  0.62054  0.94482  1.0000
  H   H40       1.0  0.04415  0.29040  0.82985  1.0000
  C   C30       1.0  0.53325  0.62590  0.84571  1.0000
  C   C31       1.0  0.30767  0.65248  0.80217  1.0000
  H   H41       1.0  0.23711  0.50864  0.98895  1.0000
  H   H42       1.0  0.34761  0.25627  0.15222  1.0000
  C   C32       1.0  0.22031  0.52740  0.02314  1.0000
  C   C33       1.0  0.19327  0.43151  0.18197  1.0000
  H   H43       1.0  0.51291  0.22124  0.13368  1.0000
  C   C34       1.0  0.52871  0.34986  0.22871  1.0000
  S   S8        1.0  0.35719  0.47774  0.12418  1.0000
  C   C35       1.0  0.35589  0.24587  0.11116  1.0000
  C   C36       1.0  0.37557  0.22011  0.00433  1.0000
  C   C37       1.0  0.17635  0.33522  0.21238  1.0000
  S   S9        1.0  0.31566  0.62025  0.08935  1.0000
  C   C38       1.0  0.09205  0.42639  0.01192  1.0000
  H   H44       1.0  0.44814  0.33513  0.18474  1.0000
  S   S10       1.0  0.43125  0.45678  0.22226  1.0000
  C   C39       1.0  0.16207  0.38465  0.18761  1.0000
  H   H45       1.0  0.18453  0.27028  0.11981  1.0000
  Fe  Fe5       1.0  0.35518  0.56224  0.14495  1.0000
  H   H46       1.0  0.26240  0.46538  0.19816  1.0000
  C   C40       1.0  0.26010  0.33607  0.09754  1.0000
  H   H47       1.0  0.18032  0.61006  0.06458  1.0000
  H   H48       1.0  0.24761  0.37500  0.10715  1.0000
  H   H49       1.0  0.25376  0.23403  0.07519  1.0000
  C   C41       1.0  0.47722  0.31772  0.16262  1.0000
  H   H50       1.0  0.53093  0.59534  0.20197  1.0000
  H   H51       1.0  0.46064  0.28267  0.14470  1.0000
  C   C42       1.0  0.35053  0.18175  0.04478  1.0000
  C   C43       1.0  0.18391  0.29681  0.07916  1.0000
  Fe  Fe6       1.0  0.43507  0.48978  0.13186  1.0000
  Fe  Fe7       1.0  0.05890  0.32883  0.22596  1.0000
  H   H52       1.0  0.12237  0.59402  0.04073  1.0000
  H   H53       1.0  0.07836  0.39246  0.04276  1.0000
  H   H54       1.0  0.29073  0.27638  0.02165  1.0000
  C   C44       1.0  0.25226  0.37967  0.22805  1.0000
  H   H55       1.0  0.21276  0.49549  0.05971  1.0000
  H   H56       1.0  0.18213  0.46991  0.16338  1.0000
  S   S11       1.0  0.04920  0.58106  0.13932  1.0000
  N   N3        1.0  0.17740  0.55304  0.00484  1.0000
  S   S12       1.0  0.43398  0.57641  0.14587  1.0000
  C   C45       1.0  0.38975  0.27194  0.01659  1.0000
  H   H57       1.0  0.29442  0.62822  0.20610  1.0000
  H   H58       1.0  0.49115  0.34864  0.12704  1.0000
  C   C46       1.0  0.22113  0.33283  0.23338  1.0000
  H   H59       1.0  0.15311  0.29847  0.21461  1.0000
  Fe  Fe8       1.0  0.35299  0.45129  0.21606  1.0000
  H   H60       1.0  0.14808  0.54699  0.08996  1.0000
  C   C47       1.0  0.34006  0.19476  0.09800  1.0000
  H   H61       1.0  0.13481  0.46189  0.06919  1.0000
  H   H62       1.0  0.16447  0.33228  0.08689  1.0000
  N   N4        1.0  0.23228  0.31436  0.05391  1.0000
  C   C48       1.0  0.38016  0.28475  0.07018  1.0000
  C   C49       1.0  0.12444  0.46638  0.02672  1.0000
  S   S13       1.0  0.10492  0.38764  0.16493  1.0000
  S   S14       1.0  0.34436  0.53477  0.23711  1.0000
  H   H63       1.0  0.23419  0.24822  0.00621  1.0000
  H   H64       1.0  0.29848  0.34294  0.08614  1.0000
  Fe  Fe9       1.0  0.06299  0.61554  0.21818  1.0000
  S   S15       1.0  0.47937  0.45744  0.06789  1.0000
  H   H65       1.0  0.24731  0.55757  0.03564  1.0000
  H   H66       1.0  0.16277  0.27203  0.05277  1.0000
  C   C50       1.0  0.15621  0.57708  0.05189  1.0000
  H   H67       1.0  0.30825  0.38123  0.00123  1.0000
  Fe  Fe10      1.0  0.42344  0.54251  0.23652  1.0000
  H   H68       1.0  0.39114  0.32484  0.07982  1.0000
  N   N5        1.0  0.51529  0.30247  0.19989  1.0000
  C   C51       1.0  0.25375  0.26610  0.03863  1.0000
  C   C52       1.0  0.23271  0.35493  0.00346  1.0000
  C   C53       1.0  0.23849  0.42900  0.20210  1.0000
  H   H69       1.0  0.25778  0.30700  0.13675  1.0000
  H   H70       1.0  0.48198  0.22127  0.22460  1.0000
  C   C54       1.0  0.49625  0.25715  0.24302  1.0000
  C   C55       1.0  0.04113  0.64453  0.49580  1.0000
  C   C56       1.0  0.22133  0.50230  0.47900  1.0000
  H   H71       1.0  0.17106  0.19650  0.28123  1.0000
  H   H72       1.0  0.08466  0.50518  0.33117  1.0000
  Fe  Fe11      1.0  0.09968  0.61220  0.33470  1.0000
  H   H73       1.0  0.21898  0.54580  0.47123  1.0000
  S   S16       1.0  0.08717  0.29001  0.30460  1.0000
  C   C57       1.0  0.18122  0.19147  0.42077  1.0000
  H   H74       1.0  0.13261  0.35456  0.43462  1.0000
  C   C58       1.0  0.45438  0.64656  0.29973  1.0000
  S   S17       1.0  0.30863  0.37586  0.25258  1.0000
  H   H75       1.0  0.21833  0.43804  0.32943  1.0000
  H   H76       1.0  0.46706  0.26924  0.26965  1.0000
  Fe  Fe12      1.0  0.53232  0.29667  0.48453  1.0000
  C   C59       1.0  0.18950  0.40812  0.34989  1.0000
  C   C60       1.0  0.36338  0.16846  0.40689  1.0000
  H   H77       1.0  0.06099  0.61767  0.47456  1.0000
  C   C61       1.0  0.04646  0.39782  0.42855  1.0000
  H   H78       1.0  0.44541  0.18720  0.45808  1.0000
  H   H79       1.0  0.49797  0.36277  0.25212  1.0000
  C   C62       1.0  0.24685  0.35136  0.38899  1.0000
  H   H80       1.0  0.39276  0.64142  0.25185  1.0000
  C   C63       1.0  0.09397  0.50139  0.41911  1.0000
  H   H81       1.0  0.50268  0.57956  0.43403  1.0000
  C   C64       1.0  0.07784  0.48138  0.37179  1.0000
  H   H82       1.0  0.04406  0.41350  0.33943  1.0000
  H   H83       1.0  0.52440  0.24366  0.27074  1.0000
  S   S18       1.0  0.22032  0.21076  0.46890  1.0000
  S   S19       1.0  0.13558  0.62178  0.24943  1.0000
  H   H84       1.0  0.15752  0.42950  0.35702  1.0000
  C   C65       1.0  0.33064  0.18954  0.37065  1.0000
  Fe  Fe13      1.0  0.04699  0.21479  0.28545  1.0000
  H   H85       1.0  0.48340  0.17311  0.40191  1.0000
  C   C66       1.0  0.05483  0.42928  0.37643  1.0000
  C   C67       1.0  0.32807  0.17397  0.31779  1.0000
  H   H86       1.0  0.43867  0.52084  0.47516  1.0000
  H   H87       1.0  0.23197  0.29449  0.25264  1.0000
  C   C68       1.0  0.16248  0.18595  0.32549  1.0000
  H   H88       1.0  0.24132  0.32627  0.35488  1.0000
  H   H89       1.0  0.30725  0.21830  0.38376  1.0000
  C   C69       1.0  0.08637  0.46969  0.47133  1.0000
  C   C70       1.0  0.19298  0.20445  0.36375  1.0000
  H   H90       1.0  0.49393  0.42517  0.44801  1.0000
  C   C71       1.0  0.21168  0.47048  0.43699  1.0000
  C   C72       1.0  0.21399  0.41329  0.44597  1.0000
  H   H91       1.0  0.20218  0.49183  0.39798  1.0000
  C   C73       1.0  0.13882  0.16095  0.43962  1.0000
  H   H92       1.0  0.18020  0.38032  0.31916  1.0000
  H   H93       1.0  0.22571  0.22816  0.34910  1.0000
  H   H94       1.0  0.30284  0.19073  0.28961  1.0000
  H   H95       1.0  0.17428  0.30883  0.46049  1.0000
  H   H96       1.0  0.27729  0.38181  0.37490  1.0000
  C   C74       1.0  0.16523  0.33594  0.42328  1.0000
  H   H97       1.0  0.36429  0.18243  0.44718  1.0000
  C   C75       1.0  0.51227  0.46568  0.45139  1.0000
  C   C76       1.0  0.06163  0.41829  0.47621  1.0000
  H   H98       1.0  0.25759  0.32368  0.42504  1.0000
  H   H99       1.0  0.15647  0.30910  0.39144  1.0000
  S   S20       1.0  0.12346  0.56607  0.41224  1.0000
  N   N6        1.0  0.20399  0.37821  0.40255  1.0000
  S   S21       1.0  0.46449  0.57829  0.30112  1.0000
  H   H100      1.0  0.50198  0.49378  0.41535  1.0000
  C   C77       1.0  0.52461  0.58185  0.46898  1.0000
  S   S22       1.0  0.45514  0.30433  0.49625  1.0000
  C   C78       1.0  0.45543  0.21409  0.57372  1.0000
  H   H101      1.0  0.31934  0.18625  0.57977  1.0000
  H   H102      1.0  0.04739  0.34932  0.72117  1.0000
  C   C79       1.0  0.42821  0.24985  0.54255  1.0000
  H   H103      1.0  0.15597  0.23133  0.59388  1.0000
  H   H104      1.0  0.05515  0.39419  0.51669  1.0000
  H   H105      1.0  0.43860  0.50481  0.54961  1.0000
  H   H106      1.0  0.24154  0.50369  0.56292  1.0000
  H   H107      1.0  0.49346  0.22157  0.57165  1.0000
  C   C80       1.0  0.07988  0.37301  0.70567  1.0000
  S   S23       1.0  0.28161  0.61521  0.59701  1.0000
  H   H108      1.0  0.05389  0.57189  0.62561  1.0000
  Fe  Fe14      1.0  0.26810  0.43662  0.72238  1.0000
  Fe  Fe15      1.0  0.37060  0.47995  0.71155  1.0000
  C   C81       1.0  0.49109  0.61591  0.63889  1.0000
  S   S24       1.0  0.50079  0.21263  0.73928  1.0000
  H   H109      1.0  0.08117  0.30627  0.54990  1.0000
  C   C82       1.0  0.07880  0.42309  0.67226  1.0000
  N   N7        1.0  0.50024  0.48377  0.50571  1.0000
  C   C83       1.0  0.12313  0.35360  0.71956  1.0000
  H   H110      1.0  0.04795  0.23688  0.50678  1.0000
  H   H111      1.0  0.11521  0.31615  0.60821  1.0000
  S   S25       1.0  0.21893  0.36244  0.72121  1.0000
  H   H112      1.0  0.49832  0.44866  0.59234  1.0000
  C   C84       1.0  0.39622  0.29721  0.72645  1.0000
  C   C85       1.0  0.46480  0.56531  0.64980  1.0000
  C   C86       1.0  0.08247  0.29463  0.59562  1.0000
  H   H113      1.0  0.42741  0.45195  0.50731  1.0000
  C   C87       1.0  0.12122  0.21473  0.58129  1.0000
  Fe  Fe16      1.0  0.29519  0.55125  0.66689  1.0000
  C   C88       1.0  0.51534  0.53783  0.72386  1.0000
  S   S26       1.0  0.31675  0.47064  0.64879  1.0000
  N   N8        1.0  0.08122  0.23500  0.61146  1.0000
  H   H114      1.0  0.43521  0.55646  0.62524  1.0000
  C   C89       1.0  0.16418  0.43402  0.66592  1.0000
  H   H115      1.0  0.42746  0.30652  0.69823  1.0000
  H   H116      1.0  0.23030  0.34734  0.50883  1.0000
  C   C90       1.0  0.50926  0.43936  0.55017  1.0000
  H   H117      1.0  0.35547  0.26048  0.66731  1.0000
  C   C91       1.0  0.43332  0.16815  0.60749  1.0000
  H   H118      1.0  0.05942  0.63164  0.65967  1.0000
  C   C92       1.0  0.12092  0.45311  0.65141  1.0000
  H   H119      1.0  0.23345  0.63144  0.70083  1.0000
  C   C93       1.0  0.16521  0.38450  0.70025  1.0000
  C   C94       1.0  0.35558  0.27108  0.70921  1.0000
  S   S27       1.0  0.35385  0.56374  0.72310  1.0000
  H   H120      1.0  0.24624  0.40416  0.58146  1.0000
  H   H121      1.0  0.12341  0.24359  0.68200  1.0000
  C   C95       1.0  0.08884  0.22421  0.67196  1.0000
  H   H122      1.0  0.12151  0.22671  0.53551  1.0000
  H   H123      1.0  0.05177  0.31124  0.61560  1.0000
  H   H124      1.0  0.35807  0.26761  0.52112  1.0000
  C   C96       1.0  0.52894  0.62777  0.67105  1.0000
  H   H125      1.0  0.12015  0.49160  0.62528  1.0000
  N   N9        1.0  0.09447  0.64029  0.57744  1.0000
  C   C97       1.0  0.37910  0.24014  0.54553  1.0000
  C   C98       1.0  0.12297  0.60586  0.54601  1.0000
  H   H126      1.0  0.48889  0.40039  0.54539  1.0000
  S   S28       1.0  0.24239  0.51664  0.73659  1.0000
  C   C99       1.0  0.35719  0.19394  0.57864  1.0000
  H   H127      1.0  0.09941  0.48453  0.50801  1.0000
  H   H128      1.0  0.10831  0.59187  0.65459  1.0000
  C   C100      1.0  0.47781  0.52577  0.69138  1.0000
  H   H129      1.0  0.19674  0.45780  0.65085  1.0000
  H   H130      1.0  0.15407  0.59259  0.56878  1.0000
  H   H131      1.0  0.10190  0.56825  0.53880  1.0000
  C   C101      1.0  0.52766  0.53599  0.50982  1.0000
  C   C102      1.0  0.23655  0.42262  0.54100  1.0000
  C   C103      1.0  0.23380  0.47853  0.53080  1.0000
  C   C104      1.0  0.07819  0.60772  0.63164  1.0000
  S   S29       1.0  0.44587  0.46222  0.70447  1.0000
  H   H132      1.0  0.28473  0.23988  0.72861  1.0000
  H   H133      1.0  0.08901  0.17984  0.68633  1.0000
  H   H134      1.0  0.13725  0.62803  0.50498  1.0000
  H   H135      1.0  0.48328  0.64503  0.60443  1.0000
  H   H136      1.0  0.06131  0.24088  0.69734  1.0000
  H   H137      1.0  0.11980  0.16961  0.58954  1.0000
  C   C105      1.0  0.31516  0.25913  0.74530  1.0000
  C   C106      1.0  0.44904  0.49081  0.50952  1.0000
  C   C107      1.0  0.38430  0.15784  0.60946  1.0000
  C   C108      1.0  0.22704  0.39040  0.49924  1.0000
  H   H138      1.0  0.12391  0.31565  0.74673  1.0000
  C   C109      1.0  0.36682  0.70918  0.86746  1.0000
  H   H139      1.0  0.08845  0.68692  0.98471  1.0000
  C   C110      1.0  0.19983  0.81699  0.93958  1.0000
  H   H140      1.0  0.50934  0.69644  0.79817  1.0000
  C   C111      1.0  0.20692  0.85922  0.89524  1.0000
  C   C112      1.0  0.23260  0.06728  0.87738  1.0000
  C   C113      1.0  0.24354  0.76006  0.88719  1.0000
  C   C114      1.0  0.27257  0.88814  0.75249  1.0000
  C   C115      1.0  0.39063  0.95291  0.98420  1.0000
  S   S30       1.0  0.12811  0.78515  0.82320  1.0000
  H   H141      1.0  0.21124  0.73447  0.96945  1.0000
  C   C116      1.0  0.38270  0.08410  0.88151  1.0000
  Fe  Fe17      1.0  0.47351  0.90850  0.91090  1.0000
  C   C117      1.0  0.38344  0.14246  0.79461  1.0000
  S   S31       1.0  0.23191  0.95970  0.98386  1.0000
  C   C118      1.0  0.35535  0.73411  0.81525  1.0000
  H   H142      1.0  0.41926  0.04834  0.79169  1.0000
  C   C119      1.0  0.34861  0.65559  0.88696  1.0000
  H   H143      1.0  0.38999  0.73084  0.89248  1.0000
  S   S32       1.0  0.51436  0.83093  0.79201  1.0000
  C   C120      1.0  0.29261  0.95523  0.98658  1.0000
  N   N10       1.0  0.24250  0.89992  0.80043  1.0000
  H   H144      1.0  0.25744  0.72136  0.88377  1.0000
  H   H145      1.0  0.38036  0.89062  0.93135  1.0000
  C   C121      1.0  0.51674  0.10942  0.78393  1.0000
  H   H146      1.0  0.52561  0.02668  0.81737  1.0000
  C   C122      1.0  0.23735  0.08967  0.77780  1.0000
  H   H147      1.0  0.17207  0.07044  0.82741  1.0000
  H   H148      1.0  0.27510  0.98169  0.78879  1.0000
  H   H149      1.0  0.36794  0.00497  0.81977  1.0000
  H   H150      1.0  0.17842  0.88289  0.76025  1.0000
  H   H151      1.0  0.37207  0.04351  0.90558  1.0000
  S   S33       1.0  0.37780  0.80030  0.78860  1.0000
  H   H152      1.0  0.30081  0.93553  0.83963  1.0000
  H   H153      1.0  0.06947  0.77404  0.93316  1.0000
  H   H154      1.0  0.17248  0.92703  0.81218  1.0000
  C   C123      1.0  0.52908  0.05664  0.78053  1.0000
  C   C124      1.0  0.23376  0.85364  0.84579  1.0000
  C   C125      1.0  0.37993  0.04556  0.79656  1.0000
  S   S34       1.0  0.44821  0.92503  0.82500  1.0000
  H   H155      1.0  0.21115  0.05586  0.91588  1.0000
  C   C126      1.0  0.36354  0.91798  0.95535  1.0000
  H   H156      1.0  0.30825  0.87812  0.76515  1.0000
  Fe  Fe18      1.0  0.06865  0.83866  0.82097  1.0000
  H   H157      1.0  0.27189  0.79402  0.80691  1.0000
  H   H158      1.0  0.18023  0.82293  0.97726  1.0000
  H   H159      1.0  0.37085  0.79474  0.99435  1.0000
  C   C127      1.0  0.28201  0.07167  0.87768  1.0000
  C   C128      1.0  0.26696  0.94663  0.82215  1.0000
  C   C129      1.0  0.32502  0.70605  0.78322  1.0000
  H   H160      1.0  0.07288  0.13437  0.96962  1.0000
  C   C130      1.0  0.07972  0.77237  0.97574  1.0000
  H   H161      1.0  0.24539  0.96104  0.85564  1.0000
  C   C131      1.0  0.31444  0.91865  0.95720  1.0000
  H   H162      1.0  0.42209  0.08742  0.87864  1.0000
  H   H163      1.0  0.37166  0.11598  0.90605  1.0000
  C   C132      1.0  0.31073  0.08638  0.82749  1.0000
  C   C133      1.0  0.21773  0.76735  0.93541  1.0000
  H   H164      1.0  0.50393  0.11986  0.82341  1.0000
  Fe  Fe19      1.0  0.07182  0.71749  0.82203  1.0000
  C   C134      1.0  0.25167  0.80246  0.84298  1.0000
  Fe  Fe20      1.0  0.52311  0.92014  0.79572  1.0000
  H   H165      1.0  0.29357  0.89115  0.93545  1.0000
  C   C135      1.0  0.19698  0.91614  0.77916  1.0000
  S   S35       1.0  0.06734  0.90640  0.87270  1.0000
  Fe  Fe21      1.0  0.44086  0.83472  0.82799  1.0000
  H   H166      1.0  0.19144  0.89658  0.90020  1.0000
  H   H167      1.0  0.42251  0.14723  0.79574  1.0000
  S   S36       1.0  0.46052  0.81817  0.91671  1.0000
  H   H168      1.0  0.29673  0.06285  0.91770  1.0000
  C   C136      1.0  0.21035  0.07545  0.82757  1.0000
  C   C137      1.0  0.28662  0.09612  0.77778  1.0000
  N   N11       1.0  0.36309  0.08967  0.82557  1.0000
  S   S37       1.0  0.45198  0.95464  0.97913  1.0000
  H   H169      1.0  0.07245  0.85571  0.97702  1.0000
  H   H170      1.0  0.52119  0.68402  0.98074  1.0000
  Fe  Fe22      1.0  0.53473  0.82220  0.88045  1.0000
  H   H171      1.0  0.36733  0.04694  0.75387  1.0000
  H   H172      1.0  0.37689  0.14686  0.74949  1.0000
  C   C138      1.0  0.27887  0.66045  0.12284  1.0000
  H   H173      1.0  0.47624  0.07051  0.08753  1.0000
  S   S38       1.0  0.05474  0.70445  0.21185  1.0000
  S   S39       1.0  0.09691  0.00535  0.18488  1.0000
  N   N12       1.0  0.52143  0.98858  0.14349  1.0000
  H   H174      1.0  0.08139  0.82552  0.16996  1.0000
  H   H175      1.0  0.46346  0.79131  0.04405  1.0000
  H   H176      1.0  0.25699  0.70087  0.04565  1.0000
  C   C139      1.0  0.36636  0.82866  0.15810  1.0000
  C   C140      1.0  0.10398  0.72137  0.05927  1.0000
  C   C141      1.0  0.53544  0.94299  0.18335  1.0000
  C   C142      1.0  0.36870  0.98805  0.01533  1.0000
  H   H177      1.0  0.34137  0.73474  0.03581  1.0000
  H   H178      1.0  0.51310  0.90469  0.18141  1.0000
  S   S40       1.0  0.24411  0.11507  0.00947  1.0000
  C   C143      1.0  0.47262  0.00254  0.15479  1.0000
  S   S41       1.0  0.13742  0.05296  0.02522  1.0000
  C   C144      1.0  0.37530  0.76046  0.02747  1.0000
  H   H179      1.0  0.10168  0.92896  0.01372  1.0000
  C   C145      1.0  0.40082  0.73137  0.11859  1.0000
  H   H180      1.0  0.41985  0.70156  0.09789  1.0000
  S   S42       1.0  0.18434  0.76844  0.20617  1.0000
  Fe  Fe23      1.0  0.17003  0.13893  0.01656  1.0000
  C   C146      1.0  0.44156  0.97335  0.19826  1.0000
  H   H181      1.0  0.38981  0.01518  0.03731  1.0000
  C   C147      1.0  0.22628  0.73260  0.11601  1.0000
  C   C148      1.0  0.28527  0.85889  0.10666  1.0000
  C   C149      1.0  0.45501  0.04720  0.12211  1.0000
  H   H182      1.0  0.16051  0.84985  0.12635  1.0000
  H   H183      1.0  0.34113  0.86813  0.22586  1.0000
  H   H184      1.0  0.33943  0.14194  0.03481  1.0000
  H   H185      1.0  0.06535  0.89309  0.16025  1.0000
  C   C150      1.0  0.38018  0.03311  0.17590  1.0000
  S   S43       1.0  0.30295  0.14957  0.14589  1.0000
  C   C151      1.0  0.14576  0.88241  0.09856  1.0000
  C   C152      1.0  0.24682  0.69085  0.20650  1.0000
  C   C153      1.0  0.25415  0.69810  0.09049  1.0000
  H   H186      1.0  0.30296  0.01763  0.03938  1.0000
  N   N13       1.0  0.09638  0.86747  0.08609  1.0000
  N   N14       1.0  0.39183  0.77983  0.07915  1.0000
  H   H187      1.0  0.25400  0.87120  0.08647  1.0000
  C   C154      1.0  0.09059  0.72335  0.00466  1.0000
  Fe  Fe24      1.0  0.21154  0.02937  0.02611  1.0000
  H   H188      1.0  0.08029  0.95107  0.07629  1.0000
  H   H189      1.0  0.36713  0.70962  0.13776  1.0000
  H   H190      1.0  0.42239  0.74192  0.15309  1.0000
  H   H191      1.0  0.39777  0.81899  0.17914  1.0000
  C   C155      1.0  0.22249  0.72883  0.17408  1.0000
  H   H192      1.0  0.43141  0.85055  0.03529  1.0000
  C   C156      1.0  0.39609  0.98868  0.20845  1.0000
  C   C157      1.0  0.33435  0.85763  0.18488  1.0000
  H   H193      1.0  0.30736  0.81905  0.03977  1.0000
  H   H194      1.0  0.40075  0.73499  0.00942  1.0000
  C   C158      1.0  0.29375  0.87261  0.15927  1.0000
  H   H195      1.0  0.11212  0.68323  0.08226  1.0000
  C   C159      1.0  0.43695  0.81369  0.06451  1.0000
  Fe  Fe25      1.0  0.24320  0.11228  0.10202  1.0000
  C   C160      1.0  0.31964  0.98958  0.01618  1.0000
  Fe  Fe26      1.0  0.14396  0.05335  0.11671  1.0000
  H   H196      1.0  0.51585  0.70820  0.07434  1.0000
  C   C161      1.0  0.06701  0.85615  0.13928  1.0000
  H   H197      1.0  0.49563  0.68482  0.17388  1.0000
  S   S44       1.0  0.21643  0.02469  0.11794  1.0000
  H   H198      1.0  0.26873  0.89474  0.18019  1.0000
  H   H199      1.0  0.52031  0.00650  0.05374  1.0000
  S   S45       1.0  0.17093  0.14122  0.10872  1.0000
  C   C162      1.0  0.31659  0.82885  0.08005  1.0000
  H   H200      1.0  0.50022  0.93837  0.08212  1.0000
  C   C163      1.0  0.53121  0.70572  0.17728  1.0000
  H   H201      1.0  0.14870  0.91935  0.11981  1.0000
  H   H202      1.0  0.11811  0.76510  0.12666  1.0000
  C   C164      1.0  0.35791  0.81208  0.10553  1.0000
  H   H203      1.0  0.20750  0.76182  0.09080  1.0000
  C   C165      1.0  0.52629  0.97281  0.08690  1.0000
  H   H204      1.0  0.16902  0.89062  0.05975  1.0000
  C   C166      1.0  0.09451  0.81864  0.05730  1.0000
  C   C167      1.0  0.10653  0.76838  0.08489  1.0000
  H   H205      1.0  0.45282  0.82789  0.10153  1.0000
  C   C168      1.0  0.07925  0.91564  0.05286  1.0000
  H   H206      1.0  0.04207  0.90765  0.04213  1.0000
  H   H207      1.0  0.39710  0.09676  0.10756  1.0000
  C   C169      1.0  0.40967  0.06242  0.13302  1.0000
  H   H208      1.0  0.53532  0.74541  0.14985  1.0000
  H   H209      1.0  0.34484  0.04480  0.18360  1.0000
  H   H210      1.0  0.45147  0.93851  0.22508  1.0000
  H   H211      1.0  0.53317  0.95271  0.22671  1.0000
  C   C170      1.0  0.27534  0.65697  0.18085  1.0000
  C   C171      1.0  0.08154  0.81933  0.00152  1.0000
  H   H212      1.0  0.37309  0.96581  0.24180  1.0000
  H   H213      1.0  0.53229  0.71571  0.22061  1.0000
  H   H214      1.0  0.22677  0.03114  0.38622  1.0000
  H   H215      1.0  0.41297  0.08687  0.32165  1.0000
  Fe  Fe27      1.0  0.50642  0.91988  0.43952  1.0000
  H   H216      1.0  0.33230  0.80749  0.43549  1.0000
  C   C172      1.0  0.11502  0.00356  0.34881  1.0000
  H   H217      1.0  0.48147  0.05137  0.44136  1.0000
  C   C173      1.0  0.15393  0.91658  0.30004  1.0000
  H   H218      1.0  0.07479  0.12041  0.41603  1.0000
  H   H219      1.0  0.24358  0.94798  0.38204  1.0000
  H   H220      1.0  0.40897  0.91152  0.43117  1.0000
  C   C174      1.0  0.18769  0.02337  0.39109  1.0000
  C   C175      1.0  0.18474  0.04139  0.29153  1.0000
  H   H221      1.0  0.37555  0.74197  0.38977  1.0000
  C   C176      1.0  0.35657  0.78337  0.45873  1.0000
  C   C177      1.0  0.38087  0.74644  0.43289  1.0000
  Fe  Fe28      1.0  0.48890  0.86398  0.33805  1.0000
  C   C178      1.0  0.06916  0.83274  0.48246  1.0000
  C   C179      1.0  0.18021  0.94833  0.33411  1.0000
  H   H222      1.0  0.50356  0.76216  0.34073  1.0000
  C   C180      1.0  0.41003  0.72292  0.26891  1.0000
  C   C181      1.0  0.12047  0.15457  0.34455  1.0000
  S   S46       1.0  0.49163  0.95101  0.35158  1.0000
  H   H223      1.0  0.14307  0.84034  0.26871  1.0000
  H   H224      1.0  0.43279  0.03123  0.40300  1.0000
  H   H225      1.0  0.06261  0.77625  0.42296  1.0000
  H   H226      1.0  0.09748  0.00398  0.30879  1.0000
  H   H227      1.0  0.14744  0.76080  0.41965  1.0000
  H   H228      1.0  0.17497  0.06303  0.39817  1.0000
  H   H229      1.0  0.47846  0.08300  0.37159  1.0000
  H   H230      1.0  0.21163  0.80194  0.31330  1.0000
  S   S47       1.0  0.49738  0.83277  0.42737  1.0000
  H   H231      1.0  0.22390  0.04439  0.28588  1.0000
  S   S48       1.0  0.09551  0.70114  0.33542  1.0000
  C   C182      1.0  0.48507  0.68061  0.32548  1.0000
  H   H232      1.0  0.09908  0.96795  0.37810  1.0000
  C   C183      1.0  0.39438  0.13045  0.39152  1.0000
  C   C184      1.0  0.40440  0.08493  0.48461  1.0000
  H   H233      1.0  0.12489  0.93222  0.27779  1.0000
  H   H234      1.0  0.43130  0.68694  0.44207  1.0000
  C   C185      1.0  0.44161  0.75734  0.29321  1.0000
  H   H235      1.0  0.26148  0.85698  0.36952  1.0000
  H   H236      1.0  0.48853  0.14010  0.47197  1.0000
  H   H237      1.0  0.03796  0.80092  0.30209  1.0000
  C   C186      1.0  0.08638  0.79689  0.44843  1.0000
  C   C187      1.0  0.47897  0.73605  0.32177  1.0000
  C   C188      1.0  0.20314  0.84251  0.31896  1.0000
  N   N15       1.0  0.16725  0.00323  0.34167  1.0000
  H   H238      1.0  0.10404  0.04032  0.36515  1.0000
  N   N16       1.0  0.42900  0.10925  0.43072  1.0000
  C   C189      1.0  0.22022  0.92588  0.35775  1.0000
  H   H239      1.0  0.17366  0.08277  0.29366  1.0000
  C   C190      1.0  0.38779  0.92433  0.46432  1.0000
  C   C191      1.0  0.45646  0.06698  0.41031  1.0000
  C   C192      1.0  0.23115  0.87354  0.35048  1.0000
  S   S49       1.0  0.07986  0.13734  0.29740  1.0000
  C   C193      1.0  0.39086  0.11533  0.33721  1.0000
  S   S50       1.0  0.43482  0.82695  0.28721  1.0000
  C   C194      1.0  0.41688  0.66770  0.27133  1.0000
  C   C195      1.0  0.13404  0.78800  0.44667  1.0000
  H   H240      1.0  0.51439  0.66444  0.34696  1.0000
  H   H241      1.0  0.32226  0.91236  0.42457  1.0000
  C   C196      1.0  0.16462  0.86411  0.29376  1.0000
  C   C197      1.0  0.33864  0.92431  0.46081  1.0000
  H   H242      1.0  0.17814  0.99408  0.42947  1.0000
  C   C198      1.0  0.10822  0.14283  0.40149  1.0000
  C   C199      1.0  0.16446  0.81400  0.47990  1.0000
  H   H243      1.0  0.09025  0.96459  0.48465  1.0000
  H   H244      1.0  0.20161  0.80716  0.47858  1.0000
  C   C200      1.0  0.35814  0.13704  0.30107  1.0000
  H   H245      1.0  0.05166  0.89424  0.32627  1.0000
  C   C201      1.0  0.41224  0.71545  0.46246  1.0000
  H   H246      1.0  0.37580  0.05369  0.47829  1.0000
  H   H247      1.0  0.12902  0.15208  0.48355  1.0000
  S   S51       1.0  0.25039  0.94667  0.49731  1.0000
  H   H248      1.0  0.35598  0.12538  0.25967  1.0000
  H   H249      1.0  0.24356  0.68749  0.25146  1.0000
  H   H250      1.0  0.17052  0.02846  0.25309  1.0000
  C   C202      1.0  0.46305  0.15435  0.44097  1.0000
  Fe  Fe29      1.0  0.12575  0.70979  0.24756  1.0000
  H   H251      1.0  0.38012  0.73870  0.24848  1.0000
  C   C203      1.0  0.04933  0.04537  0.62612  1.0000
  C   C204      1.0  0.21426  0.71376  0.68808  1.0000
  H   H252      1.0  0.39679  0.71612  0.68508  1.0000
  H   H253      1.0  0.46789  0.81773  0.58008  1.0000
  H   H254      1.0  0.39798  0.96997  0.58953  1.0000
  H   H255      1.0  0.34355  0.81904  0.53154  1.0000
  H   H256      1.0  0.17285  0.86664  0.54062  1.0000
  H   H257      1.0  0.27643  0.72209  0.54098  1.0000
  C   C205      1.0  0.39564  0.75898  0.54559  1.0000
  C   C206      1.0  0.23984  0.76535  0.59847  1.0000
  C   C207      1.0  0.06229  0.94400  0.51563  1.0000
  C   C208      1.0  0.41956  0.72147  0.51794  1.0000
  H   H258      1.0  0.46339  0.78745  0.65206  1.0000
  S   S52       1.0  0.22655  0.14090  0.62111  1.0000
  H   H259      1.0  0.41045  0.67932  0.62910  1.0000
  H   H260      1.0  0.47811  0.74768  0.59935  1.0000
  H   H261      1.0  0.38790  0.84803  0.60144  1.0000
  H   H262      1.0  0.45418  0.13999  0.63111  1.0000
  H   H263      1.0  0.04918  0.97488  0.54009  1.0000
  H   H264      1.0  0.42886  0.06509  0.51389  1.0000
  S   S53       1.0  0.17009  0.06275  0.54067  1.0000
  Fe  Fe30      1.0  0.17816  0.06432  0.63192  1.0000
  Fe  Fe31      1.0  0.22213  0.13644  0.53037  1.0000
  H   H265      1.0  0.07606  0.05688  0.59274  1.0000
  N   N17       1.0  0.40464  0.76504  0.60419  1.0000
  C   C209      1.0  0.12646  0.68735  0.58757  1.0000
  H   H266      1.0  0.05180  0.83392  0.61487  1.0000
  H   H267      1.0  0.14587  0.94487  0.56126  1.0000
  S   S54       1.0  0.28391  0.08805  0.52484  1.0000
  H   H268      1.0  0.31196  0.96956  0.58342  1.0000
  H   H269      1.0  0.44437  0.69670  0.53890  1.0000
  H   H270      1.0  0.24191  0.80283  0.56996  1.0000
  H   H271      1.0  0.38625  0.81149  0.66987  1.0000
  C   C210      1.0  0.23543  0.66874  0.67236  1.0000
  C   C211      1.0  0.11551  0.92198  0.58694  1.0000
  C   C212      1.0  0.37825  0.80744  0.62611  1.0000
  H   H272      1.0  0.33938  0.79761  0.62644  1.0000
  H   H273      1.0  0.13907  0.71304  0.54786  1.0000
  Fe  Fe32      1.0  0.23326  0.01446  0.54436  1.0000
  H   H274      1.0  0.10978  0.71378  0.61463  1.0000
  H   H275      1.0  0.27783  0.92326  0.71869  1.0000
  S   S55       1.0  0.35702  0.09806  0.64720  1.0000
  N   N18       1.0  0.08013  0.89847  0.55184  1.0000
  H   H276      1.0  0.30572  0.10790  0.73826  1.0000
  H   H277      1.0  0.25639  0.85371  0.73331  1.0000
  C   C213      1.0  0.25954  0.71991  0.58220  1.0000
  C   C214      1.0  0.33268  0.95682  0.55010  1.0000
  C   C215      1.0  0.38155  0.95674  0.55373  1.0000
  H   H278      1.0  0.38852  0.11546  0.50718  1.0000
  H   H279      1.0  0.35253  0.70031  0.63793  1.0000
  C   C216      1.0  0.25746  0.67161  0.61909  1.0000
  S   S56       1.0  0.12052  0.05351  0.69929  1.0000
  S   S57       1.0  0.07179  0.85518  0.72821  1.0000
  S   S58       1.0  0.18797  0.81763  0.66774  1.0000
  H   H280      1.0  0.21978  0.09570  0.73909  1.0000
  S   S59       1.0  0.23733  0.01013  0.63665  1.0000
  S   S60       1.0  0.47073  0.94569  0.51423  1.0000
  C   C217      1.0  0.06173  0.04123  0.68165  1.0000
  C   C218      1.0  0.09915  0.85994  0.51693  1.0000
  C   C219      1.0  0.40928  0.94125  0.51056  1.0000
  C   C220      1.0  0.36362  0.78973  0.51423  1.0000
  C   C221      1.0  0.39062  0.71303  0.64058  1.0000
  C   C222      1.0  0.45567  0.78007  0.60900  1.0000
  S   S61       1.0  0.07537  0.72426  0.72911  1.0000
  C   C223      1.0  0.21633  0.76194  0.65089  1.0000
  H   H281      1.0  0.12931  0.88992  0.61641  1.0000
  H   H282      1.0  0.10017  0.95057  0.61294  1.0000
  Fe  Fe33      1.0  0.28498  0.08655  0.61657  1.0000
  C   C224      1.0  0.51974  0.14793  0.73604  1.0000
  C   C225      1.0  0.31109  0.94122  0.50350  1.0000
  Fe  Fe34      1.0  0.12693  0.79623  0.73039  1.0000
  H   H283      1.0  0.19635  0.71113  0.72883  1.0000
  C   C226      1.0  0.04051  0.87059  0.58952  1.0000
  H   H284      1.0  0.31547  0.72539  0.74319  1.0000
  C   C227      1.0  0.14738  0.84883  0.51521  1.0000
  C   C228      1.0  0.05328  0.65965  0.54808  1.0000
  H   H285      1.0  0.20200  0.95212  0.74643  1.0000
  H   H286      1.0  0.15815  0.67395  0.60845  1.0000
  C   C229      1.0  0.68290  0.44195  0.83600  1.0000
  S   S62       1.0  0.57782  0.21263  0.86263  1.0000
  C   C230      1.0  0.84215  0.54974  0.76396  1.0000
  C   C231      1.0  0.96317  0.34694  0.98116  1.0000
  Fe  Fe35      1.0  0.94445  0.29738  0.80274  1.0000
  H   H287      1.0  0.83946  0.58296  0.91520  1.0000
  H   H288      1.0  0.99055  0.62280  0.94604  1.0000
  H   H289      1.0  0.87143  0.22507  0.98428  1.0000
  S   S63       1.0  0.54181  0.26943  0.96989  1.0000
  C   C232      1.0  0.80807  0.52290  0.80353  1.0000
  C   C233      1.0  0.68311  0.49775  0.83723  1.0000
  C   C234      1.0  0.01479  0.21394  0.87487  1.0000
  H   H290      1.0  0.89870  0.63068  0.84777  1.0000
  C   C235      1.0  0.98655  0.51659  0.84371  1.0000
  H   H291      1.0  0.96642  0.63186  0.79024  1.0000
  H   H292      1.0  0.92365  0.55135  0.95416  1.0000
  H   H293      1.0  0.77995  0.51462  0.88817  1.0000
  S   S64       1.0  0.87498  0.32674  0.82695  1.0000
  S   S65       1.0  0.98560  0.37613  0.81077  1.0000
  H   H294      1.0  0.66171  0.27612  0.78219  1.0000
  Fe  Fe36      1.0  0.91568  0.40701  0.82831  1.0000
  C   C236      1.0  0.98949  0.59289  0.91792  1.0000
  H   H295      1.0  0.97471  0.26236  0.98634  1.0000
  C   C237      1.0  0.87654  0.58935  0.77756  1.0000
  H   H296      1.0  0.75731  0.40633  0.90055  1.0000
  H   H297      1.0  0.62084  0.20697  0.96704  1.0000
  H   H298      1.0  0.70490  0.42677  0.80517  1.0000
  Fe  Fe37      1.0  0.58197  0.29535  0.88793  1.0000
  C   C238      1.0  0.62506  0.42512  0.91410  1.0000
  N   N19       1.0  0.77229  0.36698  0.98179  1.0000
  C   C239      1.0  0.83963  0.57441  0.87259  1.0000
  H   H299      1.0  0.70737  0.21599  0.97273  1.0000
  H   H300      1.0  0.78285  0.49213  0.79186  1.0000
  H   H301      1.0  0.54975  0.55160  0.88951  1.0000
  H   H302      1.0  0.96315  0.35277  0.93609  1.0000
  C   C240      1.0  0.74893  0.63080  0.96451  1.0000
  H   H303      1.0  0.95425  0.42939  0.98595  1.0000
  S   S66       1.0  0.65505  0.33640  0.87379  1.0000
  S   S67       1.0  0.96006  0.21517  0.84427  1.0000
  S   S68       1.0  0.90464  0.46143  0.89321  1.0000
  H   H304      1.0  0.56871  0.64475  0.84772  1.0000
  C   C241      1.0  0.95174  0.55255  0.92228  1.0000
  H   H305      1.0  0.76416  0.33605  0.90340  1.0000
  C   C242      1.0  0.02339  0.16958  0.91380  1.0000
  C   C243      1.0  0.02459  0.55657  0.83986  1.0000
  H   H306      1.0  0.60569  0.33464  0.77201  1.0000
  C   C244      1.0  0.95057  0.51375  0.88567  1.0000
  C   C245      1.0  0.65368  0.40580  0.87421  1.0000
  H   H307      1.0  0.60657  0.49578  0.94969  1.0000
  C   C246      1.0  0.02647  0.59410  0.87775  1.0000
  H   H308      1.0  0.98548  0.48769  0.81446  1.0000
  Fe  Fe38      1.0  0.67865  0.62813  0.79448  1.0000
  C   C247      1.0  0.65593  0.51702  0.87848  1.0000
  H   H309      1.0  0.70828  0.31424  0.98475  1.0000
  H   H310      1.0  0.57536  0.61752  0.95618  1.0000
  C   C248      1.0  0.62731  0.48082  0.91744  1.0000
  H   H311      1.0  0.75858  0.61568  0.92489  1.0000
  H   H312      1.0  0.86881  0.18444  0.78650  1.0000
  H   H313      1.0  0.70486  0.52585  0.80683  1.0000
  H   H314      1.0  0.81531  0.38439  0.90478  1.0000
  C   C249      1.0  0.80655  0.53546  0.85771  1.0000
  C   C250      1.0  0.77780  0.37346  0.91999  1.0000
  C   C251      1.0  0.87400  0.60140  0.83321  1.0000
  H   H315      1.0  0.71112  0.31892  0.74906  1.0000
  H   H316      1.0  0.57900  0.42535  0.77070  1.0000
  C   C252      1.0  0.82636  0.29063  0.98008  1.0000
  H   H317      1.0  0.60243  0.39687  0.94341  1.0000
  H   H318      1.0  0.82748  0.29345  0.93540  1.0000
  S   S69       1.0  0.65748  0.58645  0.88062  1.0000
  C   C253      1.0  0.63819  0.17254  0.98472  1.0000
  C   C254      1.0  0.68723  0.17800  0.98862  1.0000
  H   H319      1.0  0.71451  0.60798  0.97987  1.0000
  H   H320      1.0  0.82573  0.43170  0.98742  1.0000
  C   C255      1.0  0.94778  0.65413  0.75637  1.0000
  H   H321      1.0  0.76714  0.45300  0.97917  1.0000
  H   H322      1.0  0.69972  0.38511  0.97808  1.0000
  H   H323      1.0  0.77570  0.61927  0.99494  1.0000
  H   H324      1.0  0.62122  0.59698  0.12145  1.0000
  C   C256      1.0  0.56375  0.41725  0.05309  1.0000
  C   C257      1.0  0.58466  0.22413  0.10440  1.0000
  H   H325      1.0  0.87068  0.21174  0.08714  1.0000
  H   H326      1.0  0.92091  0.38168  0.17987  1.0000
  H   H327      1.0  0.63034  0.38518  0.03971  1.0000
  H   H328      1.0  0.61193  0.34144  0.19044  1.0000
  Fe  Fe39      1.0  0.79729  0.60061  0.13813  1.0000
  S   S70       1.0  0.80672  0.51203  0.15125  1.0000
  C   C258      1.0  0.60929  0.47636  0.12819  1.0000
  C   C259      1.0  0.95723  0.39071  0.01052  1.0000
  C   C260      1.0  0.98599  0.61957  0.06589  1.0000
  C   C261      1.0  0.63898  0.29129  0.13548  1.0000
  S   S71       1.0  0.69508  0.43765  0.10551  1.0000
  H   H329      1.0  0.77898  0.33787  0.09448  1.0000
  H   H330      1.0  0.98862  0.47659  0.15479  1.0000
  C   C262      1.0  0.63025  0.24897  0.10433  1.0000
  C   C263      1.0  0.72140  0.35356  0.99784  1.0000
  H   H331      1.0  0.62686  0.49878  0.15759  1.0000
  N   N20       1.0  0.94837  0.42948  0.10202  1.0000
  H   H332      1.0  0.94141  0.16393  0.23310  1.0000
  C   C264      1.0  0.95581  0.59112  0.16104  1.0000
  C   C265      1.0  0.59871  0.61659  0.09215  1.0000
  C   C266      1.0  0.94134  0.63519  0.05159  1.0000
  S   S72       1.0  0.02309  0.25200  0.20420  1.0000
  C   C267      1.0  0.55517  0.28495  0.16723  1.0000
  C   C268      1.0  0.60225  0.30899  0.16676  1.0000
  C   C269      1.0  0.93468  0.47895  0.06759  1.0000
  H   H333      1.0  0.57788  0.19110  0.08031  1.0000
  H   H334      1.0  0.71364  0.35071  0.04338  1.0000
  S   S73       1.0  0.71897  0.58944  0.13246  1.0000
  H   H335      1.0  0.67447  0.31037  0.13617  1.0000
  H   H336      1.0  0.01526  0.62533  0.03506  1.0000
  H   H337      1.0  0.87760  0.39652  0.12993  1.0000
  H   H338      1.0  0.65889  0.23505  0.08054  1.0000
  H   H339      1.0  0.96387  0.49794  0.03727  1.0000
  C   C270      1.0  0.96207  0.33171  0.09713  1.0000
  C   C271      1.0  0.99325  0.59815  0.12073  1.0000
  H   H340      1.0  0.92631  0.51080  0.09348  1.0000
  H   H341      1.0  0.80855  0.32795  0.20583  1.0000
  S   S74       1.0  0.88627  0.26290  0.23291  1.0000
  H   H342      1.0  0.96195  0.32384  0.14195  1.0000
  Fe  Fe40      1.0  0.79666  0.51868  0.24187  1.0000
  H   H343      1.0  0.97415  0.24879  0.08945  1.0000
  H   H344      1.0  0.62383  0.57290  0.02719  1.0000
  C   C272      1.0  0.63457  0.44263  0.09831  1.0000
  C   C273      1.0  0.99283  0.44428  0.12789  1.0000
  C   C274      1.0  0.79966  0.32434  0.00981  1.0000
  H   H345      1.0  0.00532  0.40922  0.15455  1.0000
  H   H346      1.0  0.82383  0.26730  0.14129  1.0000
  C   C275      1.0  0.95542  0.38415  0.06965  1.0000
  H   H347      1.0  0.54616  0.39377  0.02450  1.0000
  C   C276      1.0  0.78755  0.42021  0.99904  1.0000
  H   H348      1.0  0.90180  0.44747  0.16919  1.0000
  H   H349      1.0  0.02187  0.45960  0.09595  1.0000
  H   H350      1.0  0.79175  0.41596  0.23464  1.0000
  C   C277      1.0  0.82487  0.27462  0.09621  1.0000
  C   C278      1.0  0.61145  0.41239  0.06170  1.0000
  C   C279      1.0  0.57289  0.62730  0.99829  1.0000
  C   C280      1.0  0.56106  0.48080  0.12000  1.0000
  S   S75       1.0  0.84852  0.64990  0.07537  1.0000
  C   C281      1.0  0.96954  0.29600  0.00943  1.0000
  C   C282      1.0  0.79940  0.31479  0.06891  1.0000
  S   S76       1.0  0.79304  0.60834  0.22890  1.0000
  H   H351      1.0  0.78177  0.42043  0.04457  1.0000
  H   H352      1.0  0.65317  0.20787  0.22026  1.0000
  H   H353      1.0  0.93586  0.65326  0.00960  1.0000
  C   C283      1.0  0.82662  0.34244  0.23980  1.0000
  H   H354      1.0  0.88230  0.59852  0.17774  1.0000
  C   C284      1.0  0.85125  0.24299  0.06574  1.0000
  C   C285      1.0  0.96919  0.28846  0.06737  1.0000
  H   H355      1.0  0.90274  0.46991  0.04461  1.0000
  C   C286      1.0  0.91056  0.41300  0.14687  1.0000
  C   C287      1.0  0.91095  0.60482  0.14632  1.0000
  Fe  Fe41      1.0  0.72800  0.50064  0.15231  1.0000
  C   C288      1.0  0.60069  0.60282  0.03819  1.0000
  H   H356      1.0  0.59373  0.59678  0.20740  1.0000
  H   H357      1.0  0.96123  0.57417  0.20346  1.0000
  Fe  Fe42      1.0  0.71538  0.58852  0.22536  1.0000
  C   C289      1.0  0.90381  0.62804  0.09190  1.0000
  C   C290      1.0  0.85192  0.25088  0.00785  1.0000
  C   C291      1.0  0.53865  0.45183  0.08159  1.0000
  H   H358      1.0  0.54310  0.38555  0.19848  1.0000
  H   H359      1.0  0.54144  0.50705  0.14265  1.0000
  C   C292      1.0  0.56323  0.62177  0.20760  1.0000
  S   S77       1.0  0.71892  0.49865  0.24445  1.0000
  C   C293      1.0  0.56829  0.65483  0.10812  1.0000
  C   C294      1.0  0.54760  0.24178  0.13517  1.0000
  C   C295      1.0  0.65528  0.58333  0.33965  1.0000
  Fe  Fe43      1.0  0.02042  0.30749  0.34763  1.0000
  S   S78       1.0  0.02721  0.59731  0.30393  1.0000
  H   H360      1.0  0.88562  0.56300  0.35996  1.0000
  C   C296      1.0  0.88401  0.33203  0.30985  1.0000
  H   H361      1.0  0.90955  0.30858  0.33127  1.0000
  H   H362      1.0  0.74522  0.16776  0.25543  1.0000
  C   C297      1.0  0.83380  0.42536  0.47521  1.0000
  C   C298      1.0  0.84413  0.41406  0.29602  1.0000
  H   H363      1.0  0.97375  0.19561  0.48011  1.0000
  C   C299      1.0  0.63881  0.48907  0.38035  1.0000
  C   C300      1.0  0.87002  0.58734  0.44220  1.0000
  C   C301      1.0  0.93375  0.53249  0.41711  1.0000
  C   C302      1.0  0.75965  0.42537  0.43244  1.0000
  S   S79       1.0  0.56645  0.22362  0.46375  1.0000
  H   H364      1.0  0.62969  0.44738  0.37500  1.0000
  H   H365      1.0  0.76471  0.34711  0.37594  1.0000
  H   H366      1.0  0.75279  0.46519  0.44539  1.0000
  C   C303      1.0  0.66273  0.55664  0.43856  1.0000
  H   H367      1.0  0.83862  0.63036  0.33922  1.0000
  H   H368      1.0  0.55091  0.46261  0.44586  1.0000
  C   C304      1.0  0.78788  0.59649  0.46944  1.0000
  C   C305      1.0  0.78222  0.32179  0.40670  1.0000
  C   C306      1.0  0.81158  0.61193  0.37243  1.0000
  S   S80       1.0  0.66604  0.30249  0.44846  1.0000
  H   H369      1.0  0.58183  0.16118  0.38126  1.0000
  H   H370      1.0  0.81894  0.19463  0.42093  1.0000
  H   H371      1.0  0.97951  0.50690  0.48169  1.0000
  C   C307      1.0  0.65056  0.50236  0.43235  1.0000
  S   S81       1.0  0.61975  0.26055  0.30950  1.0000
  C   C308      1.0  0.79019  0.27009  0.39415  1.0000
  C   C309      1.0  0.64038  0.52963  0.33436  1.0000
  H   H372      1.0  0.77870  0.25758  0.35547  1.0000
  Fe  Fe44      1.0  0.96123  0.27162  0.25602  1.0000
  C   C310      1.0  0.61758  0.19133  0.30164  1.0000
  H   H373      1.0  0.67092  0.56722  0.47904  1.0000
  S   S82       1.0  0.56830  0.35227  0.41261  1.0000
  H   H374      1.0  0.80282  0.56862  0.36723  1.0000
  C   C311      1.0  0.82787  0.25064  0.48049  1.0000
  H   H375      1.0  0.77774  0.43416  0.39044  1.0000
  C   C312      1.0  0.79643  0.33927  0.45733  1.0000
  C   C313      1.0  0.89503  0.56142  0.40262  1.0000
  H   H376      1.0  0.66262  0.18122  0.45146  1.0000
  S   S83       1.0  0.02069  0.33140  0.43339  1.0000
  S   S84       1.0  0.98293  0.22837  0.33615  1.0000
  C   C314      1.0  0.87587  0.38275  0.32480  1.0000
  C   C315      1.0  0.66517  0.59720  0.39214  1.0000
  S   S85       1.0  0.99485  0.35267  0.27014  1.0000
  H   H377      1.0  0.99374  0.65181  0.42912  1.0000
  H   H378      1.0  0.95192  0.51254  0.38626  1.0000
  S   S86       1.0  0.66875  0.63044  0.27944  1.0000
  C   C316      1.0  0.63640  0.17688  0.25200  1.0000
  C   C317      1.0  0.86181  0.31363  0.26493  1.0000
  C   C318      1.0  0.81296  0.23463  0.43090  1.0000
  S   S87       1.0  0.65187  0.45118  0.48921  1.0000
  S   S88       1.0  0.84043  0.48115  0.30738  1.0000
  C   C319      1.0  0.81998  0.30220  0.49357  1.0000
  C   C320      1.0  0.94935  0.52931  0.47083  1.0000
  H   H379      1.0  0.89245  0.17666  0.32548  1.0000
  H   H380      1.0  0.89600  0.39861  0.35663  1.0000
  H   H381      1.0  0.77893  0.63285  0.36431  1.0000
  H   H382      1.0  0.67607  0.63887  0.39656  1.0000
  Fe  Fe45      1.0  0.60674  0.28077  0.39593  1.0000
  H   H383      1.0  0.63119  0.51901  0.29426  1.0000
  N   N21       1.0  0.78795  0.39339  0.47257  1.0000
  N   N22       1.0  0.82802  0.61702  0.42884  1.0000
  H   H384      1.0  0.75518  0.61637  0.45897  1.0000
  Fe  Fe46      1.0  0.62370  0.36866  0.47201  1.0000
  H   H385      1.0  0.72455  0.40386  0.42852  1.0000
  H   H386      1.0  0.55546  0.34031  0.25980  1.0000
  C   C321      1.0  0.54992  0.63162  0.47234  1.0000
  H   H387      1.0  0.85398  0.43147  0.43405  1.0000
  C   C322      1.0  0.81767  0.39278  0.25555  1.0000
  C   C323      1.0  0.69092  0.15903  0.46828  1.0000
  H   H388      1.0  0.77966  0.55203  0.47126  1.0000
  H   H389      1.0  0.56032  0.63253  0.25071  1.0000
  H   H390      1.0  0.82893  0.46616  0.48714  1.0000
  C   C324      1.0  0.88787  0.58484  0.49600  1.0000
  Fe  Fe47      1.0  0.87035  0.35319  0.73581  1.0000
  C   C325      1.0  0.60867  0.45446  0.68807  1.0000
  H   H391      1.0  0.59592  0.25163  0.73228  1.0000
  S   S89       1.0  0.58566  0.31623  0.54511  1.0000
  C   C326      1.0  0.79282  0.41458  0.66965  1.0000
  H   H392      1.0  0.87190  0.60558  0.52752  1.0000
  C   C327      1.0  0.82739  0.44718  0.63491  1.0000
  Fe  Fe48      1.0  0.62392  0.24842  0.51722  1.0000
  H   H393      1.0  0.78295  0.36948  0.56210  1.0000
  S   S90       1.0  0.77958  0.59532  0.62425  1.0000
  H   H394      1.0  0.86249  0.62594  0.66939  1.0000
  H   H395      1.0  0.91345  0.55295  0.68298  1.0000
  C   C328      1.0  0.54008  0.58921  0.71448  1.0000
  C   C329      1.0  0.75245  0.43694  0.68811  1.0000
  H   H396      1.0  0.54087  0.16442  0.64858  1.0000
  H   H397      1.0  0.59711  0.49472  0.68793  1.0000
  C   C330      1.0  0.74740  0.49238  0.67354  1.0000
  H   H398      1.0  0.64152  0.47216  0.60540  1.0000
  H   H399      1.0  0.85897  0.43019  0.62108  1.0000
  C   C331      1.0  0.64120  0.34977  0.68942  1.0000
  H   H400      1.0  0.00783  0.17223  0.67987  1.0000
  H   H401      1.0  0.96515  0.59834  0.67560  1.0000
  Fe  Fe49      1.0  0.97209  0.39949  0.72069  1.0000
  H   H402      1.0  0.54723  0.43146  0.54917  1.0000
  H   H403      1.0  0.72855  0.36092  0.52820  1.0000
  S   S91       1.0  0.66434  0.18894  0.56924  1.0000
  H   H404      1.0  0.79483  0.60489  0.51205  1.0000
  H   H405      1.0  0.93941  0.55390  0.55165  1.0000
  H   H406      1.0  0.71684  0.50971  0.68940  1.0000
  Fe  Fe50      1.0  0.73042  0.63265  0.68040  1.0000
  C   C332      1.0  0.61953  0.25353  0.69421  1.0000
  C   C333      1.0  0.98169  0.19069  0.52367  1.0000
  C   C334      1.0  0.58300  0.59303  0.55662  1.0000
  H   H407      1.0  0.85645  0.40517  0.50627  1.0000
  C   C335      1.0  0.02432  0.21417  0.53944  1.0000
  H   H408      1.0  0.66847  0.38312  0.60431  1.0000
  C   C336      1.0  0.82184  0.50218  0.61935  1.0000
  C   C337      1.0  0.00214  0.17908  0.63591  1.0000
  C   C338      1.0  0.78229  0.52510  0.63935  1.0000
  C   C339      1.0  0.57882  0.63721  0.51623  1.0000
  C   C340      1.0  0.94940  0.16144  0.56371  1.0000
  H   H409      1.0  0.63168  0.21232  0.69343  1.0000
  H   H410      1.0  0.75247  0.42707  0.53920  1.0000
  H   H411      1.0  0.70750  0.25058  0.64892  1.0000
  C   C341      1.0  0.64941  0.39003  0.64178  1.0000
  S   S92       1.0  0.02479  0.44929  0.65943  1.0000
  S   S93       1.0  0.65950  0.59561  0.71591  1.0000
  H   H412      1.0  0.56159  0.51126  0.58750  1.0000
  N   N23       1.0  0.65952  0.29561  0.69251  1.0000
  H   H413      1.0  0.67386  0.29330  0.60491  1.0000
  H   H414      1.0  0.72587  0.41203  0.71530  1.0000
  H   H415      1.0  0.72224  0.32217  0.64004  1.0000
  C   C342      1.0  0.63367  0.44167  0.64163  1.0000
  S   S94       1.0  0.93668  0.31802  0.71072  1.0000
  C   C343      1.0  0.76201  0.38730  0.52791  1.0000
  H   H416      1.0  0.83255  0.31284  0.53235  1.0000
  C   C344      1.0  0.55760  0.54322  0.55401  1.0000
  H   H417      1.0  0.84938  0.52742  0.59419  1.0000
  C   C345      1.0  0.92662  0.55571  0.51014  1.0000
  C   C346      1.0  0.59862  0.41542  0.73461  1.0000
  S   S95       1.0  0.90525  0.43594  0.73925  1.0000
  H   H418      1.0  0.60524  0.59792  0.59095  1.0000
  S   S96       1.0  0.80248  0.34739  0.69379  1.0000
  H   H419      1.0  0.59733  0.26171  0.65809  1.0000
  C   C347      1.0  0.69221  0.29048  0.64441  1.0000
  C   C348      1.0  0.69977  0.15675  0.52476  1.0000
  H   H420      1.0  0.84125  0.53929  0.72239  1.0000
  C   C349      1.0  0.93705  0.57800  0.70653  1.0000
  C   C350      1.0  0.03598  0.20906  0.59604  1.0000
  C   C351      1.0  0.95948  0.15602  0.61965  1.0000
  C   C352      1.0  0.61427  0.36370  0.73517  1.0000
  H   H421      1.0  0.95390  0.54987  0.73752  1.0000
  N   N24       1.0  0.91167  0.61773  0.73425  1.0000
  H   H422      1.0  0.56715  0.59927  0.74171  1.0000
  C   C353      1.0  0.88679  0.65111  0.69183  1.0000
  C   C354      1.0  0.68551  0.28420  0.74389  1.0000
  H   H423      1.0  0.70577  0.24800  0.74366  1.0000
  H   H424      1.0  0.84549  0.22285  0.50904  1.0000
  C   C355      1.0  0.79250  0.71918  0.94009  1.0000
  C   C356      1.0  0.61312  0.80316  0.96772  1.0000
  H   H425      1.0  0.72015  0.90617  0.89862  1.0000
  S   S97       1.0  0.59046  0.77116  0.91364  1.0000
  H   H426      1.0  0.68341  0.81631  0.92966  1.0000
  C   C357      1.0  0.67243  0.98038  0.84919  1.0000
  C   C358      1.0  0.88062  0.77722  0.90259  1.0000
  H   H427      1.0  0.67722  0.86278  0.79364  1.0000
  H   H428      1.0  0.99092  0.88838  0.80272  1.0000
  H   H429      1.0  0.82558  0.01483  0.80692  1.0000
  C   C359      1.0  0.99286  0.95226  0.91791  1.0000
  H   H430      1.0  0.87809  0.73193  0.83354  1.0000
  C   C360      1.0  0.85405  0.82474  0.75633  1.0000
  H   H431      1.0  0.67513  0.69035  0.92563  1.0000
  H   H432      1.0  0.85824  0.13459  0.88188  1.0000
  H   H433      1.0  0.74828  0.88373  0.84020  1.0000
  C   C361      1.0  0.71268  0.70401  0.91216  1.0000
  H   H434      1.0  0.01711  0.96649  0.94685  1.0000
  C   C362      1.0  0.85744  0.78717  0.95149  1.0000
  Fe  Fe51      1.0  0.82695  0.95931  0.98305  1.0000
  C   C363      1.0  0.94456  0.95948  0.92435  1.0000
  H   H435      1.0  0.63904  0.99196  0.83086  1.0000
  S   S98       1.0  0.64924  0.70774  0.77153  1.0000
  C   C364      1.0  0.00929  0.92463  0.87529  1.0000
  H   H436      1.0  0.66030  0.14201  0.79144  1.0000
  C   C365      1.0  0.85053  0.04838  0.78526  1.0000
  H   H437      1.0  0.84682  0.83929  0.79561  1.0000
  H   H438      1.0  0.03584  0.02400  0.76759  1.0000
  S   S99       1.0  0.75541  0.99013  0.98508  1.0000
  H   H439      1.0  0.66195  0.96376  0.89340  1.0000
  C   C366      1.0  0.73341  0.91966  0.85484  1.0000
  C   C367      1.0  0.81705  0.71025  0.89035  1.0000
  C   C368      1.0  0.97816  0.90776  0.83703  1.0000
  C   C369      1.0  0.66078  0.82197  0.96482  1.0000
  H   H440      1.0  0.72072  0.68487  0.87449  1.0000
  H   H441      1.0  0.64544  0.87465  0.85567  1.0000
  C   C370      1.0  0.87344  0.14456  0.77201  1.0000
  H   H442      1.0  0.90630  0.90230  0.81363  1.0000
  C   C371      1.0  0.71425  0.96510  0.76284  1.0000
  H   H443      1.0  0.98035  0.83678  0.97741  1.0000
  C   C372      1.0  0.91302  0.93898  0.88829  1.0000
  H   H444      1.0  0.69635  0.01780  0.84931  1.0000
  H   H445      1.0  0.93200  0.68898  0.77203  1.0000
  H   H446      1.0  0.63103  0.90783  0.78930  1.0000
  S   S100      1.0  0.75223  0.65793  0.76144  1.0000
  C   C373      1.0  0.81425  0.75838  0.97053  1.0000
  C   C374      1.0  0.71738  0.13206  0.84590  1.0000
  C   C375      1.0  0.79300  0.11160  0.80358  1.0000
  H   H447      1.0  0.77798  0.12071  0.89159  1.0000
  H   H448      1.0  0.99652  0.13608  0.92439  1.0000
  N   N25       1.0  0.74542  0.69028  0.95674  1.0000
  H   H449      1.0  0.92914  0.82424  0.76534  1.0000
  C   C376      1.0  0.93023  0.91559  0.84318  1.0000
  H   H450      1.0  0.91371  0.80028  0.88759  1.0000
  H   H451      1.0  0.78242  0.92926  0.76244  1.0000
  C   C377      1.0  0.77115  0.11413  0.75198  1.0000
  H   H452      1.0  0.69640  0.13913  0.88236  1.0000
  C   C378      1.0  0.66083  0.89450  0.81431  1.0000
  H   H453      1.0  0.76261  0.95167  0.85607  1.0000
  C   C379      1.0  0.86059  0.73857  0.87229  1.0000
  H   H454      1.0  0.83916  0.06249  0.89235  1.0000
  H   H455      1.0  0.88671  0.03591  0.79194  1.0000
  C   C380      1.0  0.85989  0.09582  0.86412  1.0000
  S   S101      1.0  0.75826  0.81322  0.74975  1.0000
  C   C381      1.0  0.76461  0.12118  0.85060  1.0000
  H   H456      1.0  0.80208  0.68217  0.86440  1.0000
  N   N26       1.0  0.84321  0.10028  0.80669  1.0000
  N   N27       1.0  0.69586  0.94045  0.81946  1.0000
  S   S102      1.0  0.01174  0.76980  0.82653  1.0000
  S   S103      1.0  0.85182  0.93866  0.90036  1.0000
  H   H457      1.0  0.71510  0.74827  0.89790  1.0000
  C   C382      1.0  0.69702  0.13383  0.79470  1.0000
  H   H458      1.0  0.93170  0.97972  0.95788  1.0000
  H   H459      1.0  0.89756  0.08661  0.86508  1.0000
  H   H460      1.0  0.91162  0.13784  0.77407  1.0000
  S   S104      1.0  0.54918  0.91144  0.88145  1.0000
  H   H461      1.0  0.87262  0.81811  0.97430  1.0000
  C   C383      1.0  0.72395  0.12528  0.74774  1.0000
  H   H462      1.0  0.64864  0.11179  0.20472  1.0000
  N   N28       1.0  0.90025  0.78176  0.18570  1.0000
  H   H463      1.0  0.71586  0.86500  0.00347  1.0000
  H   H464      1.0  0.79859  0.76795  0.00896  1.0000
  C   C384      1.0  0.96070  0.96314  0.22982  1.0000
  C   C385      1.0  0.72436  0.70413  0.00963  1.0000
  C   C386      1.0  0.93785  0.97407  0.18055  1.0000
  H   H465      1.0  0.84733  0.83989  0.17752  1.0000
  H   H466      1.0  0.92426  0.85734  0.21358  1.0000
  H   H467      1.0  0.94613  0.00621  0.09324  1.0000
  H   H468      1.0  0.71933  0.74800  0.00646  1.0000
  H   H469      1.0  0.74692  0.69310  0.04495  1.0000
  C   C387      1.0  0.89946  0.72320  0.20753  1.0000
  S   S105      1.0  0.81091  0.90115  0.06211  1.0000
  S   S106      1.0  0.77167  0.13844  0.01270  1.0000
  S   S107      1.0  0.86160  0.02607  0.02433  1.0000
  H   H470      1.0  0.68885  0.68214  0.02075  1.0000
  H   H471      1.0  0.88093  0.69792  0.17948  1.0000
  C   C388      1.0  0.94370  0.86374  0.04683  1.0000
  H   H472      1.0  0.59254  0.02651  0.14381  1.0000
  H   H473      1.0  0.88287  0.08758  0.17705  1.0000
  H   H474      1.0  0.98630  0.74444  0.02724  1.0000
  H   H475      1.0  0.94761  0.09485  0.22153  1.0000
  H   H476      1.0  0.70103  0.05065  0.05095  1.0000
  H   H477      1.0  0.62096  0.73821  0.13909  1.0000
  H   H478      1.0  0.83190  0.77694  0.15151  1.0000
  C   C389      1.0  0.61498  0.70116  0.17057  1.0000
  H   H479      1.0  0.64505  0.67614  0.16539  1.0000
  S   S108      1.0  0.55097  0.11536  0.99828  1.0000
  C   C390      1.0  0.85429  0.10658  0.19530  1.0000
  C   C391      1.0  0.92508  0.81290  0.22500  1.0000
  C   C392      1.0  0.68397  0.08472  0.03202  1.0000
  C   C393      1.0  0.54230  0.66474  0.01244  1.0000
  H   H480      1.0  0.94199  0.90449  0.02606  1.0000
  H   H481      1.0  0.03314  0.02767  0.09436  1.0000
  C   C394      1.0  0.67895  0.85017  0.00623  1.0000
  H   H482      1.0  0.93567  0.71024  0.21304  1.0000
  C   C395      1.0  0.64939  0.85929  0.05096  1.0000
  C   C396      1.0  0.96558  0.82580  0.01987  1.0000
  H   H483      1.0  0.81904  0.11337  0.11830  1.0000
  H   H484      1.0  0.90669  0.88022  0.11949  1.0000
  H   H485      1.0  0.95344  0.71884  0.12174  1.0000
  C   C397      1.0  0.01289  0.00971  0.13209  1.0000
  C   C398      1.0  0.00924  0.97524  0.23032  1.0000
  C   C399      1.0  0.92333  0.84937  0.10067  1.0000
  N   N29       1.0  0.56901  0.67070  0.16478  1.0000
  H   H486      1.0  0.61718  0.71400  0.21274  1.0000
  C   C400      1.0  0.70346  0.93541  0.24202  1.0000
  Fe  Fe52      1.0  0.84034  0.97058  0.10362  1.0000
  C   C401      1.0  0.96375  0.99757  0.13148  1.0000
  H   H487      1.0  0.55191  0.07012  0.11267  1.0000
  C   C402      1.0  0.63517  0.07907  0.02750  1.0000
  C   C403      1.0  0.85040  0.79542  0.18476  1.0000
  S   S109      1.0  0.77068  0.00373  0.11473  1.0000
  Fe  Fe53      1.0  0.78893  0.05292  0.03182  1.0000
  C   C404      1.0  0.96872  0.77387  0.04784  1.0000
  Fe  Fe54      1.0  0.74220  0.93851  0.06813  1.0000
  S   S110      1.0  0.67230  0.89551  0.10174  1.0000
  C   C405      1.0  0.94902  0.75936  0.10223  1.0000
  C   C406      1.0  0.92401  0.79627  0.12949  1.0000
  C   C407      1.0  0.53981  0.67849  0.06650  1.0000
  H   H488      1.0  0.57275  0.93449  0.17456  1.0000
  C   C408      1.0  0.77834  0.14233  0.18299  1.0000
  H   H489      1.0  0.61556  0.04045  0.04154  1.0000
  C   C409      1.0  0.77592  0.15097  0.23852  1.0000
  C   C410      1.0  0.81739  0.12010  0.16153  1.0000
  H   H490      1.0  0.57855  0.84820  0.08850  1.0000
  H   H491      1.0  0.54614  0.79975  0.01340  1.0000
  C   C411      1.0  0.60153  0.84042  0.05422  1.0000
  S   S111      1.0  0.87698  0.95677  0.18271  1.0000
  C   C412      1.0  0.03557  0.99776  0.18169  1.0000
  H   H492      1.0  0.68697  0.97220  0.22405  1.0000
  C   C413      1.0  0.71017  0.13382  0.01180  1.0000
  C   C414      1.0  0.61215  0.12287  0.00376  1.0000
  H   H493      1.0  0.72443  0.92178  0.20742  1.0000
  H   H494      1.0  0.96276  0.80420  0.22644  1.0000
  H   H495      1.0  0.03023  0.84126  0.13209  1.0000
  H   H496      1.0  0.78823  0.99392  0.23443  1.0000
  H   H497      1.0  0.54937  0.05280  0.18675  1.0000
  H   H498      1.0  0.74984  0.15260  0.15648  1.0000
  H   H499      1.0  0.56222  0.96049  0.07736  1.0000
  C   C415      1.0  0.63402  0.12244  0.24338  1.0000
  C   C416      1.0  0.55514  0.03649  0.14674  1.0000
  H   H500      1.0  0.83023  0.78059  0.22504  1.0000
  C   C417      1.0  0.58325  0.81302  0.01202  1.0000
  H   H501      1.0  0.67611  0.87003  0.43730  1.0000
  C   C418      1.0  0.75330  0.10033  0.45525  1.0000
  H   H502      1.0  0.90875  0.80255  0.26796  1.0000
  H   H503      1.0  0.83044  0.77323  0.35107  1.0000
  H   H504      1.0  0.71083  0.99421  0.49063  1.0000
  C   C419      1.0  0.85418  0.11738  0.25130  1.0000
  H   H505      1.0  0.94103  0.94503  0.26797  1.0000
  H   H506      1.0  0.87000  0.69212  0.40285  1.0000
  H   H507      1.0  0.92440  0.86785  0.43161  1.0000
  H   H508      1.0  0.57750  0.06472  0.36618  1.0000
  C   C420      1.0  0.69487  0.83552  0.45181  1.0000
  C   C421      1.0  0.59643  0.15069  0.34291  1.0000
  C   C422      1.0  0.76338  0.99749  0.27025  1.0000
  C   C423      1.0  0.94878  0.85449  0.40238  1.0000
  Fe  Fe55      1.0  0.83475  0.01136  0.45966  1.0000
  H   H509      1.0  0.64534  0.05383  0.48956  1.0000
  S   S112      1.0  0.85988  0.94176  0.42146  1.0000
  H   H510      1.0  0.86522  0.11637  0.36696  1.0000
  C   C424      1.0  0.71748  0.13061  0.43363  1.0000
  H   H511      1.0  0.83165  0.94162  0.29481  1.0000
  Fe  Fe56      1.0  0.02520  0.68701  0.29983  1.0000
  H   H512      1.0  0.72437  0.95551  0.37507  1.0000
  H   H513      1.0  0.87323  0.86367  0.32420  1.0000
  H   H514      1.0  0.74166  0.03152  0.25666  1.0000
  Fe  Fe57      1.0  0.57508  0.84217  0.40483  1.0000
  S   S113      1.0  0.99414  0.95617  0.39226  1.0000
  C   C425      1.0  0.89483  0.13231  0.33649  1.0000
  Fe  Fe58      1.0  0.56962  0.95197  0.33477  1.0000
  H   H515      1.0  0.92714  0.12571  0.35966  1.0000
  H   H516      1.0  0.97099  0.11816  0.28063  1.0000
  S   S114      1.0  0.95975  0.71849  0.33295  1.0000
  C   C426      1.0  0.67303  0.78294  0.45391  1.0000
  N   N30       1.0  0.89445  0.10472  0.28596  1.0000
  H   H517      1.0  0.70944  0.13119  0.39041  1.0000
  C   C427      1.0  0.69688  0.73831  0.47437  1.0000
  C   C428      1.0  0.89157  0.04564  0.30428  1.0000
  C   C429      1.0  0.59380  0.09598  0.33425  1.0000
  C   C430      1.0  0.94050  0.80244  0.38818  1.0000
  H   H518      1.0  0.88078  0.71332  0.24946  1.0000
  H   H519      1.0  0.88969  0.02267  0.26834  1.0000
  C   C431      1.0  0.94032  0.12127  0.25377  1.0000
  C   C432      1.0  0.83525  0.85842  0.32199  1.0000
  H   H520      1.0  0.69903  0.83988  0.32097  1.0000
  C   C433      1.0  0.97242  0.78297  0.35202  1.0000
  H   H521      1.0  0.78355  0.01047  0.30496  1.0000
  S   S115      1.0  0.78345  0.06104  0.41291  1.0000
  C   C434      1.0  0.61257  0.08200  0.28433  1.0000
  Fe  Fe59      1.0  0.93144  0.96725  0.44793  1.0000
  C   C435      1.0  0.81106  0.80754  0.33742  1.0000
  C   C436      1.0  0.81306  0.13857  0.27243  1.0000
  S   S116      1.0  0.60937  0.01453  0.27127  1.0000
  C   C437      1.0  0.74103  0.84325  0.46919  1.0000
  C   C438      1.0  0.98784  0.88864  0.37871  1.0000
  H   H522      1.0  0.80890  0.69930  0.42176  1.0000
  H   H523      1.0  0.84846  0.68318  0.47457  1.0000
  C   C439      1.0  0.70334  0.95424  0.33761  1.0000
  C   C440      1.0  0.83943  0.67541  0.43203  1.0000
  H   H524      1.0  0.74291  0.76197  0.34930  1.0000
  H   H525      1.0  0.02647  0.96727  0.26880  1.0000
  H   H526      1.0  0.85960  0.03220  0.33220  1.0000
  C   C441      1.0  0.73715  0.84628  0.31967  1.0000
  S   S117      1.0  0.56590  0.86692  0.31430  1.0000
  H   H527      1.0  0.90915  0.77758  0.40563  1.0000
  S   S118      1.0  0.58526  0.92761  0.42398  1.0000
  S   S119      1.0  0.90765  0.04227  0.47873  1.0000
  S   S120      1.0  0.61579  0.77131  0.43226  1.0000
  C   C442      1.0  0.01301  0.81578  0.33013  1.0000
  C   C443      1.0  0.76078  0.89877  0.30383  1.0000
  H   H528      1.0  0.92295  0.03362  0.32729  1.0000
  N   N31       1.0  0.73351  0.94597  0.28846  1.0000
  H   H529      1.0  0.67408  0.92171  0.34781  1.0000
  C   C444      1.0  0.02068  0.86872  0.34354  1.0000
  C   C445      1.0  0.76206  0.80134  0.33607  1.0000
  H   H530      1.0  0.68692  0.99335  0.33100  1.0000
  C   C446      1.0  0.81069  0.90343  0.30538  1.0000
  H   H531      1.0  0.67992  0.69763  0.47667  1.0000
  H   H532      1.0  0.94389  0.71293  0.47275  1.0000
  H   H533      1.0  0.75818  0.88379  0.46694  1.0000
  H   H534      1.0  0.67384  0.90383  0.25511  1.0000
  H   H535      1.0  0.03205  0.93012  0.49248  1.0000
  H   H536      1.0  0.03210  0.83929  0.48131  1.0000
  H   H537      1.0  0.54745  0.66620  0.44073  1.0000
  H   H538      1.0  0.80889  0.14647  0.31494  1.0000
  C   C447      1.0  0.76467  0.79837  0.48985  1.0000
  C   C448      1.0  0.74238  0.74604  0.49286  1.0000
  C   C449      1.0  0.00227  0.66394  0.46903  1.0000
  C   C450      1.0  0.97411  0.69834  0.49351  1.0000
  H   H539      1.0  0.84623  0.05049  0.73976  1.0000
  S   S121      1.0  0.55931  0.97636  0.72447  1.0000
  C   C451      1.0  0.76368  0.10008  0.51102  1.0000
  C   C452      1.0  0.96663  0.02278  0.65708  1.0000
  H   H540      1.0  0.02671  0.89744  0.61860  1.0000
  H   H541      1.0  0.91173  0.67567  0.65968  1.0000
  H   H542      1.0  0.67789  0.03990  0.64556  1.0000
  C   C453      1.0  0.90039  0.81594  0.73940  1.0000
  H   H543      1.0  0.99207  0.03996  0.57104  1.0000
  C   C454      1.0  0.64234  0.01536  0.51650  1.0000
  H   H544      1.0  0.70454  0.90728  0.55095  1.0000
  H   H545      1.0  0.95251  0.00809  0.74594  1.0000
  H   H546      1.0  0.96274  0.74089  0.56340  1.0000
  C   C455      1.0  0.98476  0.71378  0.54477  1.0000
  H   H547      1.0  0.55389  0.84518  0.62369  1.0000
  H   H548      1.0  0.70811  0.12716  0.70777  1.0000
  C   C456      1.0  0.63351  0.91376  0.58585  1.0000
  Fe  Fe60      1.0  0.72110  0.73561  0.73260  1.0000
  H   H549      1.0  0.00967  0.85711  0.56688  1.0000
  H   H550      1.0  0.65135  0.00608  0.74130  1.0000
  C   C457      1.0  0.82551  0.79213  0.67357  1.0000
  H   H551      1.0  0.79676  0.78239  0.64804  1.0000
  H   H552      1.0  0.62823  0.77588  0.60697  1.0000
  C   C458      1.0  0.90910  0.79549  0.68936  1.0000
  H   H553      1.0  0.93454  0.13252  0.65054  1.0000
  C   C459      1.0  0.67504  0.93190  0.55159  1.0000
  H   H554      1.0  0.57703  0.87518  0.68186  1.0000
  C   C460      1.0  0.75877  0.95445  0.73956  1.0000
  S   S122      1.0  0.92174  0.91647  0.53154  1.0000
  H   H555      1.0  0.58144  0.80494  0.67727  1.0000
  S   S123      1.0  0.90647  0.01543  0.64342  1.0000
  H   H556      1.0  0.74402  0.12671  0.58932  1.0000
  C   C461      1.0  0.58339  0.84591  0.65210  1.0000
  H   H557      1.0  0.66395  0.81919  0.68951  1.0000
  H   H558      1.0  0.91663  0.14250  0.55150  1.0000
  C   C462      1.0  0.73658  0.12779  0.54593  1.0000
  C   C463      1.0  0.02367  0.69475  0.57189  1.0000
  C   C464      1.0  0.77371  0.97489  0.68459  1.0000
  H   H559      1.0  0.67288  0.81892  0.56625  1.0000
  H   H560      1.0  0.79220  0.07796  0.52739  1.0000
  C   C465      1.0  0.66692  0.85830  0.66104  1.0000
  C   C466      1.0  0.87182  0.78516  0.65572  1.0000
  C   C467      1.0  0.97923  0.01883  0.71233  1.0000
  S   S124      1.0  0.96534  0.77782  0.67014  1.0000
  S   S125      1.0  0.56412  0.68929  0.65486  1.0000
  H   H561      1.0  0.03043  0.70800  0.61160  1.0000
  C   C468      1.0  0.63606  0.81738  0.58398  1.0000
  C   C469      1.0  0.00179  0.03564  0.61383  1.0000
  S   S126      1.0  0.82203  0.80655  0.51201  1.0000
  C   C470      1.0  0.60144  0.99929  0.55035  1.0000
  H   H562      1.0  0.57281  0.02548  0.54987  1.0000
  H   H563      1.0  0.61229  0.82112  0.54876  1.0000
  N   N32       1.0  0.62965  0.85985  0.62034  1.0000
  H   H564      1.0  0.79056  0.10759  0.71440  1.0000
  S   S127      1.0  0.81744  0.96146  0.54291  1.0000
  H   H565      1.0  0.75592  0.02052  0.60815  1.0000
  C   C471      1.0  0.67910  0.98176  0.51715  1.0000
  Fe  Fe61      1.0  0.01983  0.78252  0.73313  1.0000
  Fe  Fe62      1.0  0.63440  0.67783  0.69092  1.0000
  Fe  Fe63      1.0  0.89184  0.98869  0.56067  1.0000
  H   H566      1.0  0.87835  0.76998  0.61659  1.0000
  S   S128      1.0  0.70424  0.71292  0.64918  1.0000
  C   C472      1.0  0.59679  0.94925  0.58455  1.0000
  H   H567      1.0  0.86505  0.67948  0.71129  1.0000
  C   C473      1.0  0.68586  0.99695  0.72732  1.0000
  C   C474      1.0  0.54586  0.04286  0.72958  1.0000
  C   C475      1.0  0.70081  0.01661  0.67217  1.0000
  C   C476      1.0  0.81656  0.81155  0.72407  1.0000
  H   H568      1.0  0.80771  0.96567  0.66781  1.0000
  H   H569      1.0  0.66474  0.89160  0.68695  1.0000
  Fe  Fe64      1.0  0.84901  0.89400  0.50615  1.0000
  H   H570      1.0  0.70316  0.86267  0.64072  1.0000
  H   H571      1.0  0.59776  0.67604  0.51925  1.0000
  C   C477      1.0  0.74470  0.00568  0.65096  1.0000
  C   C478      1.0  0.55122  0.08216  0.68239  1.0000
  H   H572      1.0  0.56463  0.07182  0.64306  1.0000
  H   H573      1.0  0.56392  0.93951  0.60938  1.0000
  H   H574      1.0  0.97522  0.67221  0.72361  1.0000
  C   C479      1.0  0.53769  0.13450  0.68549  1.0000
  H   H575      1.0  0.86553  0.14829  0.72737  1.0000
  C   C480      1.0  0.02654  0.02776  0.72457  1.0000
  H   H576      1.0  0.76009  0.71143  0.51016  1.0000
