data_image0
_chemical_formula_structural       CH3CHSCHCH3C4HCFeCHCH2SHNH2C2H2C3HNCFeH2CH3CSHFeH3SH5CH3CHNCHSCHC2SHC3HCH2SH2C3HNHFeHC2HCSHCH2CHC2H2CH2CH3FeHC2HNH3CH2CH3CHFeC2H8C3HSHCNHS2NH2SC2H5CHCH3C2SCFeC2HCHSFeC2SH2CHC2SCHC5SCHCHCHC2H2C2H2NHCHCHSCSFeC2HSCHC2SHCHFeH3FeH3C2HSHFeH3C2SH2C3SHSC3FeSHCH2C2H5FeH4C2HC2HFeSC3SC4HS2H2SHSCH3C3HC2FeHCHCHCHCHCH2C5SH2CH2CH4CHCHCHCHC3H2CH2C2HSHC3H2NC3H2CH2CH2CH2CHC2H2C2HC2NH2C2SCSHC4HCHCH2C2SH2SCHCH3CHC2HC6HCH2CH2SH3C4H2NCFeHC2FeCSCH4C3HCHSHC2H2C2FeSCHC3HSHNHCH2SNHCSCHCHFeHCH2CFeH3FeHCHCS3HSHFeNC2H4C2H2SH2CHSC2H2Fe2SHSHSFe2H5CHSFeHSC2SFeCFeHCHC2H2SNSCHFeH2NH2SC4H3C3HCH3SHCHSC2HFeH3SHCH2SCHC2H
_chemical_formula_sum              "C240 H288 S64 Fe32 N16"
_cell_length_a       19.3009
_cell_length_b       10.8878
_cell_length_c       40.4361
_cell_angle_alpha    89.064
_cell_angle_beta     89.9705
_cell_angle_gamma    74.9913

_space_group_name_H-M_alt    "P 1"
_space_group_IT_number       1

loop_
  _space_group_symop_operation_xyz
  'x, y, z'

loop_
  _atom_site_type_symbol
  _atom_site_label
  _atom_site_symmetry_multiplicity
  _atom_site_fract_x
  _atom_site_fract_y
  _atom_site_fract_z
  _atom_site_occupancy
  C   C1        1.0  0.31824  0.32267  0.24216  1.0000
  H   H1        1.0  0.13363  0.10949  0.27971  1.0000
  H   H2        1.0  0.38188  0.25864  0.28577  1.0000
  H   H3        1.0  0.22155  0.17036  0.43333  1.0000
  C   C2        1.0  0.34907  0.98518  0.42454  1.0000
  H   H4        1.0  0.20135  0.05465  0.40607  1.0000
  S   S1        1.0  0.24738  0.26566  0.25707  1.0000
  C   C3        1.0  0.19782  0.08793  0.43194  1.0000
  H   H5        1.0  0.42247  0.30028  0.40048  1.0000
  C   C4        1.0  0.31094  0.93110  0.44843  1.0000
  H   H6        1.0  0.25310  0.86736  0.35524  1.0000
  H   H7        1.0  0.13615  0.92189  0.45829  1.0000
  H   H8        1.0  0.32352  0.06600  0.40910  1.0000
  C   C5        1.0  0.42286  0.93544  0.42001  1.0000
  C   C6        1.0  0.04036  0.97053  0.38312  1.0000
  C   C7        1.0  0.99345  0.09135  0.38110  1.0000
  C   C8        1.0  0.19449  0.88374  0.45300  1.0000
  H   H9        1.0  0.02664  0.89854  0.39879  1.0000
  C   C9        1.0  0.07149  0.15530  0.34124  1.0000
  Fe  Fe1       1.0  0.15411  0.28587  0.22322  1.0000
  C   C10       1.0  0.10337  0.94119  0.36441  1.0000
  H   H10       1.0  0.39170  0.17993  0.35497  1.0000
  C   C11       1.0  0.44620  0.18854  0.35733  1.0000
  H   H11       1.0  0.13256  0.94584  0.28169  1.0000
  H   H12       1.0  0.24455  0.10085  0.35461  1.0000
  S   S2        1.0  0.98585  0.03309  0.25303  1.0000
  H   H13       1.0  0.27849  0.08113  0.31329  1.0000
  N   N1        1.0  0.18673  0.00601  0.32241  1.0000
  H   H14       1.0  0.19843  0.19939  0.32152  1.0000
  H   H15       1.0  0.45136  0.97662  0.40161  1.0000
  C   C12       1.0  0.00867  0.18317  0.36000  1.0000
  C   C13       1.0  0.37839  0.30900  0.26233  1.0000
  H   H16       1.0  0.08009  0.22917  0.32477  1.0000
  H   H17       1.0  0.13953  0.12475  0.43754  1.0000
  C   C14       1.0  0.12126  0.03374  0.34308  1.0000
  C   C15       1.0  0.16579  0.01288  0.28709  1.0000
  C   C16       1.0  0.22851  0.10065  0.32829  1.0000
  H   H18       1.0  0.21347  0.99033  0.27058  1.0000
  N   N2        1.0  0.23367  0.98402  0.45520  1.0000
  C   C17       1.0  0.23552  0.87825  0.32892  1.0000
  Fe  Fe2       1.0  0.02984  0.16625  0.22246  1.0000
  H   H19       1.0  0.28532  0.86189  0.31381  1.0000
  H   H20       1.0  0.38045  0.94933  0.22707  1.0000
  C   C18       1.0  0.46429  0.25844  0.38319  1.0000
  H   H21       1.0  0.13642  0.84490  0.36679  1.0000
  H   H22       1.0  0.19999  0.84089  0.42807  1.0000
  H   H23       1.0  0.11592  0.26876  0.59595  1.0000
  C   C19       1.0  0.10442  0.19890  0.57962  1.0000
  S   S3        1.0  0.01763  0.26041  0.67067  1.0000
  H   H24       1.0  0.00062  0.00580  0.63789  1.0000
  Fe  Fe3       1.0  0.13352  0.16026  0.66557  1.0000
  H   H25       1.0  0.43466  0.24951  0.60641  1.0000
  H   H26       1.0  0.06142  0.94771  0.52178  1.0000
  H   H27       1.0  0.24589  0.19796  0.55980  1.0000
  S   S4        1.0  0.17169  0.01905  0.62563  1.0000
  H   H28       1.0  0.27897  0.97834  0.68005  1.0000
  H   H29       1.0  0.37154  0.94252  0.66972  1.0000
  H   H30       1.0  0.26695  0.16283  0.62092  1.0000
  H   H31       1.0  0.24077  0.95890  0.50845  1.0000
  H   H32       1.0  0.16969  0.08753  0.49411  1.0000
  C   C20       1.0  0.22587  0.03528  0.48910  1.0000
  H   H33       1.0  0.29789  0.28873  0.53726  1.0000
  H   H34       1.0  0.35339  0.16279  0.63672  1.0000
  H   H35       1.0  0.46730  0.09171  0.68241  1.0000
  C   C21       1.0  0.40533  0.24500  0.58304  1.0000
  H   H36       1.0  0.43521  0.15434  0.57157  1.0000
  N   N3        1.0  0.32846  0.24949  0.58832  1.0000
  C   C22       1.0  0.32782  0.89855  0.67733  1.0000
  H   H37       1.0  0.34559  0.05437  0.60484  1.0000
  S   S5        1.0  0.01103  0.19129  0.49007  1.0000
  C   C23       1.0  0.06932  0.23732  0.54927  1.0000
  H   H38       1.0  0.31740  0.27954  0.70746  1.0000
  C   C24       1.0  0.12600  0.06967  0.58839  1.0000
  C   C25       1.0  0.32361  0.15299  0.61378  1.0000
  S   S6        1.0  0.17470  0.32799  0.67888  1.0000
  H   H39       1.0  0.33452  0.12297  0.54714  1.0000
  C   C26       1.0  0.05225  0.14703  0.52869  1.0000
  C   C27       1.0  0.30021  0.21395  0.55668  1.0000
  C   C28       1.0  0.11141  0.97949  0.56721  1.0000
  H   H40       1.0  0.31946  0.83878  0.65636  1.0000
  C   C29       1.0  0.07316  0.01829  0.53780  1.0000
  H   H41       1.0  0.12787  0.87954  0.57396  1.0000
  H   H42       1.0  0.25949  0.10300  0.49262  1.0000
  S   S7        1.0  0.14291  0.07860  0.71676  1.0000
  H   H43       1.0  0.20982  0.83617  0.68078  1.0000
  H   H44       1.0  0.41107  0.32458  0.56666  1.0000
  C   C30       1.0  0.35028  0.30089  0.72700  1.0000
  C   C31       1.0  0.37681  0.31031  0.78522  1.0000
  C   C32       1.0  0.33293  0.28473  0.76010  1.0000
  H   H45       1.0  0.16076  0.20792  0.83138  1.0000
  N   N4        1.0  0.45030  0.19192  0.91037  1.0000
  H   H46       1.0  0.46055  0.99203  0.91947  1.0000
  Fe  Fe4       1.0  0.03011  0.19187  0.72313  1.0000
  H   H47       1.0  0.36389  0.29346  0.87847  1.0000
  C   C33       1.0  0.09027  0.28290  0.87070  1.0000
  C   C34       1.0  0.11448  0.06130  0.85285  1.0000
  H   H48       1.0  0.37326  0.86023  0.75859  1.0000
  C   C35       1.0  0.14328  0.83168  0.84013  1.0000
  S   S8        1.0  0.25650  0.23400  0.77091  1.0000
  H   H49       1.0  0.43467  0.10105  0.84807  1.0000
  C   C36       1.0  0.06459  0.04276  0.87714  1.0000
  H   H50       1.0  0.13740  0.08035  0.78780  1.0000
  H   H51       1.0  0.36397  0.29648  0.81081  1.0000
  C   C37       1.0  0.23188  0.94862  0.83248  1.0000
  H   H52       1.0  0.25106  0.94225  0.85854  1.0000
  C   C38       1.0  0.41834  0.08260  0.91562  1.0000
  C   C39       1.0  0.04326  0.26036  0.89480  1.0000
  H   H53       1.0  0.06988  0.99667  0.79436  1.0000
  H   H54       1.0  0.24621  0.03156  0.82064  1.0000
  C   C40       1.0  0.39226  0.30630  0.90163  1.0000
  H   H55       1.0  0.99306  0.12518  0.91663  1.0000
  H   H56       1.0  0.05123  0.95328  0.88087  1.0000
  C   C41       1.0  0.12515  0.18530  0.84984  1.0000
  H   H57       1.0  0.15684  0.91364  0.77930  1.0000
  H   H58       1.0  0.38419  0.06901  0.89462  1.0000
  H   H59       1.0  0.35079  0.33029  0.92131  1.0000
  Fe  Fe5       1.0  0.17297  0.25515  0.73112  1.0000
  H   H60       1.0  0.38288  0.09452  0.93769  1.0000
  C   C42       1.0  0.03017  0.14114  0.89788  1.0000
  C   C43       1.0  0.12844  0.98841  0.79662  1.0000
  H   H61       1.0  0.99525  0.22250  0.79883  1.0000
  N   N5        1.0  0.15366  0.95848  0.83108  1.0000
  H   H62       1.0  0.26405  0.86344  0.81948  1.0000
  H   H63       1.0  0.44284  0.22440  0.96314  1.0000
  H   H64       1.0  0.39837  0.95972  0.72778  1.0000
  C   C44       1.0  0.35638  0.91032  0.73463  1.0000
  H   H65       1.0  0.30590  0.98494  0.73925  1.0000
  H   H66       1.0  0.01620  0.02591  0.11449  1.0000
  C   C45       1.0  0.07884  0.16661  0.01701  1.0000
  H   H67       1.0  0.02023  0.92500  0.03722  1.0000
  H   H68       1.0  0.29674  0.04465  0.21116  1.0000
  H   H69       1.0  0.44776  0.83833  0.16158  1.0000
  C   C46       1.0  0.02639  0.92409  0.10776  1.0000
  H   H70       1.0  0.46335  0.18820  0.19603  1.0000
  Fe  Fe6       1.0  0.10052  0.21360  0.15822  1.0000
  C   C47       1.0  0.11483  0.11557  0.04614  1.0000
  C   C48       1.0  0.29091  0.26579  0.02252  1.0000
  H   H71       1.0  0.35876  0.12442  0.07708  1.0000
  H   H72       1.0  0.06803  0.90663  0.08816  1.0000
  H   H73       1.0  0.25940  0.85358  0.06977  1.0000
  H   H74       1.0  0.28999  0.20588  0.10477  1.0000
  H   H75       1.0  0.34311  0.20322  0.01451  1.0000
  H   H76       1.0  0.26653  0.12685  0.07042  1.0000
  H   H77       1.0  0.24936  0.21275  0.01853  1.0000
  H   H78       1.0  0.09053  0.11494  0.99416  1.0000
  C   C49       1.0  0.30292  0.18541  0.07833  1.0000
  C   C50       1.0  0.09912  0.18076  0.07584  1.0000
  C   C51       1.0  0.04879  0.29901  0.07628  1.0000
  H   H79       1.0  0.05134  0.86515  0.12949  1.0000
  S   S9        1.0  0.14160  0.10221  0.20409  1.0000
  H   H80       1.0  0.30645  0.85638  0.13317  1.0000
  C   C52       1.0  0.02734  0.28344  0.01754  1.0000
  N   N6        1.0  0.34175  0.87639  0.18304  1.0000
  H   H81       1.0  0.37880  0.04464  0.19079  1.0000
  S   S10       1.0  0.98572  0.25874  0.17464  1.0000
  S   S11       1.0  0.14519  0.11504  0.11183  1.0000
  N   N7        1.0  0.29389  0.30282  0.05764  1.0000
  H   H82       1.0  0.37717  0.87548  0.04871  1.0000
  H   H83       1.0  0.15406  0.02452  0.04564  1.0000
  S   S12       1.0  0.47105  0.07921  0.13216  1.0000
  C   C53       1.0  0.34971  0.98276  0.20397  1.0000
  C   C54       1.0  0.31223  0.93134  0.15057  1.0000
  H   H84       1.0  0.25952  0.00139  0.15351  1.0000
  H   H85       1.0  0.34772  0.98357  0.13815  1.0000
  H   H86       1.0  0.20932  0.83337  0.16340  1.0000
  H   H87       1.0  0.32337  0.71084  0.41064  1.0000
  H   H88       1.0  0.30889  0.39245  0.32676  1.0000
  C   C55       1.0  0.31264  0.46128  0.34521  1.0000
  H   H89       1.0  0.07461  0.76115  0.26807  1.0000
  C   C56       1.0  0.04970  0.71055  0.28581  1.0000
  H   H90       1.0  0.38614  0.53993  0.31680  1.0000
  H   H91       1.0  0.14903  0.61201  0.30959  1.0000
  H   H92       1.0  0.21013  0.80073  0.32270  1.0000
  C   C57       1.0  0.35993  0.63545  0.36320  1.0000
  C   C58       1.0  0.05815  0.56592  0.33224  1.0000
  S   S13       1.0  0.09954  0.64567  0.43153  1.0000
  C   C59       1.0  0.27361  0.46717  0.37462  1.0000
  Fe  Fe7       1.0  0.98908  0.61640  0.43186  1.0000
  C   C60       1.0  0.43052  0.42580  0.22219  1.0000
  C   C61       1.0  0.98364  0.58491  0.33191  1.0000
  H   H93       1.0  0.29673  0.62349  0.27066  1.0000
  C   C62       1.0  0.27726  0.67333  0.24769  1.0000
  H   H94       1.0  0.44581  0.47104  0.42165  1.0000
  S   S14       1.0  0.22018  0.36143  0.38210  1.0000
  Fe  Fe8       1.0  0.13680  0.43832  0.42071  1.0000
  C   C63       1.0  0.35631  0.54478  0.33958  1.0000
  C   C64       1.0  0.32014  0.64194  0.39229  1.0000
  S   S15       1.0  0.41135  0.74532  0.35686  1.0000
  H   H95       1.0  0.18455  0.59884  0.24557  1.0000
  H   H96       1.0  0.24925  0.56086  0.42116  1.0000
  C   C65       1.0  0.27770  0.55748  0.39813  1.0000
  H   H97       1.0  0.09039  0.50316  0.35066  1.0000
  C   C66       1.0  0.43432  0.36026  0.25234  1.0000
  C   C67       1.0  0.09123  0.62802  0.30917  1.0000
  S   S16       1.0  0.02577  0.41343  0.41606  1.0000
  C   C68       1.0  0.42462  0.77557  0.46210  1.0000
  H   H98       1.0  0.36757  0.74946  0.24268  1.0000
  C   C69       1.0  0.31781  0.74485  0.23133  1.0000
  C   C70       1.0  0.97530  0.72923  0.28508  1.0000
  C   C71       1.0  0.35137  0.82622  0.46745  1.0000
  C   C72       1.0  0.21404  0.65934  0.23359  1.0000
  C   C73       1.0  0.46039  0.83047  0.43854  1.0000
  S   S17       1.0  0.04484  0.34233  0.24549  1.0000
  C   C74       1.0  0.35143  0.48784  0.49781  1.0000
  H   H99       1.0  0.29689  0.59029  0.66007  1.0000
  C   C75       1.0  0.28793  0.37572  0.60014  1.0000
  H   H100      1.0  0.45769  0.77142  0.69382  1.0000
  C   C76       1.0  0.97208  0.50458  0.61633  1.0000
  H   H101      1.0  0.24574  0.51528  0.47804  1.0000
  C   C77       1.0  0.17322  0.71172  0.71292  1.0000
  C   C78       1.0  0.39333  0.52444  0.52191  1.0000
  H   H102      1.0  0.26148  0.72966  0.56447  1.0000
  H   H103      1.0  0.12295  0.72494  0.69949  1.0000
  C   C79       1.0  0.24457  0.62433  0.52189  1.0000
  C   C80       1.0  0.20791  0.60940  0.62673  1.0000
  H   H104      1.0  0.12690  0.60113  0.59116  1.0000
  H   H105      1.0  0.02704  0.44810  0.61768  1.0000
  N   N8        1.0  0.34604  0.82267  0.70847  1.0000
  H   H106      1.0  0.42515  0.35439  0.69360  1.0000
  C   C81       1.0  0.21858  0.43902  0.58783  1.0000
  H   H107      1.0  0.39389  0.64132  0.56443  1.0000
  C   C82       1.0  0.22398  0.77519  0.70238  1.0000
  H   H108      1.0  0.32665  0.78281  0.48674  1.0000
  S   S18       1.0  0.14936  0.37599  0.47388  1.0000
  C   C83       1.0  0.28666  0.66286  0.54575  1.0000
  S   S19       1.0  0.15129  0.68222  0.52216  1.0000
  Fe  Fe9       1.0  0.05857  0.42300  0.68832  1.0000
  C   C84       1.0  0.17940  0.55375  0.60116  1.0000
  C   C85       1.0  0.41509  0.72690  0.70283  1.0000
  H   H109      1.0  0.17734  0.69947  0.63638  1.0000
  S   S20       1.0  0.00335  0.62129  0.67110  1.0000
  C   C86       1.0  0.27519  0.54881  0.63972  1.0000
  H   H110      1.0  0.40918  0.65598  0.68425  1.0000
  C   C87       1.0  0.36135  0.61315  0.54569  1.0000
  C   C88       1.0  0.27731  0.53968  0.49749  1.0000
  S   S21       1.0  0.98908  0.57011  0.48628  1.0000
  H   H111      1.0  0.37630  0.42111  0.47905  1.0000
  C   C89       1.0  0.31438  0.43317  0.62693  1.0000
  H   H112      1.0  0.45402  0.69445  0.47670  1.0000
  Fe  Fe10      1.0  0.10308  0.58194  0.48441  1.0000
  H   H113      1.0  0.98939  0.80784  0.61242  1.0000
  H   H114      1.0  0.19324  0.40292  0.56773  1.0000
  H   H115      1.0  0.05428  0.33692  0.54210  1.0000
  Fe  Fe11      1.0  0.03516  0.36879  0.47044  1.0000
  H   H116      1.0  0.36500  0.38805  0.63863  1.0000
  H   H117      1.0  0.21376  0.80552  0.47126  1.0000
  H   H118      1.0  0.24734  0.70826  0.92333  1.0000
  C   C90       1.0  0.25119  0.61304  0.75771  1.0000
  C   C91       1.0  0.43656  0.35588  0.77741  1.0000
  H   H119      1.0  0.10024  0.37618  0.86829  1.0000
  S   S22       1.0  0.01475  0.59551  0.91647  1.0000
  H   H120      1.0  0.31485  0.50310  0.83434  1.0000
  Fe  Fe12      1.0  0.12954  0.59402  0.92469  1.0000
  H   H121      1.0  0.41391  0.39084  0.89756  1.0000
  H   H122      1.0  0.14816  0.57915  0.74801  1.0000
  H   H123      1.0  0.17668  0.75454  0.82480  1.0000
  C   C92       1.0  0.45404  0.37193  0.74436  1.0000
  C   C93       1.0  0.30227  0.67619  0.74746  1.0000
  S   S23       1.0  0.44455  0.81565  0.86459  1.0000
  H   H124      1.0  0.40888  0.61874  0.82645  1.0000
  H   H125      1.0  0.35149  0.65850  0.76165  1.0000
  C   C94       1.0  0.37403  0.63778  0.84774  1.0000
  C   C95       1.0  0.27486  0.59817  0.87934  1.0000
  C   C96       1.0  0.18705  0.63008  0.74035  1.0000
  S   S24       1.0  0.20692  0.51946  0.88373  1.0000
  H   H126      1.0  0.15847  0.80644  0.86637  1.0000
  S   S25       1.0  0.10373  0.79035  0.94543  1.0000
  C   C97       1.0  0.33502  0.75467  0.89773  1.0000
  C   C98       1.0  0.32075  0.57274  0.85210  1.0000
  C   C99       1.0  0.38089  0.72920  0.87054  1.0000
  Fe  Fe13      1.0  0.98917  0.78303  0.94148  1.0000
  S   S26       1.0  0.05973  0.36401  0.74185  1.0000
  H   H127      1.0  0.35471  0.65852  0.96360  1.0000
  C   C100      1.0  0.28220  0.68877  0.90218  1.0000
  H   H128      1.0  0.26190  0.54834  0.77888  1.0000
  H   H129      1.0  0.97279  0.76953  0.82237  1.0000
  C   C101      1.0  0.29062  0.75835  0.71918  1.0000
  C   C102      1.0  0.41122  0.34324  0.71917  1.0000
  H   H130      1.0  0.43672  0.67311  0.72566  1.0000
  H   H131      1.0  0.01639  0.33503  0.91116  1.0000
  H   H132      1.0  0.46974  0.37607  0.79699  1.0000
  H   H133      1.0  0.08678  0.82818  0.83656  1.0000
  H   H134      1.0  0.34057  0.82491  0.91551  1.0000
  Fe  Fe14      1.0  0.02045  0.51451  0.96777  1.0000
  H   H135      1.0  0.97561  0.44370  0.04697  1.0000
  H   H136      1.0  0.14099  0.70763  0.19257  1.0000
  H   H137      1.0  0.36782  0.48698  0.17801  1.0000
  H   H138      1.0  0.43938  0.45880  0.12970  1.0000
  C   C103      1.0  0.37216  0.77121  0.00425  1.0000
  C   C104      1.0  0.34665  0.82358  0.03473  1.0000
  H   H139      1.0  0.37291  0.41506  0.01303  1.0000
  C   C105      1.0  0.33350  0.70252  0.98650  1.0000
  C   C106      1.0  0.28042  0.81083  0.04666  1.0000
  H   H140      1.0  0.22059  0.41749  0.09227  1.0000
  Fe  Fe15      1.0  0.10185  0.69105  0.99445  1.0000
  S   S27       1.0  0.13754  0.49496  0.97399  1.0000
  C   C107      1.0  0.45668  0.49880  0.07869  1.0000
  C   C108      1.0  0.23066  0.79048  0.18678  1.0000
  C   C109      1.0  0.26731  0.69153  0.99807  1.0000
  S   S28       1.0  0.98129  0.34590  0.98129  1.0000
  C   C110      1.0  0.01369  0.35136  0.04694  1.0000
  C   C111      1.0  0.35167  0.36615  0.06439  1.0000
  C   C112      1.0  0.22428  0.39214  0.06567  1.0000
  C   C113      1.0  0.31514  0.38357  0.21124  1.0000
  H   H141      1.0  0.01649  0.74066  0.06635  1.0000
  S   S29       1.0  0.45167  0.79088  0.98734  1.0000
  S   S30       1.0  0.15419  0.74117  0.03997  1.0000
  H   H142      1.0  0.26892  0.39354  0.19545  1.0000
  H   H143      1.0  0.17857  0.35155  0.05993  1.0000
  S   S31       1.0  0.12267  0.39449  0.17559  1.0000
  H   H144      1.0  0.44466  0.76075  0.20018  1.0000
  S   S32       1.0  0.98445  0.70214  0.99265  1.0000
  C   C114      1.0  0.37131  0.43592  0.20130  1.0000
  H   H145      1.0  0.41032  0.70338  0.16406  1.0000
  H   H146      1.0  0.34734  0.34847  0.11831  1.0000
  H   H147      1.0  0.03801  0.35088  0.09903  1.0000
  C   C115      1.0  0.19036  0.71886  0.20340  1.0000
  C   C116      1.0  0.42366  0.44891  0.10433  1.0000
  C   C117      1.0  0.43809  0.48387  0.04603  1.0000
  H   H148      1.0  0.23720  0.64093  0.98364  1.0000
  C   C118      1.0  0.24010  0.74723  0.02780  1.0000
  C   C119      1.0  0.29631  0.80464  0.20021  1.0000
  Fe  Fe16      1.0  0.01094  0.43208  0.19606  1.0000
  H   H149      1.0  0.46359  0.52407  0.02615  1.0000
  C   C120      1.0  0.37164  0.38418  0.09743  1.0000
  H   H150      1.0  0.21623  0.48223  0.05109  1.0000
  C   C121      1.0  0.38596  0.41969  0.03882  1.0000
  H   H151      1.0  0.99838  0.69249  0.10703  1.0000
  C   C122      1.0  0.41395  0.79109  0.17695  1.0000
  H   H152      1.0  0.27550  0.35016  0.00564  1.0000
  C   C123      1.0  0.97597  0.76007  0.08640  1.0000
  H   H153      1.0  0.94425  0.11287  0.39535  1.0000
  C   C124      1.0  0.80721  0.26760  0.31670  1.0000
  H   H154      1.0  0.53819  0.12709  0.24659  1.0000
  H   H155      1.0  0.58720  0.18473  0.44606  1.0000
  C   C125      1.0  0.56785  0.14118  0.33749  1.0000
  C   C126      1.0  0.88159  0.24714  0.26772  1.0000
  C   C127      1.0  0.84618  0.14686  0.32756  1.0000
  C   C128      1.0  0.58640  0.21154  0.36313  1.0000
  C   C129      1.0  0.90164  0.07496  0.30808  1.0000
  S   S33       1.0  0.65799  0.91673  0.26090  1.0000
  H   H156      1.0  0.66022  0.02211  0.41031  1.0000
  H   H157      1.0  0.97071  0.27572  0.35771  1.0000
  C   C130      1.0  0.53478  0.27397  0.38663  1.0000
  H   H158      1.0  0.60805  0.09527  0.31970  1.0000
  H   H159      1.0  0.72132  0.25527  0.23817  1.0000
  C   C131      1.0  0.91861  0.12442  0.27796  1.0000
  H   H160      1.0  0.49452  0.26605  0.45051  1.0000
  H   H161      1.0  0.84585  0.85052  0.33711  1.0000
  H   H162      1.0  0.89588  0.28690  0.24484  1.0000
  H   H163      1.0  0.64163  0.21542  0.36389  1.0000
  C   C132      1.0  0.54876  0.28006  0.44590  1.0000
  H   H164      1.0  0.83507  0.88724  0.29360  1.0000
  C   C133      1.0  0.76907  0.90760  0.40695  1.0000
  H   H165      1.0  0.83334  0.10860  0.35096  1.0000
  C   C134      1.0  0.70144  0.94706  0.42175  1.0000
  H   H166      1.0  0.93210  0.98198  0.31664  1.0000
  C   C135      1.0  0.49790  0.13005  0.33452  1.0000
  H   H167      1.0  0.66840  0.27849  0.41304  1.0000
  C   C136      1.0  0.60946  0.96484  0.22438  1.0000
  C   C137      1.0  0.55128  0.07214  0.22438  1.0000
  C   C138      1.0  0.68728  0.88936  0.45123  1.0000
  H   H168      1.0  0.77993  0.95414  0.38446  1.0000
  H   H169      1.0  0.48398  0.07573  0.31449  1.0000
  C   C139      1.0  0.82516  0.31781  0.28686  1.0000
  H   H170      1.0  0.76637  0.83912  0.31550  1.0000
  H   H171      1.0  0.79212  0.15105  0.48647  1.0000
  C   C140      1.0  0.62275  0.14495  0.60750  1.0000
  C   C141      1.0  0.66008  0.13864  0.63737  1.0000
  H   H172      1.0  0.65642  0.19228  0.70417  1.0000
  S   S34       1.0  0.65134  0.83886  0.56195  1.0000
  H   H173      1.0  0.82434  0.02554  0.66330  1.0000
  C   C142      1.0  0.51793  0.02069  0.68504  1.0000
  C   C143      1.0  0.82135  0.15282  0.51012  1.0000
  C   C144      1.0  0.71249  0.20721  0.64198  1.0000
  H   H174      1.0  0.74902  0.00863  0.68754  1.0000
  H   H175      1.0  0.86546  0.19850  0.50439  1.0000
  N   N9        1.0  0.74861  0.20292  0.67446  1.0000
  C   C145      1.0  0.92334  0.90321  0.57187  1.0000
  C   C146      1.0  0.96247  0.89862  0.60116  1.0000
  C   C147      1.0  0.69393  0.25330  0.70007  1.0000
  H   H176      1.0  0.60608  0.22708  0.55843  1.0000
  H   H177      1.0  0.82886  0.27284  0.70000  1.0000
  C   C148      1.0  0.63626  0.21994  0.58135  1.0000
  H   H178      1.0  0.94340  0.21377  0.61124  1.0000
  H   H179      1.0  0.80506  0.86588  0.53767  1.0000
  C   C149      1.0  0.68812  0.28699  0.58483  1.0000
  H   H180      1.0  0.58256  0.09247  0.60478  1.0000
  H   H181      1.0  0.94514  0.97946  0.49492  1.0000
  C   C150      1.0  0.80226  0.27926  0.67532  1.0000
  H   H182      1.0  0.87620  0.22696  0.56055  1.0000
  H   H183      1.0  0.84587  0.24480  0.65709  1.0000
  C   C151      1.0  0.72611  0.28093  0.61457  1.0000
  H   H184      1.0  0.78311  0.21560  0.52704  1.0000
  C   C152      1.0  0.93652  0.12716  0.60063  1.0000
  C   C153      1.0  0.89801  0.13314  0.57113  1.0000
  H   H185      1.0  0.64684  0.08124  0.65716  1.0000
  H   H186      1.0  0.81836  0.06310  0.70642  1.0000
  C   C154      1.0  0.78652  0.06943  0.68322  1.0000
  C   C155      1.0  0.55933  0.01668  0.71366  1.0000
  H   H187      1.0  0.86819  0.94963  0.47509  1.0000
  C   C156      1.0  0.89057  0.02076  0.55570  1.0000
  C   C157      1.0  0.54218  0.93321  0.65993  1.0000
  N   N10       1.0  0.84972  0.02308  0.52459  1.0000
  H   H188      1.0  0.75505  0.01831  0.55200  1.0000
  H   H189      1.0  0.75196  0.97875  0.50921  1.0000
  C   C158      1.0  0.78789  0.96911  0.53114  1.0000
  C   C159      1.0  0.89628  0.94533  0.49929  1.0000
  S   S35       1.0  0.48992  0.93900  0.62446  1.0000
  C   C160      1.0  0.62467  0.92466  0.71717  1.0000
  S   S36       1.0  0.60351  0.94329  0.47033  1.0000
  H   H190      1.0  0.91425  0.84315  0.50647  1.0000
  C   C161      1.0  0.64889  0.83706  0.69209  1.0000
  C   C162      1.0  0.60791  0.84210  0.66326  1.0000
  C   C163      1.0  0.96877  0.01030  0.61561  1.0000
  C   C164      1.0  0.69094  0.84312  0.91266  1.0000
  H   H191      1.0  0.80293  0.14376  0.76178  1.0000
  C   C165      1.0  0.83207  0.01014  0.93648  1.0000
  H   H192      1.0  0.73290  0.27182  0.80623  1.0000
  C   C166      1.0  0.92359  0.84899  0.82481  1.0000
  H   H193      1.0  0.79954  0.16716  0.90181  1.0000
  H   H194      1.0  0.52881  0.13410  0.94937  1.0000
  C   C167      1.0  0.61937  0.17330  0.85885  1.0000
  C   C168      1.0  0.60117  0.12538  0.82927  1.0000
  S   S37       1.0  0.94960  0.09544  0.74353  1.0000
  H   H195      1.0  0.69047  0.27212  0.93318  1.0000
  H   H196      1.0  0.67058  0.19657  0.86111  1.0000
  S   S38       1.0  0.91035  0.94070  0.91488  1.0000
  C   C169      1.0  0.90331  0.17626  0.77708  1.0000
  H   H197      1.0  0.52050  0.06303  0.80280  1.0000
  C   C170      1.0  0.78648  0.12371  0.92447  1.0000
  H   H198      1.0  0.79291  0.96595  0.84668  1.0000
  H   H199      1.0  0.79207  0.97940  0.80252  1.0000
  H   H200      1.0  0.63799  0.11048  0.80856  1.0000
  C   C171      1.0  0.53473  0.09889  0.82604  1.0000
  H   H201      1.0  0.58207  0.92119  0.89671  1.0000
  C   C172      1.0  0.50313  0.16715  0.88302  1.0000
  C   C173      1.0  0.79420  0.91168  0.82345  1.0000
  H   H202      1.0  0.74405  0.88007  0.82184  1.0000
  C   C174      1.0  0.72499  0.18334  0.94224  1.0000
  C   C175      1.0  0.93839  0.23070  0.80081  1.0000
  C   C176      1.0  0.82503  0.31440  0.82864  1.0000
  C   C177      1.0  0.82984  0.18742  0.77977  1.0000
  C   C178      1.0  0.79040  0.25850  0.80514  1.0000
  C   C179      1.0  0.89935  0.29759  0.82709  1.0000
  H   H203      1.0  0.58814  0.23388  0.90723  1.0000
  C   C180      1.0  0.57115  0.19467  0.88531  1.0000
  H   H204      1.0  0.49945  0.30435  0.94219  1.0000
  H   H205      1.0  0.54022  0.08361  0.73324  1.0000
  C   C181      1.0  0.61844  0.84671  0.91080  1.0000
  H   H206      1.0  0.71049  0.91718  0.90062  1.0000
  H   H207      1.0  0.92562  0.92251  0.80573  1.0000
  S   S39       1.0  0.67202  0.90969  0.75434  1.0000
  H   H208      1.0  0.86869  0.89860  0.75950  1.0000
  H   H209      1.0  0.71841  0.26110  0.72455  1.0000
  H   H210      1.0  0.92620  0.89525  0.84886  1.0000
  C   C182      1.0  0.48195  0.21458  0.94252  1.0000
  C   C183      1.0  0.48603  0.12053  0.85229  1.0000
  C   C184      1.0  0.81503  0.95419  0.96563  1.0000
  C   C185      1.0  0.85482  0.05772  0.06983  1.0000
  H   H211      1.0  0.77098  0.19251  0.04310  1.0000
  H   H212      1.0  0.89874  0.00389  0.13618  1.0000
  N   N11       1.0  0.73741  0.28699  0.18596  1.0000
  C   C186      1.0  0.69321  0.25993  0.21393  1.0000
  Fe  Fe17      1.0  0.53113  0.99375  0.08739  1.0000
  H   H213      1.0  0.86165  0.87926  0.12065  1.0000
  C   C187      1.0  0.50895  0.10642  0.19593  1.0000
  C   C188      1.0  0.75320  0.01313  0.98319  1.0000
  Fe  Fe18      1.0  0.51437  0.86957  0.02343  1.0000
  C   C189      1.0  0.63325  0.27135  0.14898  1.0000
  S   S40       1.0  0.48988  0.07340  0.03764  1.0000
  C   C190      1.0  0.58383  0.92775  0.16715  1.0000
  H   H214      1.0  0.78993  0.09019  0.17832  1.0000
  H   H215      1.0  0.59579  0.87075  0.14522  1.0000
  H   H216      1.0  0.84171  0.19899  0.16597  1.0000
  H   H217      1.0  0.74228  0.97224  0.00651  1.0000
  C   C191      1.0  0.62526  0.89143  0.19591  1.0000
  C   C192      1.0  0.91208  0.90573  0.12653  1.0000
  C   C193      1.0  0.92642  0.97921  0.06920  1.0000
  H   H218      1.0  0.81938  0.05897  0.09054  1.0000
  C   C194      1.0  0.60097  0.28140  0.11776  1.0000
  H   H219      1.0  0.93827  0.84121  0.14719  1.0000
  S   S41       1.0  0.63418  0.20630  0.99496  1.0000
  H   H220      1.0  0.84532  0.20020  0.99386  1.0000
  C   C195      1.0  0.80321  0.18076  0.18464  1.0000
  C   C196      1.0  0.82628  0.13678  0.04288  1.0000
  H   H221      1.0  0.83188  0.16460  0.20885  1.0000
  H   H222      1.0  0.55037  0.25717  0.11482  1.0000
  C   C197      1.0  0.93657  0.06140  0.01300  1.0000
  C   C198      1.0  0.70870  0.12866  0.97177  1.0000
  Fe  Fe19      1.0  0.60510  0.05728  0.02664  1.0000
  S   S42       1.0  0.64558  0.99547  0.07776  1.0000
  C   C199      1.0  0.52541  0.03515  0.16727  1.0000
  H   H223      1.0  0.60421  0.24164  0.16911  1.0000
  C   C200      1.0  0.70042  0.29971  0.15352  1.0000
  C   C201      1.0  0.86762  0.14033  0.01487  1.0000
  C   C202      1.0  0.96599  0.98289  0.03980  1.0000
  H   H224      1.0  0.85001  0.86698  0.97506  1.0000
  S   S43       1.0  0.62582  0.85988  0.00778  1.0000
  H   H225      1.0  0.68067  0.16628  0.21143  1.0000
  N   N12       1.0  0.95914  0.89414  0.09711  1.0000
  H   H226      1.0  0.96752  0.06190  0.99061  1.0000
  C   C203      1.0  0.63356  0.32153  0.09038  1.0000
  H   H227      1.0  0.60823  0.32907  0.06621  1.0000
  H   H228      1.0  0.63144  0.42144  0.38863  1.0000
  S   S44       1.0  0.66028  0.56291  0.26110  1.0000
  N   N13       1.0  0.55267  0.34830  0.41430  1.0000
  H   H229      1.0  0.85887  0.50376  0.32686  1.0000
  C   C204      1.0  0.80797  0.75013  0.45058  1.0000
  S   S45       1.0  0.54262  0.47638  0.30850  1.0000
  C   C205      1.0  0.82568  0.82171  0.31346  1.0000
  H   H230      1.0  0.78084  0.66754  0.27109  1.0000
  C   C206      1.0  0.83935  0.65866  0.27266  1.0000
  H   H231      1.0  0.96141  0.53643  0.35101  1.0000
  Fe  Fe20      1.0  0.61532  0.75833  0.28034  1.0000
  H   H232      1.0  0.86898  0.56141  0.26510  1.0000
  C   C207      1.0  0.83319  0.60654  0.33027  1.0000
  H   H233      1.0  0.77446  0.61927  0.32746  1.0000
  H   H234      1.0  0.84966  0.72623  0.25356  1.0000
  C   C208      1.0  0.50111  0.47559  0.41546  1.0000
  Fe  Fe21      1.0  0.50491  0.67955  0.32291  1.0000
  H   H235      1.0  0.51750  0.79236  0.43471  1.0000
  H   H236      1.0  0.79666  0.41218  0.27898  1.0000
  H   H237      1.0  0.84163  0.63132  0.35630  1.0000
  Fe  Fe22      1.0  0.54584  0.55624  0.25711  1.0000
  H   H238      1.0  0.94544  0.79451  0.26655  1.0000
  C   C209      1.0  0.93992  0.66610  0.30788  1.0000
  H   H239      1.0  0.49931  0.52674  0.39130  1.0000
  C   C210      1.0  0.74077  0.79117  0.46568  1.0000
  S   S46       1.0  0.61537  0.70031  0.33369  1.0000
  S   S47       1.0  0.90742  0.76374  0.40309  1.0000
  S   S48       1.0  0.50107  0.75881  0.27147  1.0000
  H   H240      1.0  0.51610  0.53587  0.43474  1.0000
  S   S49       1.0  0.73823  0.35642  0.34132  1.0000
  H   H241      1.0  0.84845  0.67327  0.46170  1.0000
  Fe  Fe23      1.0  0.65319  0.50288  0.31399  1.0000
  N   N14       1.0  0.86102  0.68698  0.30631  1.0000
  C   C211      1.0  0.62557  0.36937  0.41192  1.0000
  C   C212      1.0  0.82246  0.80906  0.42137  1.0000
  H   H242      1.0  0.63695  0.42765  0.43262  1.0000
  H   H243      1.0  0.48159  0.34446  0.26748  1.0000
  H   H244      1.0  0.56237  0.33194  0.46741  1.0000
  H   H245      1.0  0.77979  0.40496  0.21872  1.0000
  C   C213      1.0  0.85425  0.54874  0.59116  1.0000
  C   C214      1.0  0.92566  0.47791  0.59262  1.0000
  H   H246      1.0  0.87946  0.78905  0.70733  1.0000
  H   H247      1.0  0.73116  0.74794  0.48882  1.0000
  S   S50       1.0  0.58986  0.59863  0.58985  1.0000
  H   H248      1.0  0.85753  0.75686  0.65253  1.0000
  H   H249      1.0  0.69774  0.34680  0.56458  1.0000
  C   C215      1.0  0.82983  0.65126  0.61230  1.0000
  H   H250      1.0  0.62676  0.77437  0.64389  1.0000
  S   S51       1.0  0.48567  0.45845  0.52195  1.0000
  C   C216      1.0  0.94729  0.60275  0.63855  1.0000
  C   C217      1.0  0.87675  0.67916  0.63586  1.0000
  H   H251      1.0  0.87340  0.56513  0.70492  1.0000
  H   H252      1.0  0.91972  0.81360  0.56182  1.0000
  Fe  Fe24      1.0  0.68469  0.62584  0.56121  1.0000
  Fe  Fe25      1.0  0.55080  0.81152  0.58549  1.0000
  S   S52       1.0  0.49192  0.81370  0.53775  1.0000
  H   H253      1.0  0.69890  0.76451  0.69510  1.0000
  S   S53       1.0  0.79651  0.50177  0.56377  1.0000
  H   H254      1.0  0.77461  0.70680  0.61107  1.0000
  S   S54       1.0  0.63654  0.61112  0.51176  1.0000
  Fe  Fe26      1.0  0.53917  0.60293  0.54002  1.0000
  Fe  Fe27      1.0  0.59580  0.82159  0.51443  1.0000
  H   H255      1.0  0.94467  0.40062  0.57575  1.0000
  H   H256      1.0  0.77691  0.38204  0.67033  1.0000
  H   H257      1.0  0.76493  0.33658  0.61556  1.0000
  H   H258      1.0  0.66067  0.35002  0.69304  1.0000
  H   H259      1.0  0.85698  0.77044  0.87487  1.0000
  C   C218      1.0  0.86011  0.54781  0.75747  1.0000
  H   H260      1.0  0.79441  0.74298  0.92965  1.0000
  S   S55       1.0  0.68340  0.54681  0.77250  1.0000
  Fe  Fe28      1.0  0.63713  0.75432  0.78077  1.0000
  H   H261      1.0  0.80641  0.68527  0.85188  1.0000
  S   S56       1.0  0.64096  0.73879  0.83568  1.0000
  C   C219      1.0  0.80411  0.45037  0.94195  1.0000
  C   C220      1.0  0.85504  0.60859  0.78792  1.0000
  S   S57       1.0  0.77366  0.42006  0.85666  1.0000
  Fe  Fe29      1.0  0.56948  0.53294  0.77382  1.0000
  C   C221      1.0  0.85923  0.73659  0.79012  1.0000
  Fe  Fe30      1.0  0.53113  0.70937  0.83138  1.0000
  H   H262      1.0  0.83609  0.49231  0.92423  1.0000
  C   C222      1.0  0.87163  0.73896  0.72976  1.0000
  H   H263      1.0  0.84174  0.36880  0.95471  1.0000
  C   C223      1.0  0.86858  0.61277  0.72845  1.0000
  C   C224      1.0  0.71394  0.64774  0.94672  1.0000
  H   H264      1.0  0.84772  0.55343  0.80934  1.0000
  H   H265      1.0  0.92597  0.34204  0.84510  1.0000
  S   S58       1.0  0.56828  0.49662  0.82869  1.0000
  N   N15       1.0  0.76450  0.54517  0.96561  1.0000
  S   S59       1.0  0.52336  0.74378  0.77684  1.0000
  C   C225      1.0  0.73844  0.74369  0.92976  1.0000
  H   H266      1.0  0.76671  0.41200  0.92686  1.0000
  Fe  Fe31      1.0  0.67813  0.52963  0.82778  1.0000
  H   H267      1.0  0.85740  0.44976  0.75643  1.0000
  H   H268      1.0  0.61674  0.58077  0.95411  1.0000
  N   N16       1.0  0.85821  0.80192  0.82202  1.0000
  H   H269      1.0  0.53688  0.75240  0.92364  1.0000
  H   H270      1.0  0.90335  0.63457  0.85209  1.0000
  S   S60       1.0  0.52919  0.42697  0.73386  1.0000
  C   C226      1.0  0.64005  0.65185  0.94322  1.0000
  C   C227      1.0  0.59323  0.75060  0.92566  1.0000
  C   C228      1.0  0.85622  0.71899  0.85139  1.0000
  C   C229      1.0  0.86647  0.80051  0.75998  1.0000
  H   H271      1.0  0.92707  0.73567  0.07691  1.0000
  H   H272      1.0  0.71734  0.77846  0.12520  1.0000
  H   H273      1.0  0.85791  0.62059  0.96829  1.0000
  C   C230      1.0  0.76941  0.71188  0.12778  1.0000
  C   C231      1.0  0.79665  0.62776  0.10229  1.0000
  C   C232      1.0  0.87788  0.62439  0.15962  1.0000
  H   H274      1.0  0.84806  0.52544  0.00273  1.0000
  C   C233      1.0  0.90468  0.54116  0.13407  1.0000
  H   H275      1.0  0.88426  0.47568  0.08609  1.0000
  H   H276      1.0  0.79974  0.42420  0.17662  1.0000
  H   H277      1.0  0.69103  0.54948  0.00596  1.0000
  S   S61       1.0  0.54451  0.78981  0.07423  1.0000
  H   H278      1.0  0.71016  0.49026  0.19114  1.0000
  C   C234      1.0  0.72762  0.47971  0.98982  1.0000
  H   H279      1.0  0.78958  0.77461  0.17647  1.0000
  S   S62       1.0  0.49967  0.49506  0.21104  1.0000
  C   C235      1.0  0.81687  0.59602  0.98445  1.0000
  C   C236      1.0  0.81006  0.70958  0.15669  1.0000
  H   H280      1.0  0.49704  0.54867  0.08413  1.0000
  Fe  Fe32      1.0  0.65519  0.79797  0.05987  1.0000
  H   H281      1.0  0.78411  0.36030  0.12626  1.0000
  H   H282      1.0  0.95804  0.47913  0.13576  1.0000
  H   H283      1.0  0.69610  0.42127  0.97756  1.0000
  S   S63       1.0  0.93026  0.62112  0.19485  1.0000
  H   H284      1.0  0.78921  0.68197  0.99845  1.0000
  C   C237      1.0  0.86362  0.54119  0.10571  1.0000
  H   H285      1.0  0.72366  0.38475  0.07290  1.0000
  H   H286      1.0  0.76615  0.41277  0.00637  1.0000
  S   S64       1.0  0.74969  0.63045  0.06544  1.0000
  C   C238      1.0  0.75759  0.40647  0.19336  1.0000
  H   H287      1.0  0.66881  0.80589  0.19624  1.0000
  C   C239      1.0  0.73269  0.33850  0.12497  1.0000
  C   C240      1.0  0.69894  0.35126  0.09409  1.0000
  H   H288      1.0  0.64186  0.33489  0.21588  1.0000
