data_image0
_chemical_formula_structural       FeSH2CFeSFeH2SFeSFeS2FeSFeHS2HFeSCFeS2FeHFeS3FeS2FeCH2SH2CH5C10H4C6H5C2H3SCH2SC2S2C2H5C2H4CHSHCHSCNC6HCH15CNCH2CSHNC4H2CH2CHCH2CH4C2HC3HCNH4C2NCHC2H2C3HCH2FeCH2CHCHSHCHC2HC3H2CH3CHCH2CNCNH4C2H3CH2CHSHCSCH3CHC2SNH2SFeSHSHS3FeSFeSH2FeS2CHFeSCSCH2FeCSHSC2FeC2H3C6H6CH2C2FeCSCHC6H4NHFeHCH5NSHC4H5C3HNC6S2H10CHFeC3H2C3H8C5HC2NC10H12C2SCHSHSC2HNSH3FeSC3H8C2H8SCNC5HC2HFeH6CHFeHCH3CHFeHSHSH2SH2CSCHCHC5H5C2HSHSCSC2FeC4H3NCH2SNCHCSHC2H2NHSC2H2NHCH3CHCSCSHC2H2CH2SCH3CHC3SHFeC3NC5H10CFeC2SCHCH2C4H2FeHCH2SH2C2HC4H2C3FeS2FeS2FeSFeS3C2H2SNH3CHSH3CH2CSHNHCHC7H5CH2SC5H3C6H2CHC2HC3H2CHFeC2H2CHFeHCFeSH7CFeH3SCHC4HSNC6H5CH3CH2C2HCHC3H2CH2CHSH2SH2C2H3C2HCH4C2HN2HSC2HC2HC2H3C5HCH5CH2C2H3CHSH4CH3FeCH2C3HCH2S2C2SCHC2NH2CH2FeSFeSFeSFeHS3FeSHFeS2CH3SC2HSCH2SC4SHC6H5C3H2FeCH2FeH2CHSCNH4CH2CH2CH3CH3CHCSH2CHCH2CH3C2HCHCNC9H15SCHCH2C2H3SNCFeHFeHCHCFeCH3CH2FeS2CS3C3H3C3HCHC3H2CHC3H2C3NC2H4C2SFeH3SCFeS2Fe3S3C6H2CH2CH2C6H4SH2CHCFeC2SC2H5C4H2CHCH4C2HCHCSCNC6H2CH9NCHNC2H2FeHC3HCH3C2HCHC2H2CH2CH6CHC3NCH2CHC3H2CH6CH7CHCHCHCHCHCH3SFeS2FeSC2SHSHFeSCHSCHC4HCH2C6H5CH2CH3C6H4FeCHCH2SFeCH2C2FeC3HSH8CH2C2HCSC2FeSCFeHCHNS2C4HSH2C2SH3NC3HNC2HCHCSH2CHCHC2H2CSH2CHC4HCH5SHCH4CNH3CH2C2H2CH2CHCFeH2CH2SHSHFeS2FeS2FeCFeS3HFeCSHCS3H3FeS2FeHCHC2H4C3HC7H3CHC4HCSHC2H2C2HCH4C6H4C5H3CH3CSCH5SH2SHC2H9N2CHCH2CHC2NFeC3H2SH2SCNCHSCHCHCHNCHC3H4SHCFeH3CHNHNHC4H2CH4C2H2CH2CSH2CSHC2H2CHC3HCHCH4C2HCH2FeHCH3C2HFeSHSFeSFeS2H2SCFeHSC2H5C2HC2H2CH3C2FeSH4CH2SHC2HCH2C6H8CH2C2H2S3NH2S2CFeH2CNHSCFeCH2C2H2CHCHFeC3H2FeH2C2H3CHCHC4S2HFeHCSCH4NC2HC3SH7NFeNC8HSCH2C3FeHCH2C3HC4HC2H3CHC3HCHCH2CH2CFeSHSCFeC3SHFeSCFeSHC2SCHCHCSC2SFeS3FeHFeC2HFeCHCHC2NH4FeC6H5FeCH4C6H2C6H5NCH2CH2C2HS2H2SHC2H2CSNC6SH4SH9CH2SFeC3HCSCH3CHSH6C3H2CNC6H10CHC2H4CH3SH2CHC2H2CHCH3CFeHCH2FeS2FeS2FeSFeS4HFeS2HSHFeSFeSCSH2FeH3C6HCHCH2C4FeH2C6H3SC2HC3HCH2C6H4C6H2C2H11C4H2SHCHC2H2CHCHCH4CHCNC9H10CH4CH2S2HCH2SH5NSH4SCFeHNC2HC7HNCHCH2CH4FeCS2H2CH2NHCNH2CH2NHC2H2SCS2FeS2FeS2FeSCS2CHSCHCH2SHNH2CHFeS2H2FeH2CFeHCHCSCHCH2CSHFeHFeHC7H3C5H3FeC8H4C6H6CH2CH3SNCNC7H2C2H2CH3SH2FeSCH2C2H4CH8C4H4S2HCH7CHC3HFeCH2SNCH2CHC4HCHCHCH2SCH5C3H2C2SFeS2CSFeSFeCSHFeHFeS2FeCFeHS2HFeSHFeS2FeSFeS3FeHSH2C3SC3H3C2HCHC6H4C6H5C2H3NH2C2HC2NC2H3CHCH2CH2CFeHSH4NC2HC2H4CHCSCHC2HSCH5C2HCH2CSHC2HC2HSHCHSHCH5NH4C3H3SH4CNC3HSC2H5CHC3SHNCHC7H4CHCH3C2H2SC2HC2HC2FeHNHC2H2FeHSHSC2SH2CHSHSFeHFeS2H2FeH3CFeCH2CFeSC6H2C6H4NHC5H2FeSC7H4CHCH3SH2CHCHCSC4SHCH2CHC2H4SFeC2HCFeSHSHCHCHNC7H11FeHC2H5NH4S2CHSH2CH2CHSC2HCHC2HC2H2C2H2CH4SC3HCHNC2H3SHC4HFeHCHCHSC3SC5H5NC4NSH2CHC3HC2SC3HCNHCHC4HFeSHC2SNSHCH2CH2CHCH2C3HSCHCSHCH3CHCHCH3C2H6SHC2HCHCH2Fe2SH3CH4FeHCHCFeCH2CHSH3C2HCSCSCHSC4H4FeH2CNCHSH2CH3CHSH3C2FeSCFeS2FeSFeS3H2C2S2HCFeCHSHCSHCH5C2H2SC6H2C2HSHC6H3C2HC3H4C2HSHCHNH3C2H3NCHC3HC2H2CNC3H2NCHCHCH3CHC4H2CH5CHFe2C2H2C2H2CHC2SFe2H3FeHCH5C2HCHC3H5CHSH3FeSCHC2SCHCSH2C3H4SH3C3NCH10CHC3HC2HCH2C2HC2H2SCHSH2CHCFeSFeSFeSFeCS3FeHCFeS2H3S2C2HCH2CH3CSC8H6CHC3H2CHCH2FeNHC5HCHC2H5SHC2FeCHSCH2CH3FeHCH2C3H2CH4CNFeCH2C2H3SHC2HC3HSNH4SHC3H4C3HFeCHCHSC2HCH4FeSCHC2HFeSH2S3CH2CHC3HCHCSHC3HC4FeHC6H6C2H3SHFeS2Fe3S3HSCNC2HCH2CH2C2NC6HCH2CFeH2CSH6CHC2H3C2H2SCS2H2CH3NH2C3HCH2C3NC2H2C2H3CH2SCFeHNH2C2H6NH2C3HCNH5CHC2SH2CH4CH2SH3CH3C2H3CHCHC4HSC3HCH2CHFeH2FeC2HC2H2CHSH2CH2CH4CSFeS2FeSFeHSHSHFeSCHSHCHC3HCH2C6H4CH3CHC8H4FeSH4C7H5C3SCHC2SHCH2SH3CHNHC2H2SFeNCFe2SHCH2CHCHCH2CSCH2CH3CH2C2HC2NH2CHCH2CSC2H3C3HC2H3CH2FeNHNCHCH5CSFeCH10CHSNC2FeS2FeS2FeHFeS3FeC2HCH5C2FeS3HFeSH4NHC3HC7H3CHC4SHSH2CHCSCH2C2HC7H2CHC5H4CSCNC2SC2HC2H7CH6C2H4CH4NHCSHCH3SCHCSCH3CH2CH2C3HCFe2CHCS2CSCH3NH3NCSCSHNH2CHC7H4CH6CHSCHC2HCH4CHNC2H2CH2CH3CSHFeSHSFeSFeS3HC2FeHSHCSFeC2H2CH3C2SCH2C2HC3H4CHS2C2HC8H3SH2FeH2SH5SC2NHCNHCHC2HCHCH2CH2C3H3CH5NC9H11CHFeC4H2SHC2SHCSC3HSCHCHFeHCSCH2S2HFeSHCHCH3C3H2CH2C3HC4NH2CHCNH2CFeH2C2HC2H3FeHSC2SH2C5H2FeSH2S3FeC2HSH2SFeS3C2SCFeHC2H3FeHCSHFeHC7H4CHCHCHFeHCHC3H2C2HC4H5FeC2FeH3CH2CH4NH3SH2NC6H3CH2CH2CH6CHSCHFeCSHC2HFeSHCSHNHCHCFe3H2SH3CH2NCH4CSH2CHCH2C2FeS2FeS2FeCFeS4HFeS2CSCFeSFeSHSC3SHSC6H3CHC2H2CHCHC2H2C2H4C2HC3FeC2HCNHC5HCH2C5HCSHCH4CNH6CH2CHCH2NC2HCHCHCHCH4SCHC2H2CH3FeH5CHCH3C2H2C2H3SC3SC2HCNC9H15CHC2HC2NCSCHC2HCHC4H2C2H2C6H2C2HCFeH2SFeS2FeS2FeSFeS2CH2FeS2HS3CH2CH2CFeS2HSH3C4SCHNCH4CHSHC6HSH2C6H3C4H2C2HSH2C6H2NC6H2CH2NH8CH2CHCFeH2CH2CH4FeC2HCSH6SH2CHFeNC9H12CH2CHFeC4HCHCH2CH2C2Fe2C2HFeH2CH5C3NC3NCH12CH3
_chemical_formula_sum              "Fe256 S512 H2304 C1920 N128"
_cell_length_a       40.7527
_cell_length_b       42.0066
_cell_length_c       49.8731
_cell_angle_alpha    80.6503
_cell_angle_beta     80.7104
_cell_angle_gamma    89.6608

_space_group_name_H-M_alt    "P 1"
_space_group_IT_number       1

loop_
  _space_group_symop_operation_xyz
  'x, y, z'

loop_
  _atom_site_type_symbol
  _atom_site_label
  _atom_site_symmetry_multiplicity
  _atom_site_fract_x
  _atom_site_fract_y
  _atom_site_fract_z
  _atom_site_occupancy
  Fe  Fe1       1.0  0.33364  0.22192  0.00856  1.0000
  S   S1        1.0  0.36033  0.25023  0.03328  1.0000
  H   H1        1.0  0.00698  0.14876  0.08258  1.0000
  H   H2        1.0  0.25261  0.04599  0.97795  1.0000
  C   C1        1.0  0.17509  0.98663  0.16775  1.0000
  Fe  Fe2       1.0  0.40457  0.24809  0.00060  1.0000
  S   S2        1.0  0.45772  0.24175  0.00850  1.0000
  Fe  Fe3       1.0  0.34478  0.29329  0.00562  1.0000
  H   H3        1.0  0.06403  0.29497  0.18683  1.0000
  H   H4        1.0  0.19546  0.15301  0.13047  1.0000
  S   S3        1.0  0.31508  0.26517  0.98322  1.0000
  Fe  Fe4       1.0  0.42241  0.05962  0.00034  1.0000
  S   S4        1.0  0.37809  0.05273  0.98032  1.0000
  Fe  Fe5       1.0  0.38297  0.09692  0.04341  1.0000
  S   S5        1.0  0.33569  0.09320  0.02618  1.0000
  S   S6        1.0  0.38663  0.11002  0.08565  1.0000
  Fe  Fe6       1.0  0.35026  0.04219  0.02336  1.0000
  S   S7        1.0  0.47222  0.04363  0.98034  1.0000
  Fe  Fe7       1.0  0.36757  0.10424  0.98431  1.0000
  H   H5        1.0  0.27850  0.28896  0.05274  1.0000
  S   S8        1.0  0.39539  0.04470  0.04323  1.0000
  S   S9        1.0  0.41399  0.11226  0.00145  1.0000
  H   H6        1.0  0.12622  0.22788  0.12502  1.0000
  Fe  Fe8       1.0  0.06119  0.09419  0.07870  1.0000
  S   S10       1.0  0.07257  0.14066  0.09192  1.0000
  C   C2        1.0  0.25628  0.11764  0.99079  1.0000
  Fe  Fe9       1.0  0.12793  0.06447  0.09172  1.0000
  S   S11       1.0  0.14372  0.10960  0.10504  1.0000
  S   S12       1.0  0.16624  0.02489  0.08872  1.0000
  Fe  Fe10      1.0  0.09129  0.10945  0.12695  1.0000
  H   H7        1.0  0.22042  0.07850  0.05447  1.0000
  Fe  Fe11      1.0  0.12353  0.13605  0.06864  1.0000
  S   S13       1.0  0.14613  0.17865  0.03822  1.0000
  S   S14       1.0  0.07605  0.06246  0.11591  1.0000
  S   S15       1.0  0.11164  0.09121  0.05318  1.0000
  Fe  Fe12      1.0  0.28226  0.22967  0.17250  1.0000
  S   S16       1.0  0.23890  0.19658  0.17486  1.0000
  S   S17       1.0  0.32189  0.23057  0.13483  1.0000
  Fe  Fe13      1.0  0.20812  0.23900  0.18339  1.0000
  C   C3        1.0  0.45278  0.25304  0.07817  1.0000
  H   H8        1.0  0.46185  0.27573  0.12945  1.0000
  H   H9        1.0  0.15269  0.19504  0.20474  1.0000
  S   S18       1.0  0.16473  0.25043  0.16171  1.0000
  H   H10       1.0  0.06707  0.25281  0.18368  1.0000
  H   H11       1.0  0.28256  0.05685  0.99791  1.0000
  C   C4        1.0  0.98949  0.14874  0.06853  1.0000
  H   H12       1.0  0.07691  0.23488  0.96858  1.0000
  H   H13       1.0  0.09527  0.17661  0.12824  1.0000
  H   H14       1.0  0.10338  0.27558  0.18433  1.0000
  H   H15       1.0  0.43232  0.98173  0.15090  1.0000
  H   H16       1.0  0.45251  0.99529  0.02958  1.0000
  C   C5        1.0  0.18203  0.00626  0.11850  1.0000
  C   C6        1.0  0.45131  0.03541  0.09172  1.0000
  C   C7        1.0  0.25418  0.14869  0.97617  1.0000
  C   C8        1.0  0.23949  0.22717  0.09900  1.0000
  C   C9        1.0  0.25878  0.18028  0.03195  1.0000
  C   C10       1.0  0.24303  0.20664  0.01882  1.0000
  C   C11       1.0  0.20830  0.20611  0.02049  1.0000
  C   C12       1.0  0.18946  0.17935  0.03547  1.0000
  C   C13       1.0  0.20533  0.15303  0.04829  1.0000
  C   C14       1.0  0.23986  0.15357  0.04656  1.0000
  H   H17       1.0  0.25744  0.22721  0.00723  1.0000
  H   H18       1.0  0.19604  0.22644  0.01033  1.0000
  H   H19       1.0  0.19111  0.13192  0.05898  1.0000
  H   H20       1.0  0.25212  0.13299  0.05602  1.0000
  C   C15       1.0  0.33517  0.19448  0.12259  1.0000
  C   C16       1.0  0.33692  0.19297  0.09451  1.0000
  C   C17       1.0  0.35256  0.16725  0.08298  1.0000
  C   C18       1.0  0.36657  0.14262  0.09946  1.0000
  C   C19       1.0  0.36484  0.14392  0.12766  1.0000
  C   C20       1.0  0.34890  0.16956  0.13926  1.0000
  H   H21       1.0  0.32638  0.21190  0.08147  1.0000
  H   H22       1.0  0.35432  0.16673  0.06119  1.0000
  H   H23       1.0  0.37597  0.12507  0.14058  1.0000
  H   H24       1.0  0.34836  0.17067  0.16084  1.0000
  H   H25       1.0  0.27389  0.24754  0.04901  1.0000
  C   C21       1.0  0.13953  0.19142  0.18829  1.0000
  C   C22       1.0  0.05556  0.17047  0.97215  1.0000
  H   H26       1.0  0.47290  0.99224  0.13112  1.0000
  H   H27       1.0  0.42463  0.17899  0.11129  1.0000
  H   H28       1.0  0.47890  0.03577  0.08991  1.0000
  S   S19       1.0  0.01567  0.08995  0.05815  1.0000
  C   C23       1.0  0.19713  0.10945  0.99295  1.0000
  H   H29       1.0  0.10336  0.98343  0.04796  1.0000
  H   H30       1.0  0.47716  0.08028  0.11017  1.0000
  S   S20       1.0  0.13627  0.29241  0.96907  1.0000
  C   C24       1.0  0.10518  0.15728  0.16877  1.0000
  C   C25       1.0  0.22380  0.16008  0.96977  1.0000
  S   S21       1.0  0.31290  0.00172  0.03871  1.0000
  S   S22       1.0  0.39180  0.29439  0.97507  1.0000
  C   C26       1.0  0.44977  0.17655  0.02945  1.0000
  C   C27       1.0  0.12476  0.20980  0.14333  1.0000
  H   H31       1.0  0.38857  0.04833  0.11524  1.0000
  H   H32       1.0  0.38939  0.24101  0.10359  1.0000
  H   H33       1.0  0.42431  0.17865  0.02581  1.0000
  H   H34       1.0  0.07368  0.18277  0.03427  1.0000
  H   H35       1.0  0.45623  0.27750  0.08315  1.0000
  C   C28       1.0  0.44580  0.99224  0.13016  1.0000
  C   C29       1.0  0.07666  0.27214  0.19344  1.0000
  H   H36       1.0  0.04811  0.00074  0.03814  1.0000
  H   H37       1.0  0.34155  0.11451  0.19729  1.0000
  H   H38       1.0  0.06301  0.04068  0.03668  1.0000
  H   H39       1.0  0.18453  0.22510  0.08145  1.0000
  C   C30       1.0  0.47101  0.20368  0.02329  1.0000
  H   H40       1.0  0.01818  0.22047  0.98556  1.0000
  S   S23       1.0  0.37926  0.21622  0.97791  1.0000
  H   H41       1.0  0.45685  0.18921  0.08180  1.0000
  C   C31       1.0  0.16269  0.00304  0.14464  1.0000
  H   H42       1.0  0.29556  0.25839  0.07500  1.0000
  S   S24       1.0  0.25108  0.27363  0.17762  1.0000
  C   C32       1.0  0.46459  0.07390  0.13106  1.0000
  N   N1        1.0  0.28329  0.07971  0.12706  1.0000
  C   C33       1.0  0.29574  0.09692  0.09883  1.0000
  C   C34       1.0  0.31104  0.07862  0.14320  1.0000
  C   C35       1.0  0.27402  0.04636  0.12485  1.0000
  C   C36       1.0  0.25405  0.09500  0.14112  1.0000
  C   C37       1.0  0.24274  0.08504  0.16969  1.0000
  C   C38       1.0  0.23584  0.11959  0.12715  1.0000
  H   H43       1.0  0.17401  0.09594  0.99923  1.0000
  C   C39       1.0  0.11716  0.09591  0.96672  1.0000
  H   H44       1.0  0.17152  0.15007  0.97415  1.0000
  H   H45       1.0  0.30105  0.12285  0.09888  1.0000
  H   H46       1.0  0.31918  0.08652  0.08945  1.0000
  H   H47       1.0  0.27782  0.09520  0.08458  1.0000
  H   H48       1.0  0.31436  0.10222  0.14989  1.0000
  H   H49       1.0  0.33517  0.07278  0.13127  1.0000
  H   H50       1.0  0.30697  0.06002  0.16203  1.0000
  H   H51       1.0  0.25342  0.04634  0.11270  1.0000
  H   H52       1.0  0.29537  0.03364  0.11462  1.0000
  H   H53       1.0  0.07878  0.07875  0.99983  1.0000
  H   H54       1.0  0.25475  0.06596  0.18157  1.0000
  H   H55       1.0  0.24214  0.12838  0.10538  1.0000
  H   H56       1.0  0.10904  0.20731  0.97836  1.0000
  H   H57       1.0  0.26468  0.27531  0.11668  1.0000
  H   H58       1.0  0.98806  0.00251  0.06368  1.0000
  C   C40       1.0  0.43325  0.06203  0.18582  1.0000
  N   N2        1.0  0.24218  0.26095  0.08411  1.0000
  C   C41       1.0  0.16044  0.25915  0.05569  1.0000
  H   H59       1.0  0.09258  0.15608  0.01191  1.0000
  H   H60       1.0  0.19216  0.04122  0.99961  1.0000
  C   C42       1.0  0.14137  0.21490  0.16470  1.0000
  S   S25       1.0  0.30196  0.17898  0.03033  1.0000
  H   H61       1.0  0.26381  0.07968  0.03997  1.0000
  N   N3        1.0  0.05891  0.18966  0.99404  1.0000
  C   C43       1.0  0.13812  0.05485  0.20124  1.0000
  C   C44       1.0  0.24427  0.28244  0.10463  1.0000
  C   C45       1.0  0.06914  0.16867  0.01809  1.0000
  C   C46       1.0  0.08393  0.21646  0.98528  1.0000
  H   H62       1.0  0.02171  0.13397  0.99861  1.0000
  H   H63       1.0  0.41052  0.26411  0.12245  1.0000
  C   C47       1.0  0.46608  0.22607  0.12168  1.0000
  H   H64       1.0  0.43472  0.25545  0.06342  1.0000
  H   H65       1.0  0.08671  0.22978  0.00242  1.0000
  C   C48       1.0  0.18644  0.24941  0.07017  1.0000
  H   H66       1.0  0.14011  0.24245  0.05607  1.0000
  C   C49       1.0  0.47141  0.09372  0.14953  1.0000
  H   H67       1.0  0.13949  0.08108  0.19260  1.0000
  H   H68       1.0  0.00923  0.00876  0.96440  1.0000
  C   C50       1.0  0.45572  0.08789  0.17683  1.0000
  H   H69       1.0  0.21711  0.22347  0.11536  1.0000
  H   H70       1.0  0.25871  0.02070  0.00933  1.0000
  H   H71       1.0  0.42023  0.05802  0.20685  1.0000
  H   H72       1.0  0.00652  0.18512  0.01042  1.0000
  C   C51       1.0  0.08941  0.98412  0.99718  1.0000
  C   C52       1.0  0.16081  0.28994  0.04027  1.0000
  H   H73       1.0  0.46089  0.10364  0.19091  1.0000
  C   C53       1.0  0.10041  0.07159  0.98673  1.0000
  C   C54       1.0  0.10727  0.18072  0.14513  1.0000
  C   C55       1.0  0.46154  0.14638  0.04025  1.0000
  H   H74       1.0  0.41524  0.20093  0.07970  1.0000
  C   C56       1.0  0.99704  0.99367  0.98297  1.0000
  N   N4        1.0  0.23100  0.06391  0.01467  1.0000
  H   H75       1.0  0.12162  0.04321  0.18973  1.0000
  H   H76       1.0  0.24320  0.04177  0.05387  1.0000
  H   H77       1.0  0.26526  0.03172  0.14543  1.0000
  H   H78       1.0  0.39946  0.22267  0.13624  1.0000
  C   C57       1.0  0.21403  0.99316  0.11583  1.0000
  C   C58       1.0  0.44203  0.04710  0.13955  1.0000
  N   N5        1.0  0.43467  0.02522  0.12065  1.0000
  C   C59       1.0  0.39832  0.02377  0.12048  1.0000
  H   H79       1.0  0.47162  0.30844  0.96934  1.0000
  C   C60       1.0  0.42674  0.04168  0.16760  1.0000
  C   C61       1.0  0.11149  0.03919  0.98934  1.0000
  H   H80       1.0  0.39211  0.00924  0.10512  1.0000
  H   H81       1.0  0.38407  0.01243  0.14062  1.0000
  C   C62       1.0  0.19995  0.04410  0.01942  1.0000
  C   C63       1.0  0.03509  0.14211  0.97813  1.0000
  C   C64       1.0  0.11535  0.00326  0.03179  1.0000
  H   H82       1.0  0.40912  0.02196  0.17556  1.0000
  C   C65       1.0  0.24004  0.06612  0.04192  1.0000
  H   H83       1.0  0.26140  0.22073  0.10944  1.0000
  H   H84       1.0  0.13766  0.01211  0.14692  1.0000
  Fe  Fe14      1.0  0.33251  0.99495  0.20667  1.0000
  C   C66       1.0  0.43423  0.19814  0.09366  1.0000
  H   H85       1.0  0.14081  0.29715  0.02876  1.0000
  H   H86       1.0  0.44526  0.01870  0.07795  1.0000
  C   C67       1.0  0.40892  0.23966  0.11700  1.0000
  H   H87       1.0  0.28040  0.11038  0.99558  1.0000
  C   C68       1.0  0.22795  0.09680  0.99930  1.0000
  H   H88       1.0  0.44516  0.12545  0.04503  1.0000
  S   S26       1.0  0.08552  0.11991  0.17013  1.0000
  H   H89       1.0  0.02736  0.21780  0.01997  1.0000
  C   C69       1.0  0.18694  0.31140  0.03958  1.0000
  H   H90       1.0  0.20313  0.01947  0.03087  1.0000
  C   C70       1.0  0.06121  0.02161  0.02384  1.0000
  C   C71       1.0  0.20889  0.13404  0.14132  1.0000
  H   H91       1.0  0.23857  0.20961  0.08462  1.0000
  C   C72       1.0  0.21623  0.10010  0.18368  1.0000
  C   C73       1.0  0.19529  0.14063  0.97834  1.0000
  C   C74       1.0  0.25733  0.04624  0.99924  1.0000
  H   H92       1.0  0.24960  0.30799  0.09487  1.0000
  H   H93       1.0  0.04463  0.03006  0.00852  1.0000
  C   C75       1.0  0.98767  0.12253  0.05472  1.0000
  H   H94       1.0  0.17946  0.13650  0.18067  1.0000
  H   H95       1.0  0.10827  0.12040  0.96496  1.0000
  H   H96       1.0  0.22055  0.28165  0.11944  1.0000
  C   C76       1.0  0.12049  0.16310  0.19071  1.0000
  H   H97       1.0  0.27629  0.16414  0.97032  1.0000
  C   C77       1.0  0.21314  0.30192  0.05389  1.0000
  H   H98       1.0  0.05004  0.15011  0.02841  1.0000
  H   H99       1.0  0.17941  0.05488  0.03233  1.0000
  C   C78       1.0  0.21392  0.27047  0.06940  1.0000
  N   N6        1.0  0.44101  0.22891  0.10300  1.0000
  C   C79       1.0  0.27377  0.26411  0.06430  1.0000
  N   N7        1.0  0.09444  0.01273  0.01020  1.0000
  H   H100      1.0  0.44861  0.18799  0.97303  1.0000
  H   H101      1.0  0.44344  0.05994  0.08305  1.0000
  H   H102      1.0  0.11990  0.02385  0.04229  1.0000
  H   H103      1.0  0.16352  0.04542  0.19627  1.0000
  C   C80       1.0  0.19948  0.12457  0.16957  1.0000
  C   C81       1.0  0.02640  0.20388  0.00290  1.0000
  H   H104      1.0  0.14001  0.99446  0.02320  1.0000
  H   H105      1.0  0.07789  0.99109  0.97837  1.0000
  H   H106      1.0  0.47692  0.24598  0.06698  1.0000
  C   C82       1.0  0.14065  0.03309  0.97120  1.0000
  H   H107      1.0  0.15110  0.00930  0.97225  1.0000
  H   H108      1.0  0.20915  0.09331  0.20574  1.0000
  C   C83       1.0  0.47364  0.98663  0.01689  1.0000
  H   H109      1.0  0.15913  0.98276  0.18747  1.0000
  S   S27       1.0  0.34763  0.04592  0.20783  1.0000
  H   H110      1.0  0.22898  0.99492  0.09563  1.0000
  C   C84       1.0  0.47397  0.25292  0.13367  1.0000
  S   S28       1.0  0.31322  0.98361  0.16979  1.0000
  C   C85       1.0  0.31854  0.10438  0.20961  1.0000
  H   H111      1.0  0.29558  0.15056  0.21051  1.0000
  H   H112      1.0  0.11909  0.14512  0.20903  1.0000
  H   H113      1.0  0.01493  0.10243  0.96299  1.0000
  C   C86       1.0  0.31364  0.24365  0.37460  1.0000
  H   H114      1.0  0.44340  0.09230  0.34987  1.0000
  C   C87       1.0  0.34503  0.25324  0.37826  1.0000
  C   C88       1.0  0.42586  0.03332  0.31730  1.0000
  S   S29       1.0  0.44352  0.28683  0.27039  1.0000
  N   N8        1.0  0.12517  0.04902  0.23122  1.0000
  H   H115      1.0  0.29810  0.99235  0.33759  1.0000
  H   H116      1.0  0.34615  0.22787  0.26081  1.0000
  S   S30       1.0  0.20409  0.22690  0.22905  1.0000
  Fe  Fe15      1.0  0.42097  0.00305  0.43973  1.0000
  S   S31       1.0  0.23047  0.13742  0.24348  1.0000
  H   H117      1.0  0.31729  0.03055  0.33763  1.0000
  S   S32       1.0  0.22278  0.22934  0.42004  1.0000
  H   H118      1.0  0.41845  0.05775  0.39306  1.0000
  S   S33       1.0  0.47515  0.27649  0.34165  1.0000
  S   S34       1.0  0.16035  0.17918  0.41834  1.0000
  S   S35       1.0  0.45122  0.04634  0.44311  1.0000
  Fe  Fe16      1.0  0.21558  0.18247  0.40520  1.0000
  S   S36       1.0  0.23972  0.17667  0.36250  1.0000
  Fe  Fe17      1.0  0.16812  0.22332  0.43656  1.0000
  S   S37       1.0  0.98091  0.20608  0.29451  1.0000
  H   H119      1.0  0.02502  0.01336  0.39822  1.0000
  H   H120      1.0  0.14052  0.05807  0.26847  1.0000
  Fe  Fe18      1.0  0.12669  0.00257  0.32937  1.0000
  S   S38       1.0  0.15172  0.01465  0.36349  1.0000
  S   S39       1.0  0.08060  0.02776  0.31774  1.0000
  C   C89       1.0  0.14866  0.06368  0.24580  1.0000
  H   H121      1.0  0.11240  0.24151  0.38779  1.0000
  Fe  Fe19      1.0  0.19854  0.00538  0.33567  1.0000
  S   S40       1.0  0.24411  0.03759  0.32859  1.0000
  C   C90       1.0  0.47674  0.98133  0.38741  1.0000
  S   S41       1.0  0.17363  0.99699  0.30017  1.0000
  C   C91       1.0  0.37283  0.02355  0.30208  1.0000
  H   H122      1.0  0.17467  0.00416  0.22919  1.0000
  H   H123      1.0  0.29442  0.23717  0.39240  1.0000
  Fe  Fe20      1.0  0.02397  0.20153  0.31764  1.0000
  C   C92       1.0  0.32259  0.00531  0.33429  1.0000
  S   S42       1.0  0.07412  0.18036  0.30460  1.0000
  H   H124      1.0  0.13150  0.13389  0.37887  1.0000
  S   S43       1.0  0.41891  0.23026  0.40389  1.0000
  C   C93       1.0  0.10665  0.08671  0.41800  1.0000
  C   C94       1.0  0.33182  0.25044  0.32447  1.0000
  Fe  Fe21      1.0  0.98786  0.23427  0.36316  1.0000
  C   C95       1.0  0.40989  0.19316  0.42545  1.0000
  C   C96       1.0  0.42410  0.16453  0.41854  1.0000
  H   H125      1.0  0.39413  0.26942  0.35837  1.0000
  H   H126      1.0  0.44088  0.16493  0.39930  1.0000
  H   H127      1.0  0.01178  0.25767  0.45416  1.0000
  C   C97       1.0  0.07940  0.07023  0.31344  1.0000
  C   C98       1.0  0.10828  0.08899  0.31097  1.0000
  C   C99       1.0  0.10664  0.12285  0.30677  1.0000
  C   C100      1.0  0.07591  0.13808  0.30649  1.0000
  C   C101      1.0  0.04710  0.11935  0.30860  1.0000
  C   C102      1.0  0.04898  0.08554  0.31156  1.0000
  H   H128      1.0  0.13194  0.07745  0.31216  1.0000
  H   H129      1.0  0.12920  0.13711  0.30451  1.0000
  H   H130      1.0  0.02333  0.13085  0.30809  1.0000
  H   H131      1.0  0.02659  0.07117  0.31314  1.0000
  H   H132      1.0  0.41823  0.08634  0.25971  1.0000
  H   H133      1.0  0.35124  0.29537  0.27933  1.0000
  C   C103      1.0  0.00408  0.05689  0.37993  1.0000
  H   H134      1.0  0.36628  0.05663  0.26436  1.0000
  H   H135      1.0  0.05288  0.12514  0.43070  1.0000
  C   C104      1.0  0.09048  0.24483  0.40232  1.0000
  C   C105      1.0  0.05867  0.24141  0.39537  1.0000
  Fe  Fe22      1.0  0.46592  0.25634  0.30480  1.0000
  C   C106      1.0  0.06404  0.30693  0.25477  1.0000
  S   S44       1.0  0.22724  0.15202  0.44347  1.0000
  C   C107      1.0  0.29288  0.23484  0.29528  1.0000
  H   H136      1.0  0.35371  0.20639  0.29345  1.0000
  C   C108      1.0  0.23776  0.13817  0.35302  1.0000
  C   C109      1.0  0.21787  0.11291  0.36949  1.0000
  C   C110      1.0  0.21846  0.08204  0.36167  1.0000
  C   C111      1.0  0.23941  0.07639  0.33771  1.0000
  C   C112      1.0  0.25911  0.10174  0.32146  1.0000
  C   C113      1.0  0.25794  0.13252  0.32886  1.0000
  H   H137      1.0  0.20238  0.11702  0.38831  1.0000
  H   H138      1.0  0.20360  0.06240  0.37458  1.0000
  H   H139      1.0  0.27510  0.09765  0.30282  1.0000
  H   H140      1.0  0.27321  0.15183  0.31591  1.0000
  N   N9        1.0  0.34121  0.00478  0.30620  1.0000
  H   H141      1.0  0.09747  0.13795  0.35993  1.0000
  Fe  Fe23      1.0  0.23967  0.18769  0.22014  1.0000
  H   H142      1.0  0.31198  0.04281  0.28769  1.0000
  C   C114      1.0  0.12204  0.01386  0.24149  1.0000
  H   H143      1.0  0.08813  0.98156  0.41382  1.0000
  H   H144      1.0  0.09627  0.09242  0.22753  1.0000
  H   H145      1.0  0.28111  0.03222  0.23908  1.0000
  H   H146      1.0  0.06340  0.15367  0.39965  1.0000
  H   H147      1.0  0.28197  0.23487  0.34688  1.0000
  N   N10       1.0  0.32565  0.24967  0.29611  1.0000
  S   S45       1.0  0.02212  0.25342  0.32393  1.0000
  H   H148      1.0  0.12591  0.10110  0.42460  1.0000
  C   C115      1.0  0.15041  0.99414  0.23879  1.0000
  C   C116      1.0  0.31458  0.07093  0.21747  1.0000
  C   C117      1.0  0.25915  0.07852  0.24168  1.0000
  C   C118      1.0  0.26302  0.11199  0.23361  1.0000
  H   H149      1.0  0.12230  0.28862  0.30296  1.0000
  H   H150      1.0  0.17427  0.05447  0.24156  1.0000
  H   H151      1.0  0.34922  0.16484  0.41953  1.0000
  H   H152      1.0  0.23638  0.06846  0.25447  1.0000
  H   H153      1.0  0.09029  0.07501  0.43708  1.0000
  C   C119      1.0  0.06532  0.25867  0.44617  1.0000
  C   C120      1.0  0.07346  0.13401  0.41360  1.0000
  C   C121      1.0  0.09146  0.99827  0.25483  1.0000
  H   H154      1.0  0.12033  0.10122  0.36266  1.0000
  N   N11       1.0  0.15840  0.23173  0.31481  1.0000
  C   C122      1.0  0.19380  0.22434  0.30607  1.0000
  C   C123      1.0  0.14255  0.20399  0.33486  1.0000
  C   C124      1.0  0.14199  0.23490  0.29001  1.0000
  C   C125      1.0  0.15586  0.26096  0.32806  1.0000
  C   C126      1.0  0.13585  0.28759  0.31996  1.0000
  C   C127      1.0  0.17229  0.26264  0.35086  1.0000
  S   S46       1.0  0.28554  0.21804  0.21776  1.0000
  S   S47       1.0  0.99015  0.24651  0.40505  1.0000
  H   H155      1.0  0.27194  0.24944  0.30360  1.0000
  H   H156      1.0  0.19646  0.20326  0.29492  1.0000
  H   H157      1.0  0.20695  0.24529  0.29211  1.0000
  H   H158      1.0  0.20744  0.21806  0.32366  1.0000
  H   H159      1.0  0.15529  0.19853  0.35315  1.0000
  H   H160      1.0  0.14317  0.18166  0.32548  1.0000
  H   H161      1.0  0.11597  0.20880  0.34227  1.0000
  H   H162      1.0  0.15300  0.25541  0.27408  1.0000
  H   H163      1.0  0.14463  0.21269  0.28032  1.0000
  H   H164      1.0  0.11475  0.23836  0.29527  1.0000
  C   C128      1.0  0.36334  0.26051  0.32900  1.0000
  H   H165      1.0  0.29017  0.20982  0.30700  1.0000
  Fe  Fe24      1.0  0.45572  0.22895  0.36583  1.0000
  C   C129      1.0  0.02797  0.03932  0.39272  1.0000
  C   C130      1.0  0.38199  0.04924  0.27971  1.0000
  C   C131      1.0  0.11836  0.29986  0.22866  1.0000
  H   H166      1.0  0.03844  0.13161  0.37036  1.0000
  H   H167      1.0  0.37595  0.21430  0.45521  1.0000
  C   C132      1.0  0.38771  0.19244  0.45005  1.0000
  C   C133      1.0  0.03367  0.25443  0.43955  1.0000
  C   C134      1.0  0.31876  0.01729  0.28639  1.0000
  H   H168      1.0  0.32960  0.17671  0.38988  1.0000
  H   H169      1.0  0.18076  0.28947  0.38257  1.0000
  H   H170      1.0  0.06867  0.01125  0.25853  1.0000
  H   H171      1.0  0.30743  0.29817  0.29099  1.0000
  H   H172      1.0  0.39090  0.99661  0.33793  1.0000
  H   H173      1.0  0.38330  0.26757  0.31203  1.0000
  H   H174      1.0  0.07273  0.03999  0.40891  1.0000
  H   H175      1.0  0.99018  0.10356  0.36122  1.0000
  C   C135      1.0  0.00237  0.98246  0.35145  1.0000
  C   C136      1.0  0.11009  0.12070  0.37411  1.0000
  C   C137      1.0  0.05952  0.08918  0.39203  1.0000
  C   C138      1.0  0.41655  0.13525  0.43669  1.0000
  C   C139      1.0  0.39591  0.01596  0.32058  1.0000
  H   H176      1.0  0.30491  0.16655  0.42290  1.0000
  C   C140      1.0  0.41202  0.06653  0.27666  1.0000
  C   C141      1.0  0.09380  0.25437  0.42746  1.0000
  N   N12       1.0  0.32689  0.12540  0.40607  1.0000
  C   C142      1.0  0.31729  0.10593  0.43393  1.0000
  C   C143      1.0  0.32773  0.15981  0.40964  1.0000
  C   C144      1.0  0.30065  0.12078  0.38960  1.0000
  C   C145      1.0  0.35928  0.11637  0.39136  1.0000
  C   C146      1.0  0.37618  0.08798  0.40069  1.0000
  C   C147      1.0  0.37406  0.13529  0.36605  1.0000
  C   C148      1.0  0.40605  0.07951  0.38568  1.0000
  C   C149      1.0  0.40415  0.12670  0.35142  1.0000
  C   C150      1.0  0.42008  0.09888  0.36124  1.0000
  C   C151      1.0  0.30691  0.24231  0.34816  1.0000
  H   H177      1.0  0.35026  0.25400  0.39880  1.0000
  H   H178      1.0  0.15047  0.09043  0.23989  1.0000
  H   H179      1.0  0.03540  0.98936  0.44527  1.0000
  H   H180      1.0  0.18720  0.24300  0.35872  1.0000
  H   H181      1.0  0.33602  0.99358  0.35081  1.0000
  H   H182      1.0  0.29942  0.09539  0.38595  1.0000
  H   H183      1.0  0.27567  0.12678  0.39999  1.0000
  H   H184      1.0  0.30501  0.13647  0.36907  1.0000
  H   H185      1.0  0.36706  0.07195  0.41962  1.0000
  H   H186      1.0  0.36243  0.15680  0.35730  1.0000
  H   H187      1.0  0.42741  0.11314  0.43142  1.0000
  H   H188      1.0  0.41536  0.14164  0.33235  1.0000
  C   C152      1.0  0.16877  0.28916  0.36470  1.0000
  C   C153      1.0  0.03570  0.10601  0.37766  1.0000
  S   S48       1.0  0.44240  0.21025  0.32948  1.0000
  C   C154      1.0  0.03024  0.24694  0.41383  1.0000
  H   H189      1.0  0.44147  0.00987  0.23780  1.0000
  S   S49       1.0  0.99288  0.18238  0.35828  1.0000
  H   H190      1.0  0.09266  0.14572  0.42247  1.0000
  S   S50       1.0  0.24934  0.28996  0.25630  1.0000
  C   C155      1.0  0.05536  0.05506  0.39880  1.0000
  C   C156      1.0  0.47397  0.28720  0.42589  1.0000
  H   H191      1.0  0.45689  0.07239  0.29323  1.0000
  N   N13       1.0  0.08705  0.10711  0.39942  1.0000
  S   S51       1.0  0.13292  0.26447  0.43470  1.0000
  H   H192      1.0  0.40655  0.26740  0.44325  1.0000
  H   H193      1.0  0.33672  0.10772  0.44701  1.0000
  H   H194      1.0  0.12024  0.06772  0.40774  1.0000
  Fe  Fe25      1.0  0.17233  0.15259  0.45823  1.0000
  S   S52       1.0  0.40959  0.98914  0.40063  1.0000
  C   C157      1.0  0.09318  0.06611  0.23545  1.0000
  C   C158      1.0  0.46446  0.00345  0.24547  1.0000
  C   C159      1.0  0.28460  0.05798  0.23308  1.0000
  H   H195      1.0  0.08642  0.22650  0.25431  1.0000
  H   H196      1.0  0.33004  0.01555  0.26486  1.0000
  H   H197      1.0  0.44281  0.02714  0.33198  1.0000
  H   H198      1.0  0.28933  0.23350  0.27383  1.0000
  H   H199      1.0  0.29383  0.11436  0.44515  1.0000
  H   H200      1.0  0.08251  0.06382  0.25768  1.0000
  H   H201      1.0  0.29476  0.00336  0.29053  1.0000
  H   H202      1.0  0.37664  0.24290  0.27738  1.0000
  C   C160      1.0  0.35165  0.23087  0.28144  1.0000
  C   C161      1.0  0.43383  0.05869  0.29547  1.0000
  H   H203      1.0  0.32196  0.28378  0.25936  1.0000
  H   H204      1.0  0.05618  0.23536  0.37553  1.0000
  H   H205      1.0  0.02653  0.23625  0.22425  1.0000
  H   H206      1.0  0.13538  0.28834  0.21435  1.0000
  H   H207      1.0  0.01480  0.99710  0.33265  1.0000
  H   H208      1.0  0.02981  0.24916  0.25609  1.0000
  H   H209      1.0  0.31293  0.08007  0.43296  1.0000
  H   H210      1.0  0.03787  0.30142  0.26155  1.0000
  S   S53       1.0  0.98174  0.03529  0.45697  1.0000
  C   C162      1.0  0.08435  0.29008  0.23591  1.0000
  N   N14       1.0  0.07145  0.26360  0.22391  1.0000
  C   C163      1.0  0.29257  0.12484  0.21720  1.0000
  C   C164      1.0  0.03541  0.25647  0.23335  1.0000
  C   C165      1.0  0.36974  0.26184  0.35547  1.0000
  C   C166      1.0  0.08949  0.23359  0.23156  1.0000
  C   C167      1.0  0.32671  0.28314  0.28084  1.0000
  H   H211      1.0  0.45281  0.29060  0.41526  1.0000
  C   C168      1.0  0.47047  0.27809  0.45498  1.0000
  C   C169      1.0  0.00813  0.09013  0.37215  1.0000
  H   H212      1.0  0.98250  0.04477  0.37580  1.0000
  Fe  Fe26      1.0  0.24957  0.25865  0.22313  1.0000
  H   H213      1.0  0.13855  0.04777  0.45858  1.0000
  H   H214      1.0  0.07461  0.05702  0.22425  1.0000
  H   H215      1.0  0.11655  0.23617  0.22352  1.0000
  H   H216      1.0  0.08024  0.21294  0.22316  1.0000
  H   H217      1.0  0.02009  0.27773  0.22741  1.0000
  H   H218      1.0  0.41123  0.30850  0.44869  1.0000
  C   C170      1.0  0.40909  0.28280  0.45882  1.0000
  H   H219      1.0  0.19725  0.06133  0.45858  1.0000
  Fe  Fe27      1.0  0.22998  0.19868  0.45993  1.0000
  H   H220      1.0  0.47316  0.15920  0.45556  1.0000
  C   C171      1.0  0.39492  0.13482  0.46162  1.0000
  H   H221      1.0  0.26725  0.27126  0.47006  1.0000
  H   H222      1.0  0.00994  0.04846  0.68181  1.0000
  H   H223      1.0  0.12585  0.26710  0.64587  1.0000
  C   C172      1.0  0.21095  0.01189  0.47042  1.0000
  H   H224      1.0  0.03759  0.26405  0.56552  1.0000
  Fe  Fe28      1.0  0.37130  0.27973  0.61652  1.0000
  H   H225      1.0  0.08546  0.22128  0.65527  1.0000
  S   S54       1.0  0.32084  0.23641  0.67389  1.0000
  H   H226      1.0  0.47275  0.04789  0.60460  1.0000
  S   S55       1.0  0.38744  0.26367  0.57362  1.0000
  H   H227      1.0  0.04472  0.29349  0.67232  1.0000
  H   H228      1.0  0.26048  0.25289  0.65385  1.0000
  S   S56       1.0  0.98943  0.11471  0.48726  1.0000
  H   H229      1.0  0.36312  0.16304  0.48712  1.0000
  H   H230      1.0  0.99211  0.25460  0.65294  1.0000
  C   C173      1.0  0.43376  0.28875  0.71176  1.0000
  S   S57       1.0  0.43171  0.02334  0.51060  1.0000
  C   C174      1.0  0.28475  0.26612  0.48429  1.0000
  H   H231      1.0  0.06774  0.26560  0.46575  1.0000
  C   C175      1.0  0.02268  0.98804  0.55678  1.0000
  H   H232      1.0  0.31806  0.20322  0.52201  1.0000
  C   C176      1.0  0.10171  0.10954  0.48521  1.0000
  C   C177      1.0  0.05180  0.14093  0.48250  1.0000
  C   C178      1.0  0.03229  0.11250  0.48825  1.0000
  C   C179      1.0  0.04743  0.08264  0.49335  1.0000
  C   C180      1.0  0.08203  0.08121  0.49229  1.0000
  H   H233      1.0  0.03249  0.06064  0.49792  1.0000
  H   H234      1.0  0.09357  0.05804  0.49620  1.0000
  H   H235      1.0  0.27144  0.23058  0.62628  1.0000
  H   H236      1.0  0.34785  0.24794  0.53517  1.0000
  H   H237      1.0  0.98947  0.29538  0.55192  1.0000
  C   C181      1.0  0.33674  0.23167  0.70500  1.0000
  C   C182      1.0  0.43627  0.29307  0.49542  1.0000
  H   H238      1.0  0.45824  0.03982  0.57404  1.0000
  S   S58       1.0  0.07072  0.99591  0.68905  1.0000
  H   H239      1.0  0.15931  0.02175  0.52401  1.0000
  S   S59       1.0  0.10555  0.28286  0.56466  1.0000
  C   C183      1.0  0.09780  0.05290  0.56570  1.0000
  S   S60       1.0  0.38444  0.09914  0.48497  1.0000
  C   C184      1.0  0.08069  0.99944  0.55826  1.0000
  C   C185      1.0  0.38036  0.16339  0.46811  1.0000
  Fe  Fe29      1.0  0.40956  0.05335  0.47683  1.0000
  C   C186      1.0  0.06562  0.22935  0.69629  1.0000
  C   C187      1.0  0.08703  0.23591  0.67101  1.0000
  C   C188      1.0  0.10987  0.26195  0.66562  1.0000
  C   C189      1.0  0.11193  0.28121  0.68571  1.0000
  H   H240      1.0  0.05178  0.02963  0.58478  1.0000
  H   H241      1.0  0.09218  0.07438  0.57488  1.0000
  H   H242      1.0  0.47602  0.28637  0.68014  1.0000
  N   N15       1.0  0.43775  0.27336  0.47318  1.0000
  C   C190      1.0  0.47826  0.97922  0.57620  1.0000
  H   H243      1.0  0.43693  0.22307  0.46973  1.0000
  H   H244      1.0  0.99409  0.30548  0.47196  1.0000
  S   S61       1.0  0.27048  0.20073  0.48628  1.0000
  N   N16       1.0  0.28796  0.28056  0.61711  1.0000
  C   C191      1.0  0.04101  0.28915  0.55611  1.0000
  H   H245      1.0  0.38061  0.20943  0.62940  1.0000
  C   C192      1.0  0.08652  0.13944  0.48063  1.0000
  S   S62       1.0  0.37742  0.01324  0.47034  1.0000
  H   H246      1.0  0.01066  0.26715  0.69029  1.0000
  C   C193      1.0  0.33011  0.25333  0.52129  1.0000
  C   C194      1.0  0.43321  0.23886  0.48583  1.0000
  H   H247      1.0  0.99816  0.15904  0.67618  1.0000
  H   H248      1.0  0.37123  0.19506  0.69402  1.0000
  N   N17       1.0  0.99816  0.30431  0.65847  1.0000
  H   H249      1.0  0.30002  0.25880  0.58018  1.0000
  S   S63       1.0  0.47830  0.25059  0.55512  1.0000
  C   C195      1.0  0.21637  0.30321  0.51683  1.0000
  C   C196      1.0  0.30197  0.29160  0.49172  1.0000
  H   H250      1.0  0.41809  0.27329  0.70351  1.0000
  H   H251      1.0  0.14717  0.19704  0.53214  1.0000
  N   N18       1.0  0.00049  0.09287  0.69847  1.0000
  H   H252      1.0  0.32811  0.22639  0.60897  1.0000
  C   C197      1.0  0.31321  0.22792  0.51369  1.0000
  H   H253      1.0  0.38504  0.28003  0.47330  1.0000
  H   H254      1.0  0.26686  0.28665  0.57961  1.0000
  H   H255      1.0  0.20896  0.19571  0.52535  1.0000
  C   C198      1.0  0.16859  0.29252  0.49655  1.0000
  H   H256      1.0  0.26883  0.31140  0.64635  1.0000
  C   C199      1.0  0.33814  0.24245  0.62060  1.0000
  S   S64       1.0  0.99216  0.98172  0.65158  1.0000
  C   C200      1.0  0.29046  0.23409  0.49517  1.0000
  S   S65       1.0  0.17830  0.30347  0.60370  1.0000
  H   H257      1.0  0.40381  0.24384  0.66079  1.0000
  C   C201      1.0  0.01377  0.30691  0.54846  1.0000
  C   C202      1.0  0.46441  0.02840  0.59437  1.0000
  H   H258      1.0  0.23627  0.01944  0.47017  1.0000
  H   H259      1.0  0.01190  0.00325  0.57208  1.0000
  C   C203      1.0  0.07231  0.30418  0.55259  1.0000
  H   H260      1.0  0.37492  0.29688  0.67103  1.0000
  H   H261      1.0  0.04018  0.16410  0.47857  1.0000
  S   S66       1.0  0.14527  0.10694  0.48038  1.0000
  C   C204      1.0  0.36907  0.23202  0.63282  1.0000
  H   H262      1.0  0.10150  0.16143  0.47534  1.0000
  H   H263      1.0  0.45107  0.23132  0.50026  1.0000
  H   H264      1.0  0.44085  0.01805  0.60723  1.0000
  C   C205      1.0  0.32468  0.28537  0.51032  1.0000
  H   H265      1.0  0.04073  0.08004  0.66889  1.0000
  C   C206      1.0  0.20018  0.97899  0.47739  1.0000
  C   C207      1.0  0.32039  0.27349  0.62625  1.0000
  C   C208      1.0  0.36578  0.28315  0.65708  1.0000
  S   S67       1.0  0.17561  0.19647  0.47770  1.0000
  H   H266      1.0  0.40782  0.23357  0.49794  1.0000
  Fe  Fe30      1.0  0.40285  0.98226  0.50116  1.0000
  C   C209      1.0  0.02078  0.11543  0.70948  1.0000
  C   C210      1.0  0.27409  0.31162  0.62374  1.0000
  C   C211      1.0  0.16295  0.26302  0.51435  1.0000
  N   N19       1.0  0.17868  0.22175  0.55350  1.0000
  C   C212      1.0  0.20683  0.20031  0.54690  1.0000
  C   C213      1.0  0.17715  0.22741  0.58228  1.0000
  C   C214      1.0  0.14734  0.20433  0.55249  1.0000
  C   C215      1.0  0.18391  0.25279  0.53419  1.0000
  C   C216      1.0  0.21125  0.27355  0.53442  1.0000
  H   H267      1.0  0.23117  0.21099  0.54860  1.0000
  H   H268      1.0  0.20391  0.17649  0.56064  1.0000
  H   H269      1.0  0.20062  0.23789  0.58591  1.0000
  H   H270      1.0  0.17219  0.20466  0.59736  1.0000
  H   H271      1.0  0.15668  0.24412  0.58762  1.0000
  H   H272      1.0  0.14359  0.18171  0.56782  1.0000
  H   H273      1.0  0.12522  0.21944  0.55706  1.0000
  H   H274      1.0  0.22906  0.26699  0.54808  1.0000
  H   H275      1.0  0.26170  0.97995  0.49585  1.0000
  H   H276      1.0  0.01349  0.30636  0.69799  1.0000
  C   C217      1.0  0.29108  0.28167  0.58689  1.0000
  Fe  Fe31      1.0  0.43868  0.28273  0.57216  1.0000
  C   C218      1.0  0.99935  0.27890  0.64072  1.0000
  C   C219      1.0  0.11234  0.99778  0.54172  1.0000
  S   S68       1.0  0.42712  0.29652  0.61403  1.0000
  C   C220      1.0  0.02333  0.06870  0.68750  1.0000
  H   H277      1.0  0.41177  0.29006  0.50923  1.0000
  C   C221      1.0  0.13550  0.02332  0.53695  1.0000
  H   H278      1.0  0.02487  0.27707  0.62906  1.0000
  H   H279      1.0  0.02584  0.00301  0.53592  1.0000
  C   C222      1.0  0.12802  0.05105  0.54848  1.0000
  C   C223      1.0  0.07463  0.02731  0.57092  1.0000
  C   C224      1.0  0.33486  0.29363  0.64505  1.0000
  C   C225      1.0  0.38253  0.25205  0.65124  1.0000
  H   H280      1.0  0.14569  0.07115  0.54398  1.0000
  H   H281      1.0  0.23855  0.25915  0.62503  1.0000
  Fe  Fe32      1.0  0.47110  0.01291  0.47642  1.0000
  H   H282      1.0  0.30838  0.30136  0.57529  1.0000
  C   C226      1.0  0.26353  0.25468  0.63103  1.0000
  H   H283      1.0  0.03870  0.05762  0.70292  1.0000
  H   H284      1.0  0.14155  0.24903  0.51245  1.0000
  S   S69       1.0  0.03549  0.19815  0.70138  1.0000
  H   H285      1.0  0.45509  0.28619  0.50895  1.0000
  H   H286      1.0  0.04016  0.12844  0.69313  1.0000
  C   C227      1.0  0.09063  0.27454  0.71107  1.0000
  C   C228      1.0  0.01764  0.29248  0.68065  1.0000
  H   H287      1.0  0.15207  0.29972  0.48171  1.0000
  C   C229      1.0  0.46630  0.29609  0.69861  1.0000
  C   C230      1.0  0.36265  0.21039  0.70907  1.0000
  C   C231      1.0  0.98443  0.14281  0.66723  1.0000
  C   C232      1.0  0.98267  0.10891  0.67647  1.0000
  H   H288      1.0  0.98157  0.28320  0.62590  1.0000
  H   H289      1.0  0.11821  0.99118  0.47082  1.0000
  C   C233      1.0  0.18880  0.03629  0.46359  1.0000
  C   C234      1.0  0.14415  0.99692  0.47064  1.0000
  C   C235      1.0  0.15558  0.02877  0.46360  1.0000
  Fe  Fe33      1.0  0.21408  0.14110  0.86550  1.0000
  S   S70       1.0  0.24159  0.14904  0.82233  1.0000
  S   S71       1.0  0.23083  0.10274  0.89718  1.0000
  Fe  Fe34      1.0  0.16571  0.19409  0.85251  1.0000
  S   S72       1.0  0.18998  0.20636  0.80814  1.0000
  S   S73       1.0  0.12213  0.22333  0.86769  1.0000
  Fe  Fe35      1.0  0.19086  0.15209  0.80956  1.0000
  S   S74       1.0  0.18179  0.12599  0.77420  1.0000
  Fe  Fe36      1.0  0.23765  0.20200  0.82518  1.0000
  S   S75       1.0  0.28284  0.23543  0.81750  1.0000
  S   S76       1.0  0.16350  0.14043  0.85296  1.0000
  S   S77       1.0  0.21326  0.19334  0.86937  1.0000
  C   C236      1.0  0.32433  0.12672  0.74724  1.0000
  C   C237      1.0  0.15940  0.27704  0.74586  1.0000
  H   H290      1.0  0.15824  0.10769  0.93334  1.0000
  H   H291      1.0  0.39816  0.19325  0.73503  1.0000
  S   S78       1.0  0.36269  0.26876  0.90933  1.0000
  N   N20       1.0  0.25464  0.28067  0.90331  1.0000
  H   H292      1.0  0.27158  0.06454  0.93097  1.0000
  H   H293      1.0  0.30125  0.17306  0.74498  1.0000
  H   H294      1.0  0.38826  0.14908  0.84433  1.0000
  C   C238      1.0  0.21784  0.00255  0.73858  1.0000
  H   H295      1.0  0.22467  0.28010  0.94348  1.0000
  S   S79       1.0  0.99839  0.17455  0.77951  1.0000
  H   H296      1.0  0.04619  0.18646  0.81326  1.0000
  H   H297      1.0  0.24108  0.04791  0.81305  1.0000
  H   H298      1.0  0.16653  0.23643  0.95115  1.0000
  C   C239      1.0  0.02476  0.28967  0.78107  1.0000
  H   H299      1.0  0.39293  0.29115  0.79201  1.0000
  H   H300      1.0  0.42047  0.10672  0.93259  1.0000
  C   C240      1.0  0.08614  0.17681  0.76846  1.0000
  S   S80       1.0  0.35647  0.13861  0.94721  1.0000
  H   H301      1.0  0.04917  0.22359  0.78928  1.0000
  N   N21       1.0  0.46329  0.12587  0.90266  1.0000
  H   H302      1.0  0.07493  0.19128  0.75167  1.0000
  C   C241      1.0  0.26650  0.11281  0.91008  1.0000
  H   H303      1.0  0.22191  0.07679  0.75544  1.0000
  C   C242      1.0  0.36721  0.22922  0.75175  1.0000
  C   C243      1.0  0.40017  0.02913  0.78536  1.0000
  C   C244      1.0  0.39849  0.02885  0.81367  1.0000
  C   C245      1.0  0.41743  0.05137  0.82315  1.0000
  C   C246      1.0  0.43779  0.07460  0.80443  1.0000
  C   C247      1.0  0.43858  0.07552  0.77619  1.0000
  C   C248      1.0  0.42001  0.05276  0.76672  1.0000
  H   H304      1.0  0.28177  0.02011  0.78878  1.0000
  H   H305      1.0  0.41635  0.05073  0.84504  1.0000
  H   H306      1.0  0.18701  0.24170  0.72546  1.0000
  H   H307      1.0  0.26024  0.25485  0.94339  1.0000
  H   H308      1.0  0.33200  0.26495  0.76324  1.0000
  C   C249      1.0  0.31368  0.15467  0.75741  1.0000
  H   H309      1.0  0.42152  0.05312  0.74480  1.0000
  H   H310      1.0  0.01573  0.27709  0.76650  1.0000
  S   S81       1.0  0.37848  0.00003  0.77254  1.0000
  C   C250      1.0  0.14765  0.10133  0.77061  1.0000
  C   C251      1.0  0.11877  0.09632  0.79033  1.0000
  C   C252      1.0  0.09148  0.07859  0.78563  1.0000
  C   C253      1.0  0.09307  0.06445  0.76171  1.0000
  C   C254      1.0  0.14931  0.08706  0.74675  1.0000
  H   H311      1.0  0.11729  0.10627  0.80912  1.0000
  H   H312      1.0  0.06895  0.07567  0.80070  1.0000
  H   H313      1.0  0.38309  0.01092  0.82825  1.0000
  C   C255      1.0  0.12762  0.24350  0.89499  1.0000
  C   C256      1.0  0.10939  0.27123  0.89900  1.0000
  C   C257      1.0  0.11277  0.28713  0.92116  1.0000
  C   C258      1.0  0.13366  0.27477  0.93984  1.0000
  C   C259      1.0  0.15126  0.24663  0.93619  1.0000
  C   C260      1.0  0.14862  0.23126  0.91364  1.0000
  H   H314      1.0  0.09279  0.28056  0.88484  1.0000
  H   H315      1.0  0.12739  0.30680  0.76952  1.0000
  C   C261      1.0  0.06711  0.16121  0.92413  1.0000
  H   H316      1.0  0.16178  0.20924  0.91134  1.0000
  C   C262      1.0  0.28290  0.27759  0.80629  1.0000
  C   C263      1.0  0.30875  0.29664  0.81134  1.0000
  H   H317      1.0  0.45438  0.09308  0.76158  1.0000
  C   C264      1.0  0.30925  0.09659  0.93824  1.0000
  C   C265      1.0  0.33663  0.13644  0.79982  1.0000
  C   C266      1.0  0.25874  0.29230  0.79174  1.0000
  H   H318      1.0  0.32784  0.28529  0.82215  1.0000
  H   H319      1.0  0.17909  0.05225  0.93732  1.0000
  C   C267      1.0  0.38104  0.14349  0.82503  1.0000
  H   H320      1.0  0.23901  0.27776  0.78740  1.0000
  Fe  Fe37      1.0  0.05141  0.00239  0.73288  1.0000
  C   C268      1.0  0.28016  0.14414  0.90386  1.0000
  C   C269      1.0  0.30812  0.15172  0.91502  1.0000
  H   H321      1.0  0.26909  0.16261  0.89070  1.0000
  H   H322      1.0  0.31825  0.17613  0.91056  1.0000
  C   C270      1.0  0.32237  0.12810  0.93260  1.0000
  H   H323      1.0  0.39182  0.16287  0.80791  1.0000
  Fe  Fe38      1.0  0.43890  0.21007  0.77385  1.0000
  H   H324      1.0  0.39630  0.29384  0.74570  1.0000
  C   C271      1.0  0.97968  0.07384  0.88558  1.0000
  Fe  Fe39      1.0  0.99305  0.19688  0.73662  1.0000
  S   S82       1.0  0.38765  0.22970  0.78000  1.0000
  H   H325      1.0  0.42763  0.15686  0.94211  1.0000
  H   H326      1.0  0.39327  0.12074  0.82096  1.0000
  H   H327      1.0  0.34059  0.19315  0.82182  1.0000
  H   H328      1.0  0.33653  0.17387  0.85667  1.0000
  H   H329      1.0  0.07940  0.16885  0.90306  1.0000
  H   H330      1.0  0.30388  0.11063  0.84978  1.0000
  H   H331      1.0  0.00507  0.13347  0.71924  1.0000
  C   C272      1.0  0.19448  0.29185  0.85103  1.0000
  Fe  Fe40      1.0  0.36326  0.26240  0.95479  1.0000
  H   H332      1.0  0.06836  0.15685  0.77872  1.0000
  H   H333      1.0  0.04373  0.11928  0.91502  1.0000
  H   H334      1.0  0.15182  0.19622  0.75032  1.0000
  S   S83       1.0  0.45406  0.16805  0.75260  1.0000
  C   C273      1.0  0.33131  0.11360  0.84842  1.0000
  H   H335      1.0  0.23585  0.26238  0.85584  1.0000
  C   C274      1.0  0.28149  0.08896  0.92686  1.0000
  C   C275      1.0  0.33047  0.17105  0.83621  1.0000
  C   C276      1.0  0.45432  0.15969  0.94033  1.0000
  C   C277      1.0  0.22096  0.28064  0.86441  1.0000
  H   H336      1.0  0.02282  0.28619  0.84988  1.0000
  S   S84       1.0  0.05677  0.04490  0.75569  1.0000
  N   N22       1.0  0.09453  0.19723  0.78823  1.0000
  C   C278      1.0  0.11180  0.17712  0.80850  1.0000
  C   C279      1.0  0.06286  0.20738  0.80338  1.0000
  C   C280      1.0  0.11654  0.22486  0.77388  1.0000
  C   C281      1.0  0.11142  0.25686  0.77951  1.0000
  C   C282      1.0  0.01624  0.27851  0.80939  1.0000
  C   C283      1.0  0.13254  0.28245  0.76557  1.0000
  H   H337      1.0  0.45983  0.22869  0.91821  1.0000
  H   H338      1.0  0.31185  0.18241  0.78932  1.0000
  H   H339      1.0  0.13480  0.16696  0.79833  1.0000
  H   H340      1.0  0.09587  0.15653  0.82039  1.0000
  H   H341      1.0  0.11882  0.19155  0.82354  1.0000
  C   C284      1.0  0.45635  0.24452  0.89884  1.0000
  H   H342      1.0  0.06690  0.21994  0.82066  1.0000
  H   H343      1.0  0.09110  0.26298  0.79440  1.0000
  H   H344      1.0  0.29786  0.29999  0.91568  1.0000
  C   C285      1.0  0.34717  0.10825  0.78877  1.0000
  H   H345      1.0  0.98579  0.09084  0.84198  1.0000
  H   H346      1.0  0.29723  0.24952  0.90126  1.0000
  C   C286      1.0  0.15706  0.05756  0.95122  1.0000
  C   C287      1.0  0.17489  0.00966  0.77668  1.0000
  H   H347      1.0  0.20081  0.05442  0.80417  1.0000
  C   C288      1.0  0.07125  0.17965  0.94437  1.0000
  H   H348      1.0  0.17498  0.29712  0.73439  1.0000
  C   C289      1.0  0.19461  0.98711  0.72696  1.0000
  C   C290      1.0  0.37807  0.20945  0.73226  1.0000
  C   C291      1.0  0.12240  0.06847  0.74244  1.0000
  H   H349      1.0  0.32044  0.07812  0.95140  1.0000
  H   H350      1.0  0.43495  0.28243  0.79674  1.0000
  C   C292      1.0  0.44222  0.14615  0.88536  1.0000
  H   H351      1.0  0.33605  0.11701  0.86916  1.0000
  H   H352      1.0  0.16535  0.01802  0.79573  1.0000
  C   C293      1.0  0.14527  0.08887  0.94890  1.0000
  H   H353      1.0  0.08665  0.20117  0.93765  1.0000
  S   S85       1.0  0.45944  0.19119  0.81201  1.0000
  H   H354      1.0  0.27820  0.00816  0.75684  1.0000
  H   H355      1.0  0.24292  0.00558  0.72741  1.0000
  S   S86       1.0  0.46220  0.10177  0.81700  1.0000
  H   H356      1.0  0.22450  0.24305  0.93010  1.0000
  H   H357      1.0  0.05063  0.24423  0.73575  1.0000
  C   C294      1.0  0.27594  0.30824  0.90582  1.0000
  C   C295      1.0  0.16585  0.24586  0.74058  1.0000
  H   H358      1.0  0.45070  0.22819  0.88463  1.0000
  H   H359      1.0  0.34996  0.08199  0.75482  1.0000
  H   H360      1.0  0.28842  0.26853  0.86858  1.0000
  C   C296      1.0  0.34106  0.10352  0.76290  1.0000
  C   C297      1.0  0.41620  0.30182  0.79600  1.0000
  H   H361      1.0  0.46409  0.00973  0.85477  1.0000
  C   C298      1.0  0.22145  0.03688  0.80410  1.0000
  H   H362      1.0  0.43374  0.13275  0.87011  1.0000
  H   H363      1.0  0.25609  0.05832  0.73699  1.0000
  H   H364      1.0  0.25692  0.98522  0.78810  1.0000
  H   H365      1.0  0.34286  0.09041  0.84459  1.0000
  C   C299      1.0  0.04704  0.13337  0.93080  1.0000
  C   C300      1.0  0.31991  0.15973  0.78317  1.0000
  H   H366      1.0  0.26284  0.23519  0.88841  1.0000
  N   N23       1.0  0.34449  0.14124  0.82689  1.0000
  N   N24       1.0  0.23393  0.03026  0.77588  1.0000
  H   H367      1.0  0.43307  0.08270  0.90661  1.0000
  S   S87       1.0  0.98921  0.24487  0.82233  1.0000
  C   C301      1.0  0.20885  0.01387  0.76406  1.0000
  C   C302      1.0  0.44266  0.09856  0.91956  1.0000
  H   H368      1.0  0.43386  0.25914  0.90311  1.0000
  C   C303      1.0  0.26392  0.01014  0.77740  1.0000
  C   C304      1.0  0.27659  0.25752  0.88972  1.0000
  H   H369      1.0  0.09864  0.30851  0.92412  1.0000
  C   C305      1.0  0.46607  0.17760  0.95821  1.0000
  C   C306      1.0  0.24394  0.06151  0.75796  1.0000
  H   H370      1.0  0.09148  0.28992  0.72633  1.0000
  H   H371      1.0  0.45803  0.26953  0.94191  1.0000
  H   H372      1.0  0.21276  0.01418  0.81843  1.0000
  C   C307      1.0  0.24042  0.26403  0.93130  1.0000
  C   C308      1.0  0.37809  0.30650  0.89177  1.0000
  C   C309      1.0  0.34045  0.24962  0.74821  1.0000
  C   C310      1.0  0.22729  0.29253  0.88822  1.0000
  C   C311      1.0  0.14505  0.22004  0.75456  1.0000
  H   H373      1.0  0.45626  0.16803  0.87365  1.0000
  C   C312      1.0  0.46480  0.98288  0.85957  1.0000
  H   H374      1.0  0.47340  0.26545  0.84656  1.0000
  H   H375      1.0  0.10807  0.16455  0.75876  1.0000
  H   H376      1.0  0.26159  0.07546  0.76671  1.0000
  H   H377      1.0  0.36097  0.08994  0.79980  1.0000
  H   H378      1.0  0.30293  0.17099  0.83822  1.0000
  C   C313      1.0  0.32528  0.25098  0.72477  1.0000
  H   H379      1.0  0.18968  0.28172  0.83333  1.0000
  H   H380      1.0  0.17141  0.09066  0.73127  1.0000
  C   C314      1.0  0.47672  0.28770  0.93212  1.0000
  C   C315      1.0  0.02886  0.29485  0.82797  1.0000
  H   H381      1.0  0.45725  0.08348  0.93367  1.0000
  H   H382      1.0  0.34579  0.30809  0.86143  1.0000
  H   H383      1.0  0.32009  0.12340  0.72697  1.0000
  C   C316      1.0  0.42159  0.30033  0.73614  1.0000
  H   H384      1.0  0.46052  0.30045  0.86194  1.0000
  S   S88       1.0  0.99975  0.98521  0.72987  1.0000
  H   H385      1.0  0.30521  0.26744  0.72171  1.0000
  H   H386      1.0  0.40990  0.30832  0.81695  1.0000
  H   H387      1.0  0.46788  0.00770  0.80601  1.0000
  H   H388      1.0  0.41409  0.31143  0.91810  1.0000
  C   C317      1.0  0.46606  0.98091  0.81165  1.0000
  H   H389      1.0  0.99385  0.05222  0.88338  1.0000
  H   H390      1.0  0.41940  0.15417  0.89782  1.0000
  H   H391      1.0  0.98882  0.06459  0.73920  1.0000
  Fe  Fe41      1.0  0.47690  0.15015  0.79001  1.0000
  C   C318      1.0  0.03096  0.12388  0.95777  1.0000
  H   H392      1.0  0.03411  0.10266  0.72578  1.0000
  H   H393      1.0  0.12405  0.05801  0.72384  1.0000
  C   C319      1.0  0.15184  0.99437  0.76477  1.0000
  C   C320      1.0  0.16172  0.98295  0.74007  1.0000
  C   C321      1.0  0.47645  0.14539  0.92090  1.0000
  H   H394      1.0  0.22222  0.18433  0.95882  1.0000
  C   C322      1.0  0.06741  0.24874  0.71636  1.0000
  H   H395      1.0  0.12604  0.99155  0.77469  1.0000
  H   H396      1.0  0.47905  0.09701  0.87089  1.0000
  S   S89       1.0  0.12134  0.37100  0.00196  1.0000
  S   S90       1.0  0.20369  0.42247  0.99560  1.0000
  C   C323      1.0  0.45653  0.53218  0.14066  1.0000
  C   C324      1.0  0.44359  0.48463  0.09888  1.0000
  S   S91       1.0  0.03551  0.41833  0.99981  1.0000
  C   C325      1.0  0.23784  0.39783  0.00181  1.0000
  H   H397      1.0  0.45374  0.50647  0.15080  1.0000
  C   C326      1.0  0.28733  0.38968  0.02332  1.0000
  C   C327      1.0  0.25454  0.64365  0.03620  1.0000
  N   N25       1.0  0.43932  0.53806  0.11642  1.0000
  H   H398      1.0  0.43903  0.50233  0.00249  1.0000
  H   H399      1.0  0.26484  0.62200  0.04619  1.0000
  C   C328      1.0  0.26031  0.40852  0.01702  1.0000
  H   H400      1.0  0.25656  0.43135  0.02433  1.0000
  H   H401      1.0  0.17423  0.48401  0.15412  1.0000
  Fe  Fe42      1.0  0.42911  0.56931  0.00570  1.0000
  S   S92       1.0  0.39236  0.55548  0.98095  1.0000
  Fe  Fe43      1.0  0.37410  0.58982  0.04959  1.0000
  S   S93       1.0  0.33335  0.57698  0.02714  1.0000
  Fe  Fe44      1.0  0.36306  0.53304  0.02105  1.0000
  S   S94       1.0  0.34460  0.48190  0.02708  1.0000
  Fe  Fe45      1.0  0.36669  0.60116  0.98868  1.0000
  H   H402      1.0  0.18687  0.33552  0.02785  1.0000
  S   S95       1.0  0.40164  0.54369  0.04551  1.0000
  S   S96       1.0  0.40593  0.61713  0.01136  1.0000
  S   S97       1.0  0.36793  0.42755  0.14772  1.0000
  Fe  Fe46      1.0  0.08631  0.40358  0.98008  1.0000
  S   S98       1.0  0.36157  0.59539  0.09497  1.0000
  H   H403      1.0  0.42748  0.58818  0.11819  1.0000
  Fe  Fe47      1.0  0.12805  0.59244  0.11463  1.0000
  S   S99       1.0  0.15249  0.63918  0.11807  1.0000
  S   S100      1.0  0.14991  0.54304  0.12673  1.0000
  C   C329      1.0  0.02631  0.53539  0.09206  1.0000
  H   H404      1.0  0.42417  0.47368  0.11503  1.0000
  H   H405      1.0  0.26282  0.59914  0.12936  1.0000
  H   H406      1.0  0.22607  0.35994  0.98025  1.0000
  S   S101      1.0  0.11778  0.60876  0.07139  1.0000
  C   C330      1.0  0.17905  0.53574  0.14990  1.0000
  C   C331      1.0  0.18650  0.50382  0.16020  1.0000
  H   H407      1.0  0.45023  0.44477  0.99996  1.0000
  S   S102      1.0  0.40396  0.55370  0.20899  1.0000
  C   C332      1.0  0.19505  0.56102  0.15810  1.0000
  H   H408      1.0  0.44626  0.54725  0.15636  1.0000
  H   H409      1.0  0.02945  0.51896  0.11132  1.0000
  S   S103      1.0  0.33660  0.50904  0.17732  1.0000
  C   C333      1.0  0.00587  0.49267  0.07215  1.0000
  C   C334      1.0  0.23565  0.63972  0.14207  1.0000
  C   C335      1.0  0.99499  0.54736  0.05465  1.0000
  C   C336      1.0  0.21768  0.55441  0.17683  1.0000
  S   S104      1.0  0.98451  0.56260  0.98735  1.0000
  H   H410      1.0  0.02289  0.56003  0.09733  1.0000
  C   C337      1.0  0.35901  0.44237  0.11482  1.0000
  C   C338      1.0  0.34977  0.47435  0.10799  1.0000
  C   C339      1.0  0.34474  0.48632  0.08110  1.0000
  C   C340      1.0  0.34811  0.46607  0.06118  1.0000
  C   C341      1.0  0.35610  0.43372  0.06825  1.0000
  C   C342      1.0  0.36202  0.42201  0.09498  1.0000
  H   H411      1.0  0.34645  0.48988  0.12336  1.0000
  H   H412      1.0  0.33809  0.51126  0.07591  1.0000
  H   H413      1.0  0.35864  0.41793  0.05298  1.0000
  H   H414      1.0  0.36895  0.39715  0.10028  1.0000
  H   H415      1.0  0.46545  0.62695  0.05069  1.0000
  C   C343      1.0  0.25387  0.61918  0.96360  1.0000
  C   C344      1.0  0.40332  0.53071  0.12584  1.0000
  C   C345      1.0  0.47026  0.46244  0.99357  1.0000
  H   H416      1.0  0.39517  0.42731  0.99942  1.0000
  H   H417      1.0  0.39114  0.54844  0.13842  1.0000
  Fe  Fe48      1.0  0.35199  0.45722  0.18095  1.0000
  C   C346      1.0  0.98860  0.46483  0.00528  1.0000
  H   H418      1.0  0.38999  0.53139  0.10796  1.0000
  H   H419      1.0  0.27466  0.32658  0.99104  1.0000
  Fe  Fe49      1.0  0.16183  0.40440  0.97714  1.0000
  H   H420      1.0  0.39003  0.47313  0.97138  1.0000
  H   H421      1.0  0.47257  0.63340  0.15109  1.0000
  C   C347      1.0  0.45413  0.51735  0.09642  1.0000
  H   H422      1.0  0.35262  0.42773  0.99349  1.0000
  S   S105      1.0  0.07648  0.60547  0.13305  1.0000
  C   C348      1.0  0.99873  0.52256  0.99139  1.0000
  N   N26       1.0  0.99793  0.52475  0.08023  1.0000
  H   H423      1.0  0.30405  0.39811  0.03561  1.0000
  H   H424      1.0  0.02847  0.49388  0.05606  1.0000
  H   H425      1.0  0.10841  0.54481  0.19087  1.0000
  H   H426      1.0  0.07022  0.48048  0.97905  1.0000
  C   C349      1.0  0.27081  0.34949  0.99817  1.0000
  H   H427      1.0  0.46844  0.58227  0.10217  1.0000
  H   H428      1.0  0.39856  0.50685  0.13922  1.0000
  C   C350      1.0  0.46392  0.49512  0.99502  1.0000
  H   H429      1.0  0.11130  0.60333  0.19246  1.0000
  H   H430      1.0  0.41435  0.62283  0.17451  1.0000
  C   C351      1.0  0.04422  0.48481  0.98555  1.0000
  H   H431      1.0  0.04961  0.53666  0.97450  1.0000
  H   H432      1.0  0.22920  0.57397  0.18369  1.0000
  H   H433      1.0  0.99238  0.64141  0.15538  1.0000
  C   C352      1.0  0.20872  0.49724  0.17929  1.0000
  H   H434      1.0  0.99154  0.57272  0.05787  1.0000
  H   H435      1.0  0.43386  0.57793  0.08441  1.0000
  H   H436      1.0  0.19312  0.51393  0.97500  1.0000
  C   C353      1.0  0.40747  0.64394  0.16009  1.0000
  H   H437      1.0  0.21270  0.47254  0.18821  1.0000
  C   C354      1.0  0.35088  0.63079  0.10910  1.0000
  S   S106      1.0  0.32677  0.33732  0.02367  1.0000
  H   H438      1.0  0.23945  0.34096  0.21157  1.0000
  H   H439      1.0  0.01097  0.47469  0.08990  1.0000
  C   C355      1.0  0.29448  0.48042  0.96461  1.0000
  H   H440      1.0  0.41654  0.36831  0.97770  1.0000
  C   C356      1.0  0.29269  0.36006  0.01411  1.0000
  H   H441      1.0  0.29011  0.63027  0.08501  1.0000
  H   H442      1.0  0.23471  0.61245  0.98136  1.0000
  C   C357      1.0  0.44256  0.57301  0.10470  1.0000
  H   H443      1.0  0.44880  0.44030  0.08228  1.0000
  H   H444      1.0  0.20423  0.63208  0.05686  1.0000
  H   H445      1.0  0.05009  0.53621  0.07736  1.0000
  C   C358      1.0  0.03250  0.51661  0.98306  1.0000
  C   C359      1.0  0.02225  0.45876  0.99667  1.0000
  H   H446      1.0  0.29376  0.61305  0.98745  1.0000
  C   C360      1.0  0.45797  0.46490  0.08034  1.0000
  H   H447      1.0  0.18924  0.58559  0.15049  1.0000
  C   C361      1.0  0.22451  0.52255  0.18770  1.0000
  N   N27       1.0  0.24400  0.51454  0.07543  1.0000
  C   C362      1.0  0.26470  0.51635  0.04781  1.0000
  C   C363      1.0  0.20910  0.50704  0.07335  1.0000
  C   C364      1.0  0.24507  0.54713  0.08333  1.0000
  C   C365      1.0  0.25588  0.48872  0.09535  1.0000
  C   C366      1.0  0.26259  0.49387  0.12146  1.0000
  C   C367      1.0  0.25965  0.45682  0.08940  1.0000
  C   C368      1.0  0.27251  0.46862  0.14020  1.0000
  C   C369      1.0  0.27012  0.43189  0.10812  1.0000
  C   C370      1.0  0.27642  0.43776  0.13352  1.0000
  H   H448      1.0  0.26230  0.49445  0.03839  1.0000
  H   H449      1.0  0.25802  0.53705  0.03284  1.0000
  H   H450      1.0  0.29142  0.51929  0.04917  1.0000
  H   H451      1.0  0.20679  0.48427  0.06504  1.0000
  H   H452      1.0  0.19834  0.52660  0.05973  1.0000
  H   H453      1.0  0.19310  0.50406  0.09399  1.0000
  H   H454      1.0  0.27070  0.55385  0.08583  1.0000
  H   H455      1.0  0.23716  0.56620  0.06753  1.0000
  H   H456      1.0  0.22771  0.54858  0.10272  1.0000
  H   H457      1.0  0.26010  0.51710  0.12810  1.0000
  H   H458      1.0  0.25460  0.45084  0.07020  1.0000
  H   H459      1.0  0.27742  0.47306  0.16001  1.0000
  H   H460      1.0  0.27371  0.40796  0.10280  1.0000
  H   H461      1.0  0.28498  0.41851  0.14787  1.0000
  H   H462      1.0  0.33650  0.50575  0.97279  1.0000
  S   S107      1.0  0.02115  0.62531  0.07276  1.0000
  C   C371      1.0  0.33251  0.62793  0.13585  1.0000
  H   H463      1.0  0.32496  0.60425  0.14727  1.0000
  C   C372      1.0  0.25731  0.62442  0.12391  1.0000
  H   H464      1.0  0.22386  0.62637  0.16159  1.0000
  H   H465      1.0  0.07639  0.63769  0.01630  1.0000
  C   C373      1.0  0.37615  0.41405  0.99164  1.0000
  C   C374      1.0  0.24325  0.36833  0.99212  1.0000
  H   H466      1.0  0.01757  0.54770  0.03871  1.0000
  H   H467      1.0  0.37128  0.39105  0.00641  1.0000
  H   H468      1.0  0.98527  0.48328  0.06319  1.0000
  S   S108      1.0  0.38876  0.46241  0.20897  1.0000
  N   N28       1.0  0.38729  0.40835  0.96293  1.0000
  C   C375      1.0  0.12560  0.58666  0.20476  1.0000
  Fe  Fe50      1.0  0.12797  0.34598  0.96490  1.0000
  H   H469      1.0  0.43907  0.40599  0.96703  1.0000
  Fe  Fe51      1.0  0.06915  0.62760  0.09028  1.0000
  H   H470      1.0  0.35680  0.36489  0.97188  1.0000
  C   C376      1.0  0.12367  0.55373  0.20406  1.0000
  H   H471      1.0  0.23283  0.31949  0.05268  1.0000
  C   C377      1.0  0.27255  0.64192  0.09893  1.0000
  Fe  Fe52      1.0  0.36900  0.51228  0.20912  1.0000
  C   C378      1.0  0.28733  0.61937  0.96710  1.0000
  H   H472      1.0  0.04257  0.63506  0.98501  1.0000
  H   H473      1.0  0.98524  0.63822  0.97718  1.0000
  H   H474      1.0  0.40218  0.63504  0.14136  1.0000
  C   C379      1.0  0.31355  0.50784  0.96446  1.0000
  H   H475      1.0  0.30261  0.45693  0.97331  1.0000
  H   H476      1.0  0.20933  0.39251  0.21135  1.0000
  Fe  Fe53      1.0  0.34638  0.44637  0.24277  1.0000
  S   S109      1.0  0.35722  0.41286  0.28102  1.0000
  S   S110      1.0  0.31004  0.43827  0.21481  1.0000
  C   C380      1.0  0.35019  0.62409  0.34131  1.0000
  S   S111      1.0  0.11701  0.41152  0.32932  1.0000
  S   S112      1.0  0.16981  0.42106  0.25342  1.0000
  S   S113      1.0  0.02278  0.40241  0.32928  1.0000
  C   C381      1.0  0.14876  0.31467  0.35640  1.0000
  C   C382      1.0  0.47666  0.55645  0.29380  1.0000
  C   C383      1.0  0.19023  0.36242  0.27961  1.0000
  H   H477      1.0  0.07408  0.62143  0.34073  1.0000
  H   H478      1.0  0.44822  0.36258  0.37362  1.0000
  H   H479      1.0  0.30706  0.43051  0.32175  1.0000
  C   C384      1.0  0.04729  0.37772  0.41540  1.0000
  C   C385      1.0  0.06195  0.43278  0.41792  1.0000
  C   C386      1.0  0.34993  0.58943  0.22648  1.0000
  H   H480      1.0  0.47310  0.51480  0.36755  1.0000
  C   C387      1.0  0.33474  0.61423  0.23965  1.0000
  H   H481      1.0  0.42996  0.60325  0.23366  1.0000
  C   C388      1.0  0.38799  0.62950  0.24976  1.0000
  C   C389      1.0  0.16258  0.54371  0.23628  1.0000
  C   C390      1.0  0.01151  0.40775  0.44555  1.0000
  H   H482      1.0  0.26759  0.52840  0.44278  1.0000
  H   H483      1.0  0.22920  0.40668  0.43800  1.0000
  C   C391      1.0  0.31087  0.47065  0.34179  1.0000
  H   H484      1.0  0.17627  0.36805  0.29853  1.0000
  C   C392      1.0  0.22563  0.34667  0.23056  1.0000
  C   C393      1.0  0.20867  0.37596  0.23051  1.0000
  C   C394      1.0  0.19077  0.38393  0.25494  1.0000
  H   H485      1.0  0.01316  0.62493  0.41823  1.0000
  H   H486      1.0  0.36512  0.56342  0.39157  1.0000
  C   C395      1.0  0.38185  0.37829  0.27773  1.0000
  C   C396      1.0  0.39146  0.36000  0.30132  1.0000
  C   C397      1.0  0.41073  0.33222  0.29939  1.0000
  N   N29       1.0  0.99511  0.34996  0.44336  1.0000
  C   C398      1.0  0.41084  0.34067  0.25029  1.0000
  C   C399      1.0  0.39185  0.36860  0.25217  1.0000
  H   H487      1.0  0.38370  0.36720  0.32121  1.0000
  H   H488      1.0  0.09146  0.40319  0.39248  1.0000
  H   H489      1.0  0.42223  0.62997  0.43989  1.0000
  H   H490      1.0  0.38456  0.38236  0.23383  1.0000
  C   C400      1.0  0.47588  0.54938  0.24728  1.0000
  C   C401      1.0  0.45580  0.48924  0.40844  1.0000
  S   S114      1.0  0.15899  0.64073  0.40848  1.0000
  Fe  Fe54      1.0  0.29722  0.49083  0.21319  1.0000
  H   H491      1.0  0.06095  0.34511  0.27925  1.0000
  H   H492      1.0  0.46229  0.35728  0.32543  1.0000
  H   H493      1.0  0.07880  0.45345  0.41127  1.0000
  S   S115      1.0  0.32907  0.49706  0.24518  1.0000
  C   C402      1.0  0.13102  0.32518  0.23922  1.0000
  Fe  Fe55      1.0  0.09824  0.50061  0.30154  1.0000
  S   S116      1.0  0.07588  0.47672  0.34395  1.0000
  S   S117      1.0  0.09550  0.55371  0.28601  1.0000
  Fe  Fe56      1.0  0.13624  0.44001  0.28793  1.0000
  Fe  Fe57      1.0  0.06824  0.43421  0.32326  1.0000
  Fe  Fe58      1.0  0.12661  0.45668  0.34595  1.0000
  S   S118      1.0  0.15199  0.45248  0.38317  1.0000
  S   S119      1.0  0.08660  0.45984  0.28041  1.0000
  S   S120      1.0  0.14988  0.48356  0.30498  1.0000
  C   C403      1.0  0.40333  0.60570  0.23568  1.0000
  C   C404      1.0  0.40244  0.60698  0.35405  1.0000
  C   C405      1.0  0.43794  0.45505  0.28215  1.0000
  C   C406      1.0  0.35129  0.58316  0.38080  1.0000
  C   C407      1.0  0.05937  0.57636  0.29142  1.0000
  C   C408      1.0  0.06200  0.61003  0.28408  1.0000
  H   H494      1.0  0.08585  0.62134  0.27495  1.0000
  H   H495      1.0  0.20821  0.31740  0.29903  1.0000
  C   C409      1.0  0.26632  0.50864  0.34172  1.0000
  H   H496      1.0  0.01839  0.44278  0.37160  1.0000
  H   H497      1.0  0.40421  0.49421  0.33427  1.0000
  C   C410      1.0  0.42033  0.32228  0.27384  1.0000
  H   H498      1.0  0.41804  0.33320  0.23043  1.0000
  H   H499      1.0  0.00430  0.58756  0.36206  1.0000
  C   C411      1.0  0.20522  0.54008  0.40204  1.0000
  C   C412      1.0  0.21957  0.50960  0.40402  1.0000
  C   C413      1.0  0.20306  0.48326  0.39788  1.0000
  C   C414      1.0  0.17242  0.48715  0.38875  1.0000
  C   C415      1.0  0.15795  0.51770  0.38625  1.0000
  C   C416      1.0  0.17418  0.54413  0.39326  1.0000
  H   H500      1.0  0.24369  0.50621  0.41026  1.0000
  H   H501      1.0  0.21443  0.45984  0.39980  1.0000
  H   H502      1.0  0.13407  0.52084  0.37943  1.0000
  H   H503      1.0  0.33448  0.46299  0.34775  1.0000
  S   S121      1.0  0.22819  0.57231  0.40932  1.0000
  H   H504      1.0  0.41768  0.31822  0.31772  1.0000
  H   H505      1.0  0.22586  0.49821  0.32226  1.0000
  C   C417      1.0  0.11040  0.34151  0.25730  1.0000
  H   H506      1.0  0.43508  0.41545  0.31568  1.0000
  C   C418      1.0  0.06321  0.56443  0.40254  1.0000
  Fe  Fe59      1.0  0.40856  0.51913  0.45650  1.0000
  C   C419      1.0  0.01533  0.53909  0.37720  1.0000
  C   C420      1.0  0.44586  0.43914  0.30696  1.0000
  S   S122      1.0  0.41781  0.50935  0.41284  1.0000
  C   C421      1.0  0.02841  0.56175  0.30280  1.0000
  C   C422      1.0  0.00017  0.58093  0.30676  1.0000
  H   H507      1.0  0.41681  0.61514  0.33309  1.0000
  H   H508      1.0  0.11673  0.33378  0.32770  1.0000
  H   H509      1.0  0.99699  0.47586  0.28943  1.0000
  H   H510      1.0  0.17657  0.52576  0.24739  1.0000
  H   H511      1.0  0.22101  0.55146  0.25787  1.0000
  C   C423      1.0  0.37085  0.56941  0.33563  1.0000
  C   C424      1.0  0.05770  0.53107  0.40607  1.0000
  C   C425      1.0  0.20812  0.33357  0.27981  1.0000
  C   C426      1.0  0.13243  0.31393  0.33404  1.0000
  H   H512      1.0  0.16302  0.56765  0.39143  1.0000
  H   H513      1.0  0.14553  0.33483  0.36760  1.0000
  C   C427      1.0  0.22565  0.32546  0.25524  1.0000
  H   H514      1.0  0.05433  0.35617  0.40685  1.0000
  C   C428      1.0  0.99052  0.40921  0.35540  1.0000
  H   H515      1.0  0.22848  0.62265  0.24937  1.0000
  H   H516      1.0  0.15689  0.33256  0.23290  1.0000
  H   H517      1.0  0.30932  0.51318  0.36086  1.0000
  H   H518      1.0  0.99664  0.63194  0.38664  1.0000
  C   C429      1.0  0.47374  0.36665  0.36332  1.0000
  C   C430      1.0  0.35603  0.57117  0.31150  1.0000
  H   H519      1.0  0.44545  0.45909  0.44808  1.0000
  C   C431      1.0  0.37610  0.51831  0.30426  1.0000
  H   H520      1.0  0.07492  0.62478  0.41632  1.0000
  C   C432      1.0  0.46364  0.46629  0.42992  1.0000
  S   S123      1.0  0.24713  0.51534  0.21566  1.0000
  C   C433      1.0  0.39086  0.51578  0.32781  1.0000
  N   N30       1.0  0.24603  0.44258  0.30252  1.0000
  C   C434      1.0  0.23783  0.46389  0.27779  1.0000
  C   C435      1.0  0.26539  0.41548  0.29260  1.0000
  C   C436      1.0  0.21487  0.42875  0.31998  1.0000
  C   C437      1.0  0.26386  0.46152  0.31849  1.0000
  C   C438      1.0  0.24988  0.49014  0.32686  1.0000
  C   C439      1.0  0.00305  0.61469  0.29998  1.0000
  H   H521      1.0  0.44910  0.55791  0.29848  1.0000
  H   H522      1.0  0.37777  0.49874  0.29236  1.0000
  C   C440      1.0  0.14590  0.59824  0.22125  1.0000
  H   H523      1.0  0.26036  0.47691  0.26557  1.0000
  H   H524      1.0  0.22728  0.45023  0.26369  1.0000
  H   H525      1.0  0.21923  0.48222  0.28278  1.0000
  H   H526      1.0  0.28907  0.42436  0.27914  1.0000
  H   H527      1.0  0.25148  0.40238  0.28005  1.0000
  H   H528      1.0  0.27112  0.39712  0.30984  1.0000
  H   H529      1.0  0.19953  0.44729  0.32928  1.0000
  H   H530      1.0  0.19916  0.41707  0.30789  1.0000
  H   H531      1.0  0.22014  0.41044  0.33745  1.0000
  N   N31       1.0  0.04919  0.62163  0.38227  1.0000
  C   C441      1.0  0.35375  0.63408  0.25157  1.0000
  H   H532      1.0  0.25505  0.53035  0.34792  1.0000
  N   N32       1.0  0.18624  0.59025  0.25498  1.0000
  C   C442      1.0  0.06900  0.40444  0.40723  1.0000
  C   C443      1.0  0.38834  0.54089  0.34328  1.0000
  H   H533      1.0  0.02638  0.53580  0.30850  1.0000
  H   H534      1.0  0.07176  0.51501  0.41900  1.0000
  Fe  Fe60      1.0  0.20331  0.61647  0.42341  1.0000
  H   H535      1.0  0.41712  0.58805  0.36484  1.0000
  C   C444      1.0  0.01896  0.63585  0.39608  1.0000
  C   C445      1.0  0.05461  0.63494  0.35239  1.0000
  C   C446      1.0  0.16486  0.57716  0.23774  1.0000
  H   H536      1.0  0.18577  0.54770  0.28553  1.0000
  C   C447      1.0  0.20381  0.56502  0.27141  1.0000
  H   H537      1.0  0.28373  0.57616  0.45859  1.0000
  H   H538      1.0  0.02801  0.45630  0.44577  1.0000
  H   H539      1.0  0.99699  0.52914  0.36726  1.0000
  C   C448      1.0  0.21185  0.61247  0.23710  1.0000
  C   C449      1.0  0.29478  0.45211  0.32671  1.0000
  H   H540      1.0  0.40279  0.64474  0.25892  1.0000
  C   C450      1.0  0.02003  0.57246  0.37408  1.0000
  H   H541      1.0  0.12022  0.36164  0.26494  1.0000
  C   C451      1.0  0.99479  0.43065  0.37329  1.0000
  C   C452      1.0  0.47902  0.49698  0.38421  1.0000
  H   H542      1.0  0.30818  0.61735  0.24126  1.0000
  H   H543      1.0  0.99012  0.47629  0.25494  1.0000
  C   C453      1.0  0.29676  0.49891  0.34917  1.0000
  H   H544      1.0  0.13180  0.46099  0.43959  1.0000
  H   H545      1.0  0.40198  0.62769  0.36551  1.0000
  C   C454      1.0  0.03386  0.51846  0.39338  1.0000
  H   H546      1.0  0.17100  0.42070  0.43778  1.0000
  H   H547      1.0  0.40019  0.53779  0.36140  1.0000
  H   H548      1.0  0.14107  0.50675  0.21879  1.0000
  H   H549      1.0  0.44835  0.55153  0.25000  1.0000
  H   H550      1.0  0.03163  0.63391  0.34325  1.0000
  H   H551      1.0  0.21915  0.57562  0.28443  1.0000
  C   C455      1.0  0.01734  0.37881  0.43428  1.0000
  H   H552      1.0  0.34227  0.59184  0.30390  1.0000
  C   C456      1.0  0.07809  0.63204  0.39363  1.0000
  C   C457      1.0  0.07704  0.33225  0.26522  1.0000
  C   C458      1.0  0.35875  0.54592  0.29617  1.0000
  N   N33       1.0  0.36854  0.59557  0.35249  1.0000
  C   C459      1.0  0.03398  0.62921  0.28854  1.0000
  H   H553      1.0  0.14652  0.62389  0.22106  1.0000
  H   H554      1.0  0.34724  0.54785  0.27785  1.0000
  C   C460      1.0  0.16599  0.60843  0.27468  1.0000
  H   H555      1.0  0.42130  0.44348  0.27156  1.0000
  C   C461      1.0  0.45095  0.48596  0.27097  1.0000
  C   C462      1.0  0.04451  0.58617  0.38627  1.0000
  C   C463      1.0  0.21419  0.41213  0.45665  1.0000
  H   H556      1.0  0.02946  0.49266  0.39619  1.0000
  H   H557      1.0  0.08197  0.57252  0.41306  1.0000
  C   C464      1.0  0.38428  0.58502  0.22465  1.0000
  H   H558      1.0  0.14786  0.59228  0.28975  1.0000
  H   H559      1.0  0.10161  0.62195  0.38406  1.0000
  H   H560      1.0  0.18167  0.62056  0.28651  1.0000
  H   H561      1.0  0.15148  0.62769  0.26438  1.0000
  H   H562      1.0  0.47367  0.44145  0.33986  1.0000
  H   H563      1.0  0.20069  0.63343  0.22544  1.0000
  C   C465      1.0  0.03341  0.43434  0.43722  1.0000
  H   H564      1.0  0.34851  0.60240  0.39393  1.0000
  H   H565      1.0  0.33508  0.57382  0.21771  1.0000
  H   H566      1.0  0.44330  0.49693  0.25185  1.0000
  H   H567      1.0  0.36243  0.63520  0.32025  1.0000
  H   H568      1.0  0.32592  0.57361  0.38050  1.0000
  H   H569      1.0  0.34916  0.64344  0.35426  1.0000
  H   H570      1.0  0.03482  0.31866  0.45371  1.0000
  C   C466      1.0  0.99059  0.33386  0.41969  1.0000
  H   H571      1.0  0.11734  0.40372  0.45070  1.0000
  C   C467      1.0  0.18077  0.42009  0.45678  1.0000
  H   H572      1.0  0.32393  0.61773  0.34043  1.0000
  C   C468      1.0  0.47271  0.50184  0.28443  1.0000
  H   H573      1.0  0.47758  0.37993  0.27927  1.0000
  C   C469      1.0  0.46738  0.45383  0.32053  1.0000
  H   H574      1.0  0.01333  0.32178  0.41117  1.0000
  C   C470      1.0  0.14208  0.53232  0.21979  1.0000
  H   H575      1.0  0.09457  0.46996  0.46098  1.0000
  C   C471      1.0  0.12113  0.46355  0.46103  1.0000
  H   H576      1.0  0.22767  0.59978  0.22200  1.0000
  H   H577      1.0  0.98295  0.35147  0.40272  1.0000
  H   H578      1.0  0.99004  0.41051  0.46077  1.0000
  S   S124      1.0  0.10833  0.34416  0.61118  1.0000
  Fe  Fe61      1.0  0.20253  0.35055  0.58158  1.0000
  S   S125      1.0  0.16361  0.36106  0.55465  1.0000
  S   S126      1.0  0.25637  0.35516  0.56155  1.0000
  Fe  Fe62      1.0  0.13903  0.38677  0.58808  1.0000
  S   S127      1.0  0.11937  0.43552  0.57490  1.0000
  C   C472      1.0  0.16030  0.42705  0.48091  1.0000
  C   C473      1.0  0.20915  0.41856  0.50427  1.0000
  S   S128      1.0  0.17960  0.37903  0.61383  1.0000
  H   H579      1.0  0.35044  0.42823  0.58850  1.0000
  S   S129      1.0  0.34708  0.31798  0.51815  1.0000
  H   H580      1.0  0.07930  0.44321  0.50752  1.0000
  Fe  Fe63      1.0  0.41442  0.34431  0.59198  1.0000
  S   S130      1.0  0.43181  0.39106  0.60333  1.0000
  C   C474      1.0  0.03235  0.60266  0.47177  1.0000
  H   H581      1.0  0.22015  0.41754  0.52282  1.0000
  S   S131      1.0  0.33017  0.49015  0.54999  1.0000
  C   C475      1.0  0.45623  0.40354  0.68817  1.0000
  H   H582      1.0  0.25000  0.31656  0.61619  1.0000
  C   C476      1.0  0.41501  0.53517  0.66934  1.0000
  C   C477      1.0  0.44234  0.39372  0.63611  1.0000
  C   C478      1.0  0.42591  0.37497  0.66027  1.0000
  C   C479      1.0  0.43224  0.38046  0.68616  1.0000
  H   H583      1.0  0.29852  0.46118  0.64710  1.0000
  C   C480      1.0  0.25977  0.52829  0.52115  1.0000
  H   H584      1.0  0.40739  0.35712  0.65910  1.0000
  H   H585      1.0  0.16255  0.43237  0.52374  1.0000
  C   C481      1.0  0.27573  0.39358  0.55655  1.0000
  C   C482      1.0  0.26062  0.41836  0.56938  1.0000
  C   C483      1.0  0.27725  0.44818  0.56651  1.0000
  C   C484      1.0  0.30881  0.45372  0.55036  1.0000
  C   C485      1.0  0.32360  0.42931  0.53685  1.0000
  C   C486      1.0  0.30718  0.39920  0.54017  1.0000
  H   H586      1.0  0.23633  0.41447  0.58185  1.0000
  H   H587      1.0  0.26561  0.46700  0.57695  1.0000
  H   H588      1.0  0.34808  0.43324  0.52453  1.0000
  H   H589      1.0  0.31902  0.38015  0.53015  1.0000
  H   H590      1.0  0.43005  0.47231  0.68230  1.0000
  C   C487      1.0  0.99624  0.47482  0.57778  1.0000
  H   H591      1.0  0.13425  0.48444  0.46613  1.0000
  H   H592      1.0  0.24021  0.47977  0.52575  1.0000
  C   C488      1.0  0.04961  0.35413  0.53198  1.0000
  H   H593      1.0  0.19909  0.33570  0.48436  1.0000
  H   H594      1.0  0.05286  0.37933  0.52297  1.0000
  H   H595      1.0  0.10072  0.34833  0.53764  1.0000
  C   C489      1.0  0.09796  0.48459  0.65024  1.0000
  C   C490      1.0  0.10194  0.50306  0.62390  1.0000
  C   C491      1.0  0.10844  0.48792  0.60064  1.0000
  C   C492      1.0  0.11163  0.45444  0.60383  1.0000
  C   C493      1.0  0.10847  0.43606  0.63016  1.0000
  C   C494      1.0  0.10131  0.45113  0.65341  1.0000
  H   H596      1.0  0.09940  0.52899  0.62149  1.0000
  H   H597      1.0  0.11115  0.50213  0.58024  1.0000
  H   H598      1.0  0.11099  0.41015  0.63267  1.0000
  H   H599      1.0  0.09878  0.43688  0.67374  1.0000
  Fe  Fe64      1.0  0.37322  0.50752  0.51611  1.0000
  C   C495      1.0  0.06720  0.54516  0.47487  1.0000
  H   H600      1.0  0.29352  0.56070  0.55270  1.0000
  C   C496      1.0  0.19505  0.31270  0.49795  1.0000
  H   H601      1.0  0.40383  0.54051  0.69000  1.0000
  H   H602      1.0  0.03474  0.58252  0.68237  1.0000
  S   S132      1.0  0.40708  0.54286  0.52802  1.0000
  Fe  Fe65      1.0  0.39845  0.57436  0.48916  1.0000
  C   C497      1.0  0.08433  0.57471  0.47261  1.0000
  H   H603      1.0  0.23332  0.60528  0.51341  1.0000
  H   H604      1.0  0.02958  0.48531  0.63420  1.0000
  C   C498      1.0  0.44891  0.51916  0.61863  1.0000
  C   C499      1.0  0.46509  0.51504  0.64221  1.0000
  Fe  Fe66      1.0  0.15142  0.33306  0.63355  1.0000
  C   C500      1.0  0.10614  0.43852  0.50811  1.0000
  C   C501      1.0  0.34416  0.39952  0.67931  1.0000
  C   C502      1.0  0.07661  0.33667  0.54043  1.0000
  H   H605      1.0  0.11608  0.45966  0.51539  1.0000
  S   S133      1.0  0.18512  0.61830  0.46817  1.0000
  H   H606      1.0  0.26586  0.34473  0.68669  1.0000
  H   H607      1.0  0.47436  0.39207  0.55136  1.0000
  H   H608      1.0  0.98885  0.57285  0.47326  1.0000
  H   H609      1.0  0.04074  0.40857  0.65434  1.0000
  H   H610      1.0  0.08071  0.40948  0.47405  1.0000
  H   H611      1.0  0.04646  0.42051  0.60363  1.0000
  H   H612      1.0  0.44262  0.60451  0.54905  1.0000
  H   H613      1.0  0.31928  0.39827  0.60384  1.0000
  C   C503      1.0  0.28790  0.35991  0.68438  1.0000
  H   H614      1.0  0.00712  0.32758  0.60155  1.0000
  H   H615      1.0  0.24546  0.47991  0.47559  1.0000
  C   C504      1.0  0.47364  0.42122  0.66393  1.0000
  C   C505      1.0  0.46584  0.41717  0.63815  1.0000
  H   H616      1.0  0.32146  0.60264  0.48014  1.0000
  C   C506      1.0  0.36378  0.44802  0.63220  1.0000
  S   S134      1.0  0.36113  0.33094  0.59308  1.0000
  C   C507      1.0  0.01150  0.47898  0.62208  1.0000
  C   C508      1.0  0.01539  0.57322  0.47317  1.0000
  Fe  Fe67      1.0  0.13664  0.31744  0.58002  1.0000
  S   S135      1.0  0.01200  0.50674  0.47821  1.0000
  C   C509      1.0  0.34143  0.41103  0.60773  1.0000
  Fe  Fe68      1.0  0.44864  0.52201  0.50156  1.0000
  H   H617      1.0  0.29097  0.33232  0.61371  1.0000
  C   C510      1.0  0.26559  0.52824  0.46470  1.0000
  H   H618      1.0  0.38639  0.43323  0.63345  1.0000
  N   N34       1.0  0.28201  0.58544  0.51367  1.0000
  S   S136      1.0  0.08791  0.50350  0.67902  1.0000
  S   S137      1.0  0.38316  0.62440  0.49522  1.0000
  C   C511      1.0  0.29716  0.38256  0.66046  1.0000
  C   C512      1.0  0.32542  0.40331  0.65729  1.0000
  C   C513      1.0  0.25150  0.59883  0.52778  1.0000
  C   C514      1.0  0.03325  0.39052  0.64313  1.0000
  H   H619      1.0  0.35982  0.46183  0.64965  1.0000
  S   S138      1.0  0.41575  0.48301  0.49363  1.0000
  H   H620      1.0  0.28356  0.43671  0.62509  1.0000
  H   H621      1.0  0.01872  0.62488  0.47067  1.0000
  C   C515      1.0  0.17579  0.42684  0.50454  1.0000
  C   C516      1.0  0.30516  0.57692  0.53377  1.0000
  S   S139      1.0  0.08729  0.64099  0.46936  1.0000
  H   H622      1.0  0.39733  0.51805  0.66402  1.0000
  H   H623      1.0  0.31440  0.59873  0.54056  1.0000
  H   H624      1.0  0.47850  0.43194  0.61962  1.0000
  N   N35       1.0  0.44861  0.52129  0.66956  1.0000
  C   C517      1.0  0.01803  0.33949  0.53666  1.0000
  C   C518      1.0  0.30590  0.44950  0.62858  1.0000
  C   C519      1.0  0.44490  0.49059  0.68931  1.0000
  H   H625      1.0  0.08074  0.52294  0.47650  1.0000
  N   N36       1.0  0.33417  0.42761  0.63203  1.0000
  C   C520      1.0  0.06685  0.60351  0.47147  1.0000
  C   C521      1.0  0.01133  0.33608  0.64316  1.0000
  H   H626      1.0  0.42367  0.52728  0.61925  1.0000
  C   C522      1.0  0.01393  0.34429  0.61408  1.0000
  H   H627      1.0  0.25684  0.52712  0.54320  1.0000
  C   C523      1.0  0.01942  0.48314  0.59347  1.0000
  S   S140      1.0  0.42974  0.33174  0.54954  1.0000
  H   H628      1.0  0.31221  0.46892  0.61037  1.0000
  H   H629      1.0  0.00352  0.47864  0.55563  1.0000
  C   C524      1.0  0.30668  0.35699  0.70561  1.0000
  H   H630      1.0  0.25703  0.62130  0.53558  1.0000
  C   C525      1.0  0.04971  0.60070  0.68944  1.0000
  H   H631      1.0  0.43234  0.49393  0.71019  1.0000
  C   C526      1.0  0.46518  0.51263  0.59321  1.0000
  C   C527      1.0  0.98027  0.46669  0.63510  1.0000
  H   H632      1.0  0.32730  0.56453  0.52459  1.0000
  H   H633      1.0  0.10721  0.41672  0.52399  1.0000
  C   C528      1.0  0.02068  0.36049  0.65731  1.0000
  S   S141      1.0  0.36290  0.54015  0.47810  1.0000
  H   H634      1.0  0.32291  0.31489  0.65109  1.0000
  H   H635      1.0  0.04376  0.49273  0.58339  1.0000
  C   C529      1.0  0.03613  0.39746  0.61461  1.0000
  H   H636      1.0  0.28182  0.38396  0.64454  1.0000
  C   C530      1.0  0.02601  0.37462  0.60019  1.0000
  C   C531      1.0  0.25008  0.50099  0.51137  1.0000
  C   C532      1.0  0.27284  0.55648  0.50285  1.0000
  C   C533      1.0  0.27505  0.55575  0.47420  1.0000
  H   H637      1.0  0.30622  0.63244  0.50052  1.0000
  C   C534      1.0  0.29855  0.61135  0.49185  1.0000
  H   H638      1.0  0.07490  0.60114  0.67680  1.0000
  H   H639      1.0  0.41593  0.55839  0.65484  1.0000
  H   H640      1.0  0.36126  0.39309  0.61040  1.0000
  H   H641      1.0  0.36616  0.41392  0.67885  1.0000
  H   H642      1.0  0.36965  0.46589  0.61285  1.0000
  S   S142      1.0  0.98382  0.36244  0.52866  1.0000
  H   H643      1.0  0.01818  0.35685  0.67947  1.0000
  C   C535      1.0  0.25307  0.50096  0.48318  1.0000
  H   H644      1.0  0.15226  0.43781  0.69993  1.0000
  H   H645      1.0  0.45255  0.51577  0.57541  1.0000
  H   H646      1.0  0.23878  0.58152  0.54561  1.0000
  H   H647      1.0  0.02798  0.38034  0.57804  1.0000
  C   C536      1.0  0.03271  0.54431  0.47509  1.0000
  N   N37       1.0  0.12456  0.43380  0.48084  1.0000
  H   H648      1.0  0.41840  0.36674  0.70469  1.0000
  H   H649      1.0  0.28164  0.62113  0.47721  1.0000
  H   H650      1.0  0.23714  0.31883  0.51780  1.0000
  C   C537      1.0  0.46028  0.61835  0.53178  1.0000
  H   H651      1.0  0.11223  0.38321  0.48573  1.0000
  H   H652      1.0  0.11093  0.57514  0.47239  1.0000
  C   C538      1.0  0.10809  0.40641  0.47243  1.0000
  C   C539      1.0  0.22824  0.41097  0.48047  1.0000
  H   H653      1.0  0.03799  0.62451  0.68444  1.0000
  H   H654      1.0  0.44952  0.61748  0.51276  1.0000
  C   C540      1.0  0.33472  0.37670  0.70306  1.0000
  H   H655      1.0  0.15384  0.49659  0.69951  1.0000
  H   H656      1.0  0.46921  0.47969  0.69215  1.0000
  C   C541      1.0  0.08783  0.64314  0.71235  1.0000
  H   H657      1.0  0.25400  0.40431  0.48057  1.0000
  C   C542      1.0  0.01044  0.32703  0.46328  1.0000
  Fe  Fe69      1.0  0.37730  0.31285  0.55323  1.0000
  H   H658      1.0  0.45687  0.54970  0.70039  1.0000
  H   H659      1.0  0.01520  0.33853  0.48088  1.0000
  C   C543      1.0  0.46903  0.54431  0.67994  1.0000
  H   H660      1.0  0.45792  0.63870  0.58049  1.0000
  H   H661      1.0  0.29765  0.31628  0.48302  1.0000
  S   S143      1.0  0.14035  0.31411  0.67893  1.0000
  H   H662      1.0  0.44009  0.31918  0.48683  1.0000
  S   S144      1.0  0.44305  0.55705  0.46372  1.0000
  H   H663      1.0  0.47309  0.56752  0.66539  1.0000
  Fe  Fe70      1.0  0.37479  0.42897  0.82422  1.0000
  S   S145      1.0  0.37700  0.42973  0.77883  1.0000
  S   S146      1.0  0.41450  0.40614  0.84705  1.0000
  Fe  Fe71      1.0  0.31284  0.46888  0.82900  1.0000
  S   S147      1.0  0.31006  0.47252  0.78431  1.0000
  S   S148      1.0  0.27576  0.49766  0.85245  1.0000
  Fe  Fe72      1.0  0.32173  0.41970  0.79027  1.0000
  C   C544      1.0  0.20543  0.31625  0.89768  1.0000
  Fe  Fe73      1.0  0.36505  0.48215  0.77798  1.0000
  S   S149      1.0  0.38759  0.52512  0.74740  1.0000
  S   S150      1.0  0.32036  0.41551  0.83588  1.0000
  S   S151      1.0  0.36683  0.48202  0.82250  1.0000
  H   H664      1.0  0.46480  0.54703  0.80879  1.0000
  Fe  Fe74      1.0  0.13115  0.40850  0.92523  1.0000
  C   C545      1.0  0.40139  0.46521  0.89416  1.0000
  S   S152      1.0  0.13347  0.43264  0.88155  1.0000
  H   H665      1.0  0.16096  0.40027  0.74033  1.0000
  C   C546      1.0  0.16301  0.42566  0.74133  1.0000
  S   S153      1.0  0.28974  0.38636  0.77313  1.0000
  S   S154      1.0  0.17076  0.37760  0.94156  1.0000
  S   S155      1.0  0.08889  0.37477  0.94547  1.0000
  H   H666      1.0  0.46584  0.45057  0.86885  1.0000
  H   H667      1.0  0.00387  0.50350  0.93925  1.0000
  H   H668      1.0  0.14830  0.40071  0.83200  1.0000
  Fe  Fe75      1.0  0.02999  0.47657  0.77267  1.0000
  S   S156      1.0  0.04161  0.41866  0.71706  1.0000
  S   S157      1.0  0.02930  0.51193  0.80333  1.0000
  Fe  Fe76      1.0  0.05602  0.41152  0.75929  1.0000
  H   H669      1.0  0.24363  0.53394  0.89206  1.0000
  C   C547      1.0  0.37631  0.35125  0.85470  1.0000
  H   H670      1.0  0.29932  0.33967  0.72428  1.0000
  C   C548      1.0  0.28086  0.58905  0.82281  1.0000
  C   C549      1.0  0.33139  0.62196  0.81058  1.0000
  H   H671      1.0  0.02477  0.45312  0.94047  1.0000
  H   H672      1.0  0.32354  0.57227  0.78107  1.0000
  H   H673      1.0  0.16253  0.34535  0.89185  1.0000
  H   H674      1.0  0.22742  0.42597  0.78343  1.0000
  C   C550      1.0  0.40132  0.36739  0.86365  1.0000
  C   C551      1.0  0.41538  0.35277  0.88625  1.0000
  C   C552      1.0  0.04454  0.31780  0.77148  1.0000
  H   H675      1.0  0.43516  0.36497  0.89292  1.0000
  C   C553      1.0  0.39760  0.43715  0.91383  1.0000
  C   C554      1.0  0.23663  0.47887  0.85746  1.0000
  C   C555      1.0  0.20860  0.49739  0.85365  1.0000
  C   C556      1.0  0.17687  0.48278  0.85975  1.0000
  C   C557      1.0  0.17318  0.44991  0.87057  1.0000
  C   C558      1.0  0.20122  0.43129  0.87397  1.0000
  C   C559      1.0  0.23303  0.44567  0.86694  1.0000
  H   H676      1.0  0.15518  0.49723  0.85703  1.0000
  H   H677      1.0  0.19840  0.40580  0.88214  1.0000
  H   H678      1.0  0.25464  0.43135  0.87009  1.0000
  C   C560      1.0  0.09632  0.53082  0.79243  1.0000
  H   H679      1.0  0.09949  0.51510  0.77715  1.0000
  C   C561      1.0  0.26090  0.32572  0.78183  1.0000
  C   C562      1.0  0.98579  0.49987  0.87536  1.0000
  C   C563      1.0  0.16439  0.49224  0.74089  1.0000
  C   C564      1.0  0.33021  0.56537  0.80200  1.0000
  H   H680      1.0  0.27316  0.59957  0.80284  1.0000
  C   C565      1.0  0.25274  0.51375  0.94338  1.0000
  S   S158      1.0  0.15520  0.59474  0.81724  1.0000
  H   H681      1.0  0.36918  0.37829  0.93645  1.0000
  C   C566      1.0  0.40335  0.32254  0.90059  1.0000
  C   C567      1.0  0.27008  0.63623  0.91450  1.0000
  H   H682      1.0  0.04747  0.63424  0.83674  1.0000
  H   H683      1.0  0.37952  0.33979  0.76440  1.0000
  C   C568      1.0  0.01636  0.58965  0.73417  1.0000
  C   C569      1.0  0.19640  0.53070  0.95496  1.0000
  H   H684      1.0  0.15268  0.32329  0.85076  1.0000
  C   C570      1.0  0.47153  0.53766  0.91687  1.0000
  H   H685      1.0  0.01462  0.58020  0.75653  1.0000
  H   H686      1.0  0.35769  0.56296  0.80003  1.0000
  H   H687      1.0  0.26348  0.64218  0.89416  1.0000
  H   H688      1.0  0.31789  0.55111  0.85552  1.0000
  C   C571      1.0  0.41436  0.54954  0.76029  1.0000
  C   C572      1.0  0.43117  0.53691  0.78186  1.0000
  C   C573      1.0  0.45149  0.55712  0.79241  1.0000
  C   C574      1.0  0.45480  0.59015  0.78171  1.0000
  C   C575      1.0  0.43808  0.60268  0.76003  1.0000
  C   C576      1.0  0.41840  0.58235  0.74905  1.0000
  H   H689      1.0  0.42906  0.51143  0.79013  1.0000
  H   H690      1.0  0.19852  0.46999  0.94880  1.0000
  H   H691      1.0  0.31934  0.54072  0.80993  1.0000
  H   H692      1.0  0.21132  0.52306  0.84611  1.0000
  C   C577      1.0  0.12020  0.57050  0.81526  1.0000
  C   C578      1.0  0.08919  0.57220  0.83180  1.0000
  C   C579      1.0  0.06179  0.55368  0.82828  1.0000
  C   C580      1.0  0.06505  0.53320  0.80830  1.0000
  C   C581      1.0  0.12358  0.54942  0.79583  1.0000
  H   H693      1.0  0.08635  0.58793  0.84713  1.0000
  H   H694      1.0  0.03791  0.55532  0.84099  1.0000
  H   H695      1.0  0.14744  0.54780  0.78305  1.0000
  C   C582      1.0  0.24516  0.62749  0.93734  1.0000
  H   H696      1.0  0.46372  0.54404  0.93715  1.0000
  H   H697      1.0  0.02348  0.44510  0.86704  1.0000
  H   H698      1.0  0.15472  0.37083  0.78264  1.0000
  C   C583      1.0  0.16959  0.43712  0.76532  1.0000
  S   S159      1.0  0.00709  0.42631  0.78080  1.0000
  C   C584      1.0  0.31229  0.62797  0.94439  1.0000
  H   H699      1.0  0.33014  0.34458  0.80638  1.0000
  H   H700      1.0  0.05900  0.50178  0.92094  1.0000
  H   H701      1.0  0.20790  0.32558  0.91621  1.0000
  H   H702      1.0  0.39020  0.36091  0.79017  1.0000
  H   H703      1.0  0.39877  0.41445  0.90625  1.0000
  S   S160      1.0  0.08269  0.36871  0.77849  1.0000
  H   H704      1.0  0.19984  0.54135  0.89829  1.0000
  H   H705      1.0  0.05091  0.42992  0.91940  1.0000
  S   S161      1.0  0.07953  0.46067  0.75418  1.0000
  H   H706      1.0  0.20510  0.55444  0.95874  1.0000
  C   C585      1.0  0.17818  0.38089  0.78704  1.0000
  C   C586      1.0  0.47454  0.32721  0.73396  1.0000
  H   H707      1.0  0.39698  0.52102  0.93632  1.0000
  H   H708      1.0  0.05072  0.32656  0.74959  1.0000
  H   H709      1.0  0.17150  0.53450  0.94863  1.0000
  H   H710      1.0  0.00004  0.60083  0.82620  1.0000
  H   H711      1.0  0.08611  0.47972  0.89933  1.0000
  H   H712      1.0  0.20354  0.44865  0.80722  1.0000
  H   H713      1.0  0.32297  0.64236  0.90037  1.0000
  H   H714      1.0  0.05440  0.54245  0.71508  1.0000
  H   H715      1.0  0.36569  0.36231  0.83708  1.0000
  N   N38       1.0  0.03408  0.47371  0.89707  1.0000
  N   N39       1.0  0.22012  0.51774  0.93382  1.0000
  C   C587      1.0  0.28664  0.34478  0.78709  1.0000
  H   H716      1.0  0.06503  0.55082  0.74640  1.0000
  C   C588      1.0  0.20550  0.42486  0.80015  1.0000
  H   H717      1.0  0.06615  0.44574  0.87120  1.0000
  H   H718      1.0  0.44287  0.35514  0.80596  1.0000
  C   C589      1.0  0.06677  0.56061  0.72415  1.0000
  H   H719      1.0  0.14308  0.44195  0.81791  1.0000
  C   C590      1.0  0.36506  0.32059  0.86848  1.0000
  C   C591      1.0  0.22305  0.54072  0.90747  1.0000
  N   N40       1.0  0.17476  0.41524  0.79070  1.0000
  Fe  Fe77      1.0  0.99351  0.43604  0.73788  1.0000
  C   C592      1.0  0.14591  0.41726  0.81259  1.0000
  C   C593      1.0  0.07271  0.61260  0.75823  1.0000
  C   C594      1.0  0.45352  0.34762  0.78597  1.0000
  H   H720      1.0  0.35400  0.57736  0.84720  1.0000
  H   H721      1.0  0.12226  0.41073  0.80605  1.0000
  S   S162      1.0  0.13656  0.62741  0.88857  1.0000
  H   H722      1.0  0.17286  0.48156  0.78235  1.0000
  H   H723      1.0  0.42776  0.38384  0.94176  1.0000
  S   S163      1.0  0.01052  0.48801  0.73247  1.0000
  C   C595      1.0  0.17930  0.32768  0.88392  1.0000
  N   N41       1.0  0.31764  0.58877  0.82046  1.0000
  C   C596      1.0  0.05678  0.33428  0.79016  1.0000
  H   H724      1.0  0.18382  0.36527  0.80595  1.0000
  S   S164      1.0  0.12634  0.43919  0.95833  1.0000
  C   C597      1.0  0.17373  0.31535  0.86073  1.0000
  H   H725      1.0  0.00105  0.57259  0.72615  1.0000
  C   C598      1.0  0.31027  0.33017  0.80224  1.0000
  H   H726      1.0  0.22748  0.56603  0.91002  1.0000
  C   C599      1.0  0.20586  0.48698  0.92921  1.0000
  H   H727      1.0  0.00696  0.43074  0.91850  1.0000
  N   N42       1.0  0.99487  0.64082  0.84894  1.0000
  C   C600      1.0  0.40046  0.35189  0.77085  1.0000
  H   H728      1.0  0.06685  0.51529  0.88431  1.0000
  C   C601      1.0  0.32654  0.57659  0.84796  1.0000
  C   C602      1.0  0.04354  0.46075  0.87094  1.0000
  C   C603      1.0  0.35405  0.63049  0.78557  1.0000
  H   H729      1.0  0.46238  0.37035  0.77193  1.0000
  H   H730      1.0  0.21135  0.40747  0.81804  1.0000
  H   H731      1.0  0.30460  0.64245  0.84516  1.0000
  H   H732      1.0  0.40543  0.59233  0.73239  1.0000
  S   S165      1.0  0.46148  0.41186  0.72112  1.0000
  H   H733      1.0  0.05918  0.33475  0.83291  1.0000
  C   C604      1.0  0.30363  0.63631  0.91804  1.0000
  Fe  Fe78      1.0  0.15915  0.63346  0.84401  1.0000
  H   H734      1.0  0.26253  0.32497  0.91870  1.0000
  H   H735      1.0  0.24277  0.33674  0.76983  1.0000
  H   H736      1.0  0.26967  0.56426  0.82883  1.0000
  C   C605      1.0  0.46967  0.56034  0.89349  1.0000
  H   H737      1.0  0.31513  0.59071  0.86396  1.0000
  N   N43       1.0  0.05113  0.59251  0.71937  1.0000
  H   H738      1.0  0.26897  0.60319  0.83859  1.0000
  N   N44       1.0  0.42857  0.33008  0.77481  1.0000
  H   H739      1.0  0.00407  0.61342  0.73210  1.0000
  C   C606      1.0  0.40101  0.49533  0.90231  1.0000
  C   C607      1.0  0.27274  0.54112  0.94388  1.0000
  C   C608      1.0  0.39697  0.49749  0.93019  1.0000
  C   C609      1.0  0.36168  0.38714  0.95630  1.0000
  H   H740      1.0  0.44931  0.61634  0.95367  1.0000
  H   H741      1.0  0.16415  0.51805  0.74085  1.0000
  C   C610      1.0  0.06263  0.49354  0.90061  1.0000
  H   H742      1.0  0.36259  0.61324  0.77230  1.0000
  H   H743      1.0  0.46038  0.58421  0.89554  1.0000
  H   H744      1.0  0.40459  0.46355  0.87242  1.0000
  H   H745      1.0  0.43970  0.62814  0.75202  1.0000
  C   C611      1.0  0.02887  0.44576  0.91981  1.0000
  C   C612      1.0  0.00381  0.49352  0.89776  1.0000
  H   H746      1.0  0.06040  0.59260  0.77264  1.0000
  H   H747      1.0  0.19887  0.37805  0.77011  1.0000
  C   C613      1.0  0.16955  0.47110  0.76451  1.0000
  H   H748      1.0  0.98584  0.35800  0.78667  1.0000
  H   H749      1.0  0.26499  0.56515  0.93690  1.0000
  C   C614      1.0  0.15866  0.48023  0.71758  1.0000
  S   S166      1.0  0.20337  0.62328  0.93355  1.0000
  H   H750      1.0  0.40852  0.37320  0.75478  1.0000
  H   H751      1.0  0.40413  0.51703  0.88698  1.0000
  C   C615      1.0  0.44181  0.31930  0.74836  1.0000
  S   S167      1.0  0.35448  0.62799  0.94825  1.0000
  H   H752      1.0  0.18287  0.49071  0.91979  1.0000
  C   C616      1.0  0.04935  0.32242  0.81838  1.0000
  C   C617      1.0  0.39222  0.43844  0.94250  1.0000
  H   H753      1.0  0.03295  0.62232  0.87273  1.0000
  H   H754      1.0  0.34889  0.37462  0.71989  1.0000
  C   C618      1.0  0.39287  0.46959  0.95013  1.0000
  H   H755      1.0  0.04964  0.48047  0.85305  1.0000
  C   C619      1.0  0.02959  0.64030  0.85446  1.0000
  C   C620      1.0  0.26454  0.48315  0.95418  1.0000
  C   C621      1.0  0.07020  0.61642  0.72982  1.0000
  H   H756      1.0  0.25090  0.46096  0.95516  1.0000
  C   C622      1.0  0.45822  0.63935  0.94148  1.0000
  H   H757      1.0  0.22392  0.47481  0.91520  1.0000
  C   C623      1.0  0.99162  0.50745  0.92142  1.0000
  H   H758      1.0  0.28558  0.32241  0.88517  1.0000
  H   H759      1.0  0.33761  0.39973  0.95569  1.0000
  H   H760      1.0  0.99295  0.49030  0.85649  1.0000
  H   H761      1.0  0.47618  0.43928  0.91969  1.0000
  C   C624      1.0  0.15784  0.44704  0.71783  1.0000
  C   C625      1.0  0.30278  0.53811  0.95408  1.0000
  H   H762      1.0  0.09388  0.63029  0.79011  1.0000
  C   C626      1.0  0.09170  0.63406  0.76846  1.0000
  H   H763      1.0  0.31755  0.55940  0.95444  1.0000
  H   H764      1.0  0.47533  0.33237  0.78953  1.0000
  Fe  Fe79      1.0  0.05962  0.46982  0.71453  1.0000
  H   H765      1.0  0.98857  0.58917  0.86253  1.0000
  C   C627      1.0  0.98514  0.60810  0.84496  1.0000
  H   H766      1.0  0.98371  0.60958  0.90261  1.0000
  H   H767      1.0  0.09349  0.56182  0.71464  1.0000
  H   H768      1.0  0.47936  0.57029  0.84923  1.0000
  C   C628      1.0  0.41906  0.39090  0.96223  1.0000
  C   C629      1.0  0.26551  0.74432  0.08587  1.0000
  H   H769      1.0  0.20100  0.75237  0.08006  1.0000
  Fe  Fe80      1.0  0.34385  0.71226  0.01147  1.0000
  S   S168      1.0  0.34460  0.73568  0.04857  1.0000
  H   H770      1.0  0.21729  0.71780  0.06602  1.0000
  S   S169      1.0  0.39002  0.79292  0.00808  1.0000
  Fe  Fe81      1.0  0.39891  0.74436  0.03188  1.0000
  S   S170      1.0  0.44022  0.74074  0.05746  1.0000
  Fe  Fe82      1.0  0.33542  0.78163  0.02153  1.0000
  S   S171      1.0  0.30040  0.82028  0.03483  1.0000
  S   S172      1.0  0.39872  0.71784  0.99642  1.0000
  H   H771      1.0  0.27833  0.68661  0.07209  1.0000
  H   H772      1.0  0.00685  0.67787  0.13180  1.0000
  S   S173      1.0  0.08038  0.67702  0.16996  1.0000
  C   C630      1.0  0.46447  0.70572  0.05983  1.0000
  Fe  Fe83      1.0  0.29202  0.72126  0.18852  1.0000
  H   H773      1.0  0.98726  0.74063  0.97478  1.0000
  S   S174      1.0  0.31748  0.72226  0.14466  1.0000
  C   C631      1.0  0.98587  0.65997  0.13855  1.0000
  C   C632      1.0  0.20923  0.72718  0.08560  1.0000
  H   H774      1.0  0.97959  0.84893  0.00914  1.0000
  H   H775      1.0  0.15140  0.68939  0.15972  1.0000
  H   H776      1.0  0.31128  0.80135  0.10089  1.0000
  H   H777      1.0  0.21794  0.72066  0.99924  1.0000
  H   H778      1.0  0.44105  0.97522  0.11615  1.0000
  C   C633      1.0  0.26606  0.67467  0.09194  1.0000
  C   C634      1.0  0.99988  0.71778  0.97663  1.0000
  H   H779      1.0  0.10100  0.73304  0.97208  1.0000
  C   C635      1.0  0.14265  0.68756  0.18157  1.0000
  C   C636      1.0  0.10887  0.68120  0.19186  1.0000
  H   H780      1.0  0.09702  0.78179  0.18711  1.0000
  H   H781      1.0  0.45834  0.64710  0.11920  1.0000
  C   C637      1.0  0.24309  0.89806  0.12394  1.0000
  H   H782      1.0  0.39947  0.88472  0.03268  1.0000
  H   H783      1.0  0.31077  0.81305  0.17442  1.0000
  H   H784      1.0  0.31382  0.93591  0.01296  1.0000
  C   C638      1.0  0.33167  0.68631  0.13264  1.0000
  C   C639      1.0  0.35257  0.68884  0.10717  1.0000
  Fe  Fe84      1.0  0.13874  0.65619  0.07619  1.0000
  S   S175      1.0  0.08989  0.67571  0.09266  1.0000
  H   H785      1.0  0.99121  0.89970  0.97874  1.0000
  H   H786      1.0  0.99253  0.82494  0.98338  1.0000
  H   H787      1.0  0.36235  0.71227  0.09707  1.0000
  H   H788      1.0  0.37405  0.83335  0.13600  1.0000
  C   C640      1.0  0.99593  0.94486  0.01673  1.0000
  H   H789      1.0  0.44118  0.85594  0.01180  1.0000
  H   H790      1.0  0.34396  0.90347  0.04661  1.0000
  S   S176      1.0  0.14678  0.80436  0.02972  1.0000
  H   H791      1.0  0.24913  0.89314  0.08127  1.0000
  C   C641      1.0  0.41443  0.69436  0.19531  1.0000
  C   C642      1.0  0.22816  0.69944  0.00994  1.0000
  H   H792      1.0  0.12593  0.71287  0.99575  1.0000
  C   C643      1.0  0.45443  0.87898  0.00176  1.0000
  H   H793      1.0  0.03269  0.69413  0.07271  1.0000
  H   H794      1.0  0.37932  0.97830  0.03959  1.0000
  C   C644      1.0  0.18967  0.81011  0.02950  1.0000
  C   C645      1.0  0.20248  0.83891  0.03475  1.0000
  C   C646      1.0  0.23654  0.84185  0.03618  1.0000
  C   C647      1.0  0.25804  0.81625  0.03198  1.0000
  C   C648      1.0  0.24532  0.78778  0.02607  1.0000
  C   C649      1.0  0.21118  0.78464  0.02528  1.0000
  H   H795      1.0  0.18597  0.85861  0.03829  1.0000
  H   H796      1.0  0.24621  0.86401  0.04060  1.0000
  H   H797      1.0  0.26159  0.76795  0.02247  1.0000
  H   H798      1.0  0.20108  0.76224  0.02177  1.0000
  H   H799      1.0  0.42038  0.68958  0.11413  1.0000
  H   H800      1.0  0.27842  0.71228  0.99118  1.0000
  H   H801      1.0  0.44256  0.71672  0.12933  1.0000
  H   H802      1.0  0.99172  0.85395  0.07095  1.0000
  C   C650      1.0  0.03284  0.71651  0.98132  1.0000
  H   H803      1.0  0.39955  0.70653  0.14254  1.0000
  H   H804      1.0  0.27181  0.73813  0.06489  1.0000
  C   C651      1.0  0.99865  0.66017  0.97801  1.0000
  C   C652      1.0  0.42373  0.69665  0.13414  1.0000
  H   H805      1.0  0.08611  0.72668  0.00884  1.0000
  H   H806      1.0  0.17627  0.86311  0.15594  1.0000
  S   S177      1.0  0.16617  0.68801  0.03914  1.0000
  S   S178      1.0  0.11286  0.89403  0.01489  1.0000
  S   S179      1.0  0.37061  0.95646  0.20627  1.0000
  N   N45       1.0  0.43782  0.89608  0.97927  1.0000
  H   H807      1.0  0.34289  0.83234  0.08705  1.0000
  H   H808      1.0  0.29321  0.85440  0.08374  1.0000
  S   S180      1.0  0.06450  0.83776  0.00325  1.0000
  S   S181      1.0  0.22219  0.95472  0.19532  1.0000
  C   C653      1.0  0.04970  0.68671  0.98460  1.0000
  Fe  Fe85      1.0  0.06060  0.89052  0.00626  1.0000
  H   H809      1.0  0.26106  0.77071  0.08251  1.0000
  H   H810      1.0  0.34694  0.85993  0.15333  1.0000
  C   C654      1.0  0.47178  0.67761  0.18796  1.0000
  N   N46       1.0  0.08454  0.68424  0.98970  1.0000
  H   H811      1.0  0.18704  0.71239  0.09660  1.0000
  S   S182      1.0  0.30984  0.90711  0.20079  1.0000
  C   C655      1.0  0.26241  0.69469  0.00530  1.0000
  Fe  Fe86      1.0  0.10042  0.65312  0.13390  1.0000
  C   C656      1.0  0.44038  0.68020  0.17880  1.0000
  H   H812      1.0  0.03268  0.95585  0.98034  1.0000
  H   H813      1.0  0.22366  0.91570  0.12240  1.0000
  C   C657      1.0  0.40346  0.90581  0.98886  1.0000
  C   C658      1.0  0.45845  0.92517  0.96607  1.0000
  H   H814      1.0  0.28211  0.85429  0.97367  1.0000
  H   H815      1.0  0.07078  0.67189  0.03357  1.0000
  C   C659      1.0  0.38494  0.92382  0.97001  1.0000
  H   H816      1.0  0.35908  0.86900  0.11682  1.0000
  C   C660      1.0  0.20737  0.67756  0.02932  1.0000
  H   H817      1.0  0.43157  0.67613  0.04404  1.0000
  Fe  Fe87      1.0  0.38500  0.76533  0.97411  1.0000
  C   C661      1.0  0.01063  0.69137  0.06399  1.0000
  C   C662      1.0  0.45446  0.67704  0.05228  1.0000
  C   C663      1.0  0.33010  0.97548  0.06348  1.0000
  H   H818      1.0  0.00537  0.68121  0.17835  1.0000
  H   H819      1.0  0.00202  0.74251  0.05715  1.0000
  Fe  Fe88      1.0  0.27695  0.95086  0.20015  1.0000
  H   H820      1.0  0.98445  0.64725  0.12084  1.0000
  H   H821      1.0  0.29124  0.79094  0.15294  1.0000
  C   C664      1.0  0.16476  0.69215  0.19961  1.0000
  C   C665      1.0  0.09989  0.71566  0.99157  1.0000
  H   H822      1.0  0.33951  0.94830  0.96378  1.0000
  H   H823      1.0  0.13204  0.66997  0.96944  1.0000
  H   H824      1.0  0.31028  0.93870  0.13010  1.0000
  C   C666      1.0  0.10956  0.76839  0.20363  1.0000
  H   H825      1.0  0.33441  0.78617  0.15561  1.0000
  C   C667      1.0  0.99956  0.66067  0.06155  1.0000
  H   H826      1.0  0.35249  0.79656  0.10859  1.0000
  C   C668      1.0  0.38758  0.89836  0.01679  1.0000
  C   C669      1.0  0.46387  0.65503  0.13830  1.0000
  C   C670      1.0  0.35548  0.90891  0.02516  1.0000
  C   C671      1.0  0.33835  0.92713  0.00619  1.0000
  S   S183      1.0  0.24847  0.75192  0.20170  1.0000
  S   S184      1.0  0.01479  0.90931  0.03057  1.0000
  H   H827      1.0  0.28399  0.96709  0.09162  1.0000
  Fe  Fe89      1.0  0.34705  0.94141  0.17272  1.0000
  H   H828      1.0  0.25191  0.96879  0.13705  1.0000
  C   C672      1.0  0.20763  0.97492  0.16540  1.0000
  S   S185      1.0  0.37925  0.92921  0.13508  1.0000
  C   C673      1.0  0.36135  0.66140  0.09496  1.0000
  H   H829      1.0  0.38981  0.69692  0.18983  1.0000
  H   H830      1.0  0.25710  0.82043  0.97303  1.0000
  H   H831      1.0  0.11180  0.66000  0.02044  1.0000
  H   H832      1.0  0.30670  0.65309  0.16730  1.0000
  N   N47       1.0  0.23625  0.72545  0.10233  1.0000
  C   C674      1.0  0.22507  0.74136  0.12671  1.0000
  C   C675      1.0  0.24432  0.69108  0.11012  1.0000
  H   H833      1.0  0.19084  0.69729  0.19197  1.0000
  C   C676      1.0  0.22883  0.67232  0.13519  1.0000
  C   C677      1.0  0.36424  0.96961  0.05933  1.0000
  C   C678      1.0  0.03156  0.65861  0.98268  1.0000
  S   S186      1.0  0.31883  0.66387  0.01667  1.0000
  H   H834      1.0  0.24308  0.73727  0.14147  1.0000
  H   H835      1.0  0.22273  0.76790  0.12082  1.0000
  H   H836      1.0  0.19992  0.73272  0.13754  1.0000
  H   H837      1.0  0.28779  0.74012  0.09617  1.0000
  H   H838      1.0  0.28734  0.85996  0.17084  1.0000
  H   H839      1.0  0.24339  0.89892  0.16690  1.0000
  H   H840      1.0  0.21114  0.68229  0.14975  1.0000
  N   N48       1.0  0.43425  0.66908  0.15328  1.0000
  Fe  Fe90      1.0  0.11859  0.84321  0.00668  1.0000
  N   N49       1.0  0.32282  0.83032  0.13028  1.0000
  C   C679      1.0  0.35199  0.84884  0.13428  1.0000
  C   C680      1.0  0.31430  0.80417  0.15433  1.0000
  C   C681      1.0  0.33268  0.81460  0.10560  1.0000
  C   C682      1.0  0.29465  0.85252  0.12791  1.0000
  C   C683      1.0  0.27938  0.86607  0.15102  1.0000
  C   C684      1.0  0.28294  0.86292  0.10258  1.0000
  C   C685      1.0  0.25407  0.88848  0.14899  1.0000
  C   C686      1.0  0.25746  0.88529  0.10081  1.0000
  H   H841      1.0  0.22928  0.88442  0.98209  1.0000
  S   S187      1.0  0.32993  0.75756  0.98566  1.0000
  C   C687      1.0  0.08590  0.66246  0.01605  1.0000
  H   H842      1.0  0.37648  0.66394  0.07477  1.0000
  H   H843      1.0  0.07333  0.96515  0.01147  1.0000
  C   C688      1.0  0.32536  0.94720  0.11035  1.0000
  C   C689      1.0  0.47372  0.64915  0.05612  1.0000
  C   C690      1.0  0.37910  0.95327  0.08091  1.0000
  Fe  Fe91      1.0  0.12643  0.90671  0.96908  1.0000
  H   H844      1.0  0.45629  0.89440  0.01766  1.0000
  C   C691      1.0  0.35983  0.94334  0.10676  1.0000
  H   H845      1.0  0.40572  0.94994  0.07796  1.0000
  H   H846      1.0  0.20450  0.85087  0.97803  1.0000
  C   C692      1.0  0.99302  0.71894  0.05520  1.0000
  C   C693      1.0  0.27574  0.66727  0.01899  1.0000
  C   C694      1.0  0.35296  0.93436  0.97863  1.0000
  H   H847      1.0  0.38353  0.65290  0.16992  1.0000
  C   C695      1.0  0.16945  0.87731  0.19585  1.0000
  C   C696      1.0  0.01059  0.96384  0.99212  1.0000
  C   C697      1.0  0.31044  0.96303  0.08858  1.0000
  C   C698      1.0  0.98256  0.69327  0.18452  1.0000
  H   H848      1.0  0.04440  0.73921  0.98242  1.0000
  C   C699      1.0  0.10528  0.67074  0.96708  1.0000
  C   C700      1.0  0.98283  0.68970  0.97498  1.0000
  H   H849      1.0  0.18332  0.89985  0.18876  1.0000
  H   H850      1.0  0.14519  0.81256  0.17124  1.0000
  H   H851      1.0  0.45661  0.94357  0.97996  1.0000
  C   C701      1.0  0.22033  0.64922  0.04207  1.0000
  H   H852      1.0  0.13410  0.76001  0.19432  1.0000
  C   C702      1.0  0.22709  0.97828  0.13925  1.0000
  C   C703      1.0  0.16537  0.85656  0.17744  1.0000
  C   C704      1.0  0.32228  0.65562  0.14737  1.0000
  H   H853      1.0  0.42178  0.85228  0.96784  1.0000
  C   C705      1.0  0.14732  0.82749  0.18658  1.0000
  H   H854      1.0  0.47633  0.94196  0.04477  1.0000
  C   C706      1.0  0.21946  0.87233  0.96667  1.0000
  H   H855      1.0  0.36034  0.82131  0.96278  1.0000
  H   H856      1.0  0.11296  0.97185  0.99102  1.0000
  C   C707      1.0  0.98196  0.70960  0.20693  1.0000
  H   H857      1.0  0.09763  0.64563  0.96624  1.0000
  H   H858      1.0  0.09407  0.74622  0.21229  1.0000
  C   C708      1.0  0.47666  0.68869  0.21204  1.0000
  Fe  Fe92      1.0  0.33147  0.92471  0.23488  1.0000
  S   S188      1.0  0.35055  0.89919  0.27337  1.0000
  H   H859      1.0  0.45589  0.84605  0.24467  1.0000
  S   S189      1.0  0.25959  0.72317  0.26555  1.0000
  C   C709      1.0  0.29764  0.73049  0.39660  1.0000
  Fe  Fe93      1.0  0.30151  0.69522  0.24647  1.0000
  C   C710      1.0  0.01524  0.74193  0.43116  1.0000
  C   C711      1.0  0.34546  0.75455  0.35127  1.0000
  C   C712      1.0  0.08112  0.96518  0.43298  1.0000
  S   S190      1.0  0.33504  0.66340  0.27023  1.0000
  H   H860      1.0  0.12728  0.83493  0.25454  1.0000
  Fe  Fe94      1.0  0.17156  0.94438  0.31950  1.0000
  S   S191      1.0  0.17990  0.69313  0.25113  1.0000
  C   C713      1.0  0.13746  0.84020  0.23286  1.0000
  Fe  Fe95      1.0  0.18746  0.68676  0.40618  1.0000
  S   S192      1.0  0.19145  0.72821  0.37091  1.0000
  H   H861      1.0  0.30796  0.83126  0.43196  1.0000
  C   C714      1.0  0.34855  0.97085  0.30299  1.0000
  C   C715      1.0  0.35508  0.74092  0.37626  1.0000
  S   S193      1.0  0.17154  0.89875  0.29985  1.0000
  C   C716      1.0  0.42006  0.84157  0.39210  1.0000
  H   H862      1.0  0.04962  0.74709  0.39315  1.0000
  C   C717      1.0  0.46517  0.97603  0.26524  1.0000
  H   H863      1.0  0.15948  0.88509  0.23784  1.0000
  C   C718      1.0  0.42592  0.89203  0.42130  1.0000
  S   S194      1.0  0.00277  0.70208  0.34512  1.0000
  C   C719      1.0  0.36320  0.79781  0.42171  1.0000
  C   C720      1.0  0.41963  0.70539  0.21932  1.0000
  S   S195      1.0  0.43667  0.74707  0.40862  1.0000
  Fe  Fe96      1.0  0.01842  0.74782  0.31633  1.0000
  S   S196      1.0  0.06962  0.77082  0.30949  1.0000
  S   S197      1.0  0.43524  0.70655  0.34493  1.0000
  S   S198      1.0  0.99557  0.73344  0.28167  1.0000
  Fe  Fe97      1.0  0.23248  0.70847  0.23375  1.0000
  H   H864      1.0  0.10908  0.79312  0.37612  1.0000
  Fe  Fe98      1.0  0.45623  0.74368  0.30863  1.0000
  C   C721      1.0  0.42794  0.68132  0.42520  1.0000
  C   C722      1.0  0.40025  0.71570  0.45602  1.0000
  H   H865      1.0  0.17044  0.94650  0.24635  1.0000
  Fe  Fe99      1.0  0.14254  0.64588  0.45275  1.0000
  C   C723      1.0  0.39144  0.85000  0.40969  1.0000
  H   H866      1.0  0.33881  0.71818  0.41821  1.0000
  C   C724      1.0  0.07891  0.79578  0.23783  1.0000
  H   H867      1.0  0.47183  0.85159  0.37523  1.0000
  C   C725      1.0  0.45338  0.88324  0.40375  1.0000
  C   C726      1.0  0.11930  0.68314  0.23799  1.0000
  N   N50       1.0  0.11298  0.78819  0.22520  1.0000
  H   H868      1.0  0.11022  0.68105  0.25986  1.0000
  H   H869      1.0  0.24405  0.90968  0.28343  1.0000
  H   H870      1.0  0.13079  0.78019  0.26426  1.0000
  H   H871      1.0  0.99678  0.91870  0.44779  1.0000
  Fe  Fe100     1.0  0.15138  0.96115  0.37747  1.0000
  C   C727      1.0  0.15662  0.73811  0.35455  1.0000
  C   C728      1.0  0.12664  0.72014  0.36163  1.0000
  C   C729      1.0  0.09930  0.72965  0.34816  1.0000
  C   C730      1.0  0.10201  0.75730  0.32786  1.0000
  C   C731      1.0  0.13169  0.77543  0.32154  1.0000
  C   C732      1.0  0.15894  0.76571  0.33444  1.0000
  H   H872      1.0  0.12475  0.69896  0.37733  1.0000
  H   H873      1.0  0.07630  0.71575  0.35340  1.0000
  H   H874      1.0  0.13363  0.79721  0.30652  1.0000
  H   H875      1.0  0.18186  0.77987  0.32892  1.0000
  H   H876      1.0  0.07888  0.80863  0.25562  1.0000
  Fe  Fe101     1.0  0.46288  0.73476  0.36876  1.0000
  C   C733      1.0  0.45068  0.70261  0.22764  1.0000
  H   H877      1.0  0.15495  0.76180  0.23789  1.0000
  H   H878      1.0  0.38122  0.73958  0.37811  1.0000
  H   H879      1.0  0.41668  0.94786  0.36003  1.0000
  H   H880      1.0  0.00360  0.70942  0.21709  1.0000
  C   C734      1.0  0.33192  0.84424  0.43118  1.0000
  C   C735      1.0  0.44125  0.95413  0.36332  1.0000
  C   C736      1.0  0.25357  0.83804  0.25863  1.0000
  C   C737      1.0  0.22059  0.82679  0.26558  1.0000
  C   C738      1.0  0.19617  0.84556  0.27865  1.0000
  C   C739      1.0  0.20424  0.87566  0.28502  1.0000
  H   H881      1.0  0.21375  0.80392  0.26049  1.0000
  H   H882      1.0  0.17070  0.83699  0.28348  1.0000
  C   C740      1.0  0.37230  0.86247  0.27335  1.0000
  C   C741      1.0  0.37010  0.84283  0.25358  1.0000
  C   C742      1.0  0.38602  0.81288  0.25507  1.0000
  C   C743      1.0  0.40460  0.80233  0.27613  1.0000
  C   C744      1.0  0.40717  0.82212  0.29579  1.0000
  C   C745      1.0  0.39101  0.85202  0.29442  1.0000
  H   H883      1.0  0.35535  0.85031  0.23753  1.0000
  H   H884      1.0  0.38363  0.79769  0.23988  1.0000
  H   H885      1.0  0.42150  0.81437  0.31204  1.0000
  H   H886      1.0  0.39288  0.86705  0.30979  1.0000
  H   H887      1.0  0.06264  0.66077  0.34814  1.0000
  N   N51       1.0  0.35931  0.83265  0.41186  1.0000
  C   C746      1.0  0.10238  0.94015  0.44070  1.0000
  H   H888      1.0  0.46607  0.92465  0.33520  1.0000
  H   H889      1.0  0.33923  0.78413  0.42495  1.0000
  C   C747      1.0  0.42045  0.71229  0.43126  1.0000
  H   H890      1.0  0.43613  0.80303  0.44240  1.0000
  H   H891      1.0  0.36290  0.96942  0.28223  1.0000
  C   C748      1.0  0.12918  0.76802  0.24641  1.0000
  C   C749      1.0  0.45047  0.85807  0.38917  1.0000
  H   H892      1.0  0.13102  0.86399  0.43396  1.0000
  S   S199      1.0  0.23386  0.66230  0.41709  1.0000
  S   S200      1.0  0.32325  0.73836  0.21660  1.0000
  H   H893      1.0  0.06596  0.81124  0.22266  1.0000
  H   H894      1.0  0.03631  0.65519  0.28300  1.0000
  S   S201      1.0  0.14156  0.93566  0.42123  1.0000
  H   H895      1.0  0.11662  0.92083  0.26936  1.0000
  C   C750      1.0  0.09722  0.67921  0.22002  1.0000
  C   C751      1.0  0.18021  0.78665  0.42336  1.0000
  H   H896      1.0  0.01979  0.92607  0.40355  1.0000
  H   H897      1.0  0.08127  0.65876  0.38995  1.0000
  C   C752      1.0  0.02054  0.96115  0.36748  1.0000
  S   S202      1.0  0.29446  0.96485  0.23751  1.0000
  N   N52       1.0  0.30189  0.77028  0.32125  1.0000
  C   C753      1.0  0.31989  0.75437  0.29881  1.0000
  C   C754      1.0  0.26571  0.76730  0.32049  1.0000
  C   C755      1.0  0.31094  0.80512  0.31522  1.0000
  C   C756      1.0  0.31143  0.75596  0.34801  1.0000
  C   C757      1.0  0.07399  0.73250  0.42831  1.0000
  C   C758      1.0  0.28770  0.74374  0.37162  1.0000
  S   S203      1.0  0.16806  0.69419  0.44938  1.0000
  H   H898      1.0  0.38076  0.78628  0.40699  1.0000
  H   H899      1.0  0.02192  0.66237  0.39506  1.0000
  H   H900      1.0  0.31464  0.72788  0.30280  1.0000
  H   H901      1.0  0.31283  0.76440  0.27850  1.0000
  S   S204      1.0  0.20056  0.95249  0.35253  1.0000
  H   H902      1.0  0.25701  0.74159  0.32490  1.0000
  H   H903      1.0  0.25960  0.77768  0.29990  1.0000
  H   H904      1.0  0.25044  0.78062  0.33545  1.0000
  H   H905      1.0  0.33792  0.80932  0.31424  1.0000
  H   H906      1.0  0.30495  0.81671  0.29487  1.0000
  H   H907      1.0  0.29739  0.81835  0.33106  1.0000
  H   H908      1.0  0.41913  0.82212  0.38041  1.0000
  H   H909      1.0  0.26124  0.74383  0.37131  1.0000
  H   H910      1.0  0.36665  0.82570  0.36918  1.0000
  C   C759      1.0  0.00469  0.94242  0.39188  1.0000
  H   H911      1.0  0.32715  0.87028  0.42497  1.0000
  H   H912      1.0  0.99390  0.74851  0.42108  1.0000
  S   S205      1.0  0.12217  0.94953  0.34602  1.0000
  Fe  Fe102     1.0  0.27811  0.76497  0.23276  1.0000
  C   C760      1.0  0.16424  0.82956  0.44917  1.0000
  C   C761      1.0  0.04661  0.74110  0.41540  1.0000
  C   C762      1.0  0.15300  0.68962  0.22782  1.0000
  H   H913      1.0  0.33722  0.84005  0.45274  1.0000
  C   C763      1.0  0.46923  0.94105  0.34924  1.0000
  S   S206      1.0  0.28504  0.81589  0.24111  1.0000
  C   C764      1.0  0.07008  0.72456  0.45701  1.0000
  H   H914      1.0  0.28735  0.87653  0.26061  1.0000
  H   H915      1.0  0.37530  0.88375  0.43848  1.0000
  H   H916      1.0  0.04711  0.95943  0.36097  1.0000
  C   C765      1.0  0.47942  0.85028  0.25117  1.0000
  H   H917      1.0  0.11508  0.74504  0.25509  1.0000
  S   S207      1.0  0.42367  0.76415  0.27721  1.0000
  H   H918      1.0  0.45453  0.71129  0.24626  1.0000
  H   H919      1.0  0.34728  0.75801  0.29584  1.0000
  H   H920      1.0  0.06623  0.95381  0.27520  1.0000
  H   H921      1.0  0.09847  0.73175  0.41612  1.0000
  H   H922      1.0  0.44366  0.67851  0.40611  1.0000
  H   H923      1.0  0.27912  0.72114  0.41430  1.0000
  C   C766      1.0  0.15570  0.86907  0.22351  1.0000
  C   C767      1.0  0.26186  0.86778  0.26562  1.0000
  C   C768      1.0  0.33124  0.72881  0.39886  1.0000
  H   H924      1.0  0.36498  0.76374  0.33438  1.0000
  H   H925      1.0  0.16033  0.78730  0.38652  1.0000
  C   C769      1.0  0.23737  0.88656  0.27874  1.0000
  N   N53       1.0  0.11981  0.83976  0.38640  1.0000
  C   C770      1.0  0.09975  0.86779  0.39346  1.0000
  C   C771      1.0  0.14068  0.85004  0.35916  1.0000
  C   C772      1.0  0.09626  0.81391  0.38406  1.0000
  C   C773      1.0  0.14142  0.82747  0.40683  1.0000
  C   C774      1.0  0.14432  0.84252  0.42992  1.0000
  C   C775      1.0  0.16056  0.79954  0.40388  1.0000
  H   H926      1.0  0.39939  0.71592  0.23176  1.0000
  H   H927      1.0  0.08336  0.87611  0.37800  1.0000
  H   H928      1.0  0.08345  0.86176  0.41389  1.0000
  H   H929      1.0  0.11593  0.88889  0.39387  1.0000
  H   H930      1.0  0.15901  0.86927  0.36005  1.0000
  H   H931      1.0  0.12544  0.85983  0.34317  1.0000
  H   H932      1.0  0.15499  0.82991  0.35136  1.0000
  H   H933      1.0  0.08122  0.80455  0.40446  1.0000
  H   H934      1.0  0.07886  0.82263  0.36950  1.0000
  H   H935      1.0  0.07112  0.67419  0.22801  1.0000
  C   C776      1.0  0.39540  0.87564  0.42447  1.0000
  H   H936      1.0  0.37263  0.79388  0.44168  1.0000
  C   C777      1.0  0.34883  0.83650  0.38436  1.0000
  C   C778      1.0  0.08966  0.96508  0.26467  1.0000
  H   H937      1.0  0.47682  0.89643  0.40103  1.0000
  H   H938      1.0  0.39424  0.73945  0.46089  1.0000
  H   H939      1.0  0.42810  0.91222  0.43209  1.0000
  H   H940      1.0  0.32429  0.82442  0.38537  1.0000
  C   C779      1.0  0.18179  0.80148  0.44614  1.0000
  H   H941      1.0  0.22666  0.93838  0.44465  1.0000
  H   H942      1.0  0.06342  0.77349  0.24610  1.0000
  H   H943      1.0  0.34670  0.86249  0.37578  1.0000
  S   S208      1.0  0.27272  0.67652  0.21754  1.0000
  H   H944      1.0  0.44286  0.96121  0.27289  1.0000
  H   H945      1.0  0.04562  0.81112  0.44674  1.0000
  C   C780      1.0  0.14826  0.96096  0.24847  1.0000
  H   H946      1.0  0.32536  0.95604  0.30515  1.0000
  C   C781      1.0  0.05134  0.96958  0.45072  1.0000
  C   C782      1.0  0.11797  0.94647  0.26144  1.0000
  H   H947      1.0  0.09667  0.78624  0.46139  1.0000
  H   H948      1.0  0.47732  0.90174  0.24079  1.0000
  C   C783      1.0  0.41574  0.65382  0.44427  1.0000
  H   H949      1.0  0.19393  0.76483  0.42089  1.0000
  C   C784      1.0  0.44497  0.97408  0.38252  1.0000
  H   H950      1.0  0.36320  0.95874  0.31854  1.0000
  H   H951      1.0  0.98123  0.88179  0.41940  1.0000
  H   H952      1.0  0.47894  0.76386  0.44244  1.0000
  C   C785      1.0  0.13259  0.81851  0.21468  1.0000
  Fe  Fe103     1.0  0.21266  0.66647  0.46077  1.0000
  H   H953      1.0  0.19622  0.79101  0.46174  1.0000
  C   C786      1.0  0.01104  0.73402  0.45986  1.0000
  H   H954      1.0  0.25854  0.74141  0.46107  1.0000
  H   H955      1.0  0.26790  0.97423  0.46004  1.0000
  Fe  Fe104     1.0  0.17888  0.80841  0.58883  1.0000
  S   S209      1.0  0.13063  0.82624  0.57665  1.0000
  S   S210      1.0  0.17476  0.78276  0.63266  1.0000
  Fe  Fe105     1.0  0.22018  0.84124  0.53428  1.0000
  S   S211      1.0  0.17462  0.86114  0.51843  1.0000
  S   S212      1.0  0.26738  0.85570  0.50386  1.0000
  Fe  Fe106     1.0  0.15922  0.87255  0.56078  1.0000
  S   S213      1.0  0.14125  0.92077  0.56915  1.0000
  Fe  Fe107     1.0  0.15139  0.81261  0.53580  1.0000
  S   S214      1.0  0.12484  0.78568  0.51021  1.0000
  S   S215      1.0  0.20621  0.85613  0.57569  1.0000
  S   S216      1.0  0.19785  0.79119  0.54880  1.0000
  S   S217      1.0  0.04374  0.69522  0.66544  1.0000
  H   H956      1.0  0.98910  0.74456  0.51279  1.0000
  Fe  Fe108     1.0  0.41244  0.74941  0.57646  1.0000
  S   S218      1.0  0.36441  0.77577  0.57831  1.0000
  S   S219      1.0  0.42020  0.70093  0.60053  1.0000
  H   H957      1.0  0.98130  0.78910  0.60859  1.0000
  S   S220      1.0  0.40739  0.83448  0.53664  1.0000
  H   H958      1.0  0.47316  0.97784  0.63224  1.0000
  Fe  Fe109     1.0  0.39614  0.81822  0.58242  1.0000
  S   S221      1.0  0.37948  0.84886  0.61587  1.0000
  Fe  Fe110     1.0  0.38020  0.78924  0.53263  1.0000
  S   S222      1.0  0.34837  0.78822  0.49889  1.0000
  C   C787      1.0  0.27438  0.70717  0.49315  1.0000
  S   S223      1.0  0.42653  0.76040  0.53091  1.0000
  H   H959      1.0  0.07619  0.86231  0.69280  1.0000
  H   H960      1.0  0.27436  0.94214  0.48679  1.0000
  Fe  Fe111     1.0  0.45702  0.80554  0.53584  1.0000
  H   H961      1.0  0.38296  0.76287  0.67411  1.0000
  H   H962      1.0  0.08433  0.93463  0.54895  1.0000
  H   H963      1.0  0.33488  0.72278  0.53017  1.0000
  C   C788      1.0  0.40850  0.72013  0.68878  1.0000
  C   C789      1.0  0.42409  0.69206  0.68195  1.0000
  C   C790      1.0  0.42684  0.68543  0.65498  1.0000
  C   C791      1.0  0.41439  0.70715  0.63487  1.0000
  C   C792      1.0  0.39836  0.73487  0.64196  1.0000
  C   C793      1.0  0.39511  0.74120  0.66891  1.0000
  H   H964      1.0  0.37260  0.69125  0.49408  1.0000
  C   C794      1.0  0.47214  0.84074  0.50302  1.0000
  H   H965      1.0  0.38853  0.75166  0.62672  1.0000
  C   C795      1.0  0.42708  0.91268  0.66716  1.0000
  H   H966      1.0  0.44038  0.91928  0.53621  1.0000
  H   H967      1.0  0.16515  0.84075  0.46710  1.0000
  C   C796      1.0  0.39961  0.87251  0.63528  1.0000
  C   C797      1.0  0.37945  0.88550  0.65612  1.0000
  C   C798      1.0  0.39297  0.90537  0.67175  1.0000
  C   C799      1.0  0.16600  0.97234  0.47754  1.0000
  Fe  Fe112     1.0  0.08244  0.94601  0.70854  1.0000
  H   H968      1.0  0.35290  0.88070  0.65991  1.0000
  H   H969      1.0  0.37663  0.91565  0.68733  1.0000
  C   C800      1.0  0.29589  0.88217  0.51253  1.0000
  C   C801      1.0  0.29146  0.89124  0.53856  1.0000
  C   C802      1.0  0.31501  0.91145  0.54543  1.0000
  C   C803      1.0  0.34249  0.92381  0.52588  1.0000
  C   C804      1.0  0.34623  0.91598  0.49935  1.0000
  C   C805      1.0  0.32313  0.89491  0.49282  1.0000
  H   H970      1.0  0.27012  0.88234  0.55351  1.0000
  H   H971      1.0  0.31190  0.91771  0.56588  1.0000
  H   H972      1.0  0.36728  0.92560  0.48412  1.0000
  S   S224      1.0  0.03442  0.92316  0.70436  1.0000
  C   C806      1.0  0.09071  0.80596  0.49905  1.0000
  C   C807      1.0  0.09325  0.91893  0.46540  1.0000
  H   H973      1.0  0.43574  0.96254  0.60816  1.0000
  C   C808      1.0  0.03302  0.83378  0.48262  1.0000
  C   C809      1.0  0.04213  0.83873  0.50754  1.0000
  C   C810      1.0  0.07140  0.82531  0.51551  1.0000
  H   H974      1.0  0.04178  0.93164  0.54615  1.0000
  C   C811      1.0  0.06272  0.94925  0.54413  1.0000
  H   H975      1.0  0.02682  0.85331  0.52040  1.0000
  H   H976      1.0  0.07867  0.82922  0.53462  1.0000
  C   C812      1.0  0.08013  0.71959  0.65728  1.0000
  C   C813      1.0  0.09071  0.73659  0.67636  1.0000
  C   C814      1.0  0.12006  0.75571  0.66892  1.0000
  C   C815      1.0  0.13821  0.75867  0.64216  1.0000
  C   C816      1.0  0.12718  0.74214  0.62302  1.0000
  C   C817      1.0  0.09860  0.72221  0.63073  1.0000
  H   H977      1.0  0.98606  0.73450  0.47102  1.0000
  H   H978      1.0  0.98825  0.91101  0.66789  1.0000
  H   H979      1.0  0.14109  0.74422  0.60238  1.0000
  H   H980      1.0  0.09053  0.70912  0.61588  1.0000
  C   C818      1.0  0.13505  0.92138  0.66101  1.0000
  C   C819      1.0  0.14371  0.89322  0.65026  1.0000
  C   C820      1.0  0.14544  0.89299  0.62203  1.0000
  C   C821      1.0  0.13969  0.92120  0.60438  1.0000
  C   C822      1.0  0.13193  0.94962  0.61504  1.0000
  C   C823      1.0  0.12911  0.94957  0.64342  1.0000
  H   H981      1.0  0.14785  0.87124  0.66383  1.0000
  H   H982      1.0  0.15062  0.87072  0.61417  1.0000
  C   C824      1.0  0.38786  0.68837  0.47480  1.0000
  C   C825      1.0  0.99115  0.80114  0.62403  1.0000
  H   H983      1.0  0.05668  0.90624  0.50165  1.0000
  H   H984      1.0  0.01168  0.73560  0.54047  1.0000
  H   H985      1.0  0.29502  0.67969  0.52671  1.0000
  H   H986      1.0  0.07847  0.68996  0.50838  1.0000
  H   H987      1.0  0.00904  0.67727  0.53465  1.0000
  H   H988      1.0  0.98699  0.78397  0.64382  1.0000
  H   H989      1.0  0.05580  0.84157  0.58087  1.0000
  H   H990      1.0  0.12780  0.97158  0.60144  1.0000
  H   H991      1.0  0.12843  0.76862  0.68374  1.0000
  H   H992      1.0  0.08755  0.64816  0.69046  1.0000
  H   H993      1.0  0.02631  0.66582  0.50214  1.0000
  C   C826      1.0  0.25452  0.74501  0.59631  1.0000
  C   C827      1.0  0.06337  0.92283  0.48257  1.0000
  C   C828      1.0  0.22125  0.92755  0.46685  1.0000
  C   C829      1.0  0.27555  0.73697  0.47575  1.0000
  H   H994      1.0  0.43916  0.66394  0.64961  1.0000
  H   H995      1.0  0.18610  0.92831  0.51780  1.0000
  S   S225      1.0  0.98270  0.74508  0.71166  1.0000
  H   H996      1.0  0.05891  0.80456  0.70137  1.0000
  C   C830      1.0  0.01471  0.74138  0.51759  1.0000
  H   H997      1.0  0.25074  0.75722  0.63633  1.0000
  C   C831      1.0  0.31854  0.72691  0.51494  1.0000
  C   C832      1.0  0.04263  0.94845  0.47571  1.0000
  H   H998      1.0  0.21348  0.95518  0.52806  1.0000
  H   H999      1.0  0.29750  0.78483  0.46539  1.0000
  C   C833      1.0  0.29590  0.70242  0.51285  1.0000
  H   H1000     1.0  0.24246  0.72163  0.60391  1.0000
  C   C834      1.0  0.08158  0.80109  0.47414  1.0000
  H   H1001     1.0  0.07300  0.78589  0.60741  1.0000
  C   C835      1.0  0.39589  0.65743  0.46923  1.0000
  H   H1002     1.0  0.15583  0.94798  0.48288  1.0000
  H   H1003     1.0  0.07653  0.73473  0.69687  1.0000
  H   H1004     1.0  0.26034  0.73881  0.55383  1.0000
  H   H1005     1.0  0.03029  0.93798  0.59535  1.0000
  C   C836      1.0  0.43291  0.66817  0.53825  1.0000
  H   H1006     1.0  0.41484  0.65650  0.55633  1.0000
  C   C837      1.0  0.29791  0.76155  0.47810  1.0000
  N   N54       1.0  0.27897  0.81827  0.62534  1.0000
  C   C838      1.0  0.29245  0.85086  0.61213  1.0000
  C   C839      1.0  0.24695  0.82287  0.64314  1.0000
  C   C840      1.0  0.30277  0.80308  0.64287  1.0000
  C   C841      1.0  0.27382  0.79700  0.60534  1.0000
  C   C842      1.0  0.28384  0.80596  0.57644  1.0000
  C   C843      1.0  0.25920  0.76574  0.61471  1.0000
  C   C844      1.0  0.27908  0.78504  0.55826  1.0000
  C   C845      1.0  0.45172  0.93493  0.54758  1.0000
  C   C846      1.0  0.26458  0.75460  0.56814  1.0000
  H   H1007     1.0  0.29676  0.86610  0.62757  1.0000
  H   H1008     1.0  0.31700  0.84959  0.59887  1.0000
  H   H1009     1.0  0.27503  0.86399  0.59947  1.0000
  H   H1010     1.0  0.22774  0.83228  0.63050  1.0000
  H   H1011     1.0  0.24956  0.84021  0.65736  1.0000
  H   H1012     1.0  0.23652  0.80011  0.65623  1.0000
  H   H1013     1.0  0.29312  0.77967  0.65534  1.0000
  H   H1014     1.0  0.32673  0.79829  0.63004  1.0000
  H   H1015     1.0  0.30868  0.81889  0.65741  1.0000
  H   H1016     1.0  0.29553  0.82892  0.56715  1.0000
  C   C847      1.0  0.43398  0.87945  0.63050  1.0000
  H   H1017     1.0  0.22792  0.91668  0.52008  1.0000
  H   H1018     1.0  0.00332  0.96919  0.55735  1.0000
  H   H1019     1.0  0.46588  0.74975  0.47826  1.0000
  H   H1020     1.0  0.11982  0.97693  0.53231  1.0000
  C   C848      1.0  0.25814  0.96289  0.48159  1.0000
  H   H1021     1.0  0.03953  0.76082  0.62779  1.0000
  H   H1022     1.0  0.42165  0.79136  0.47824  1.0000
  S   S226      1.0  0.37195  0.94842  0.53539  1.0000
  S   S227      1.0  0.12943  0.92063  0.69659  1.0000
  H   H1023     1.0  0.06802  0.96095  0.52222  1.0000
  C   C849      1.0  0.21217  0.93750  0.51385  1.0000
  H   H1024     1.0  0.02312  0.81978  0.57163  1.0000
  H   H1025     1.0  0.11993  0.68465  0.70905  1.0000
  S   S228      1.0  0.44235  0.79025  0.58382  1.0000
  H   H1026     1.0  0.07353  0.94459  0.59587  1.0000
  H   H1027     1.0  0.12295  0.97150  0.65161  1.0000
  H   H1028     1.0  0.04028  0.77144  0.59197  1.0000
  H   H1029     1.0  0.08113  0.73261  0.50973  1.0000
  H   H1030     1.0  0.41736  0.79791  0.70771  1.0000
  N   N55       1.0  0.03310  0.71597  0.50415  1.0000
  S   S229      1.0  0.24582  0.67552  0.49204  1.0000
  H   H1031     1.0  0.44940  0.87026  0.61391  1.0000
  H   H1032     1.0  0.20201  0.97821  0.70768  1.0000
  H   H1033     1.0  0.42060  0.66778  0.52006  1.0000
  H   H1034     1.0  0.01275  0.85317  0.58899  1.0000
  S   S230      1.0  0.44096  0.93934  0.68757  1.0000
  C   C850      1.0  0.31985  0.75664  0.49744  1.0000
  Fe  Fe113     1.0  0.02066  0.97329  0.68807  1.0000
  H   H1035     1.0  0.41328  0.92511  0.58286  1.0000
  N   N56       1.0  0.02670  0.81052  0.61496  1.0000
  C   C851      1.0  0.04572  0.78105  0.61034  1.0000
  C   C852      1.0  0.43976  0.80748  0.46314  1.0000
  H   H1036     1.0  0.28625  0.79278  0.53626  1.0000
  C   C853      1.0  0.03902  0.82547  0.63649  1.0000
  C   C854      1.0  0.04257  0.80653  0.66212  1.0000
  C   C855      1.0  0.04780  0.85883  0.63283  1.0000
  C   C856      1.0  0.05571  0.81973  0.68222  1.0000
  C   C857      1.0  0.06094  0.87176  0.65305  1.0000
  C   C858      1.0  0.06527  0.85219  0.67752  1.0000
  C   C859      1.0  0.01328  0.68545  0.51195  1.0000
  H   H1037     1.0  0.45722  0.66597  0.48199  1.0000
  N   N57       1.0  0.22277  0.95241  0.48471  1.0000
  C   C860      1.0  0.02978  0.83236  0.58802  1.0000
  H   H1038     1.0  0.06832  0.89706  0.64958  1.0000
  C   C861      1.0  0.47885  0.80721  0.49533  1.0000
  H   H1039     1.0  0.41993  0.84110  0.69849  1.0000
  H   H1040     1.0  0.32619  0.88866  0.47247  1.0000
  C   C862      1.0  0.44780  0.89948  0.64647  1.0000
  H   H1041     1.0  0.03567  0.78119  0.66663  1.0000
  H   H1042     1.0  0.04517  0.87541  0.61441  1.0000
  H   H1043     1.0  0.46248  0.85959  0.48914  1.0000
  H   H1044     1.0  0.02800  0.76510  0.51116  1.0000
  Fe  Fe114     1.0  0.00660  0.69861  0.70354  1.0000
  C   C863      1.0  0.06459  0.71076  0.51557  1.0000
  S   S231      1.0  0.00700  0.95344  0.49975  1.0000
  S   S232      1.0  0.99598  0.84911  0.47287  1.0000
  H   H1045     1.0  0.06010  0.70523  0.53848  1.0000
  H   H1046     1.0  0.23931  0.90798  0.47068  1.0000
  C   C864      1.0  0.03838  0.72529  0.47376  1.0000
  H   H1047     1.0  0.43368  0.67530  0.69745  1.0000
  H   H1048     1.0  0.47705  0.87329  0.53412  1.0000
  N   N58       1.0  0.05476  0.97373  0.56245  1.0000
  H   H1049     1.0  0.43584  0.69368  0.54075  1.0000
  C   C865      1.0  0.43630  0.93843  0.57389  1.0000
  N   N59       1.0  0.46543  0.65193  0.53614  1.0000
  H   H1050     1.0  0.09231  0.71771  0.46555  1.0000
  H   H1051     1.0  0.10940  0.89943  0.47145  1.0000
  C   C866      1.0  0.05037  0.95681  0.59126  1.0000
  H   H1052     1.0  0.43241  0.83269  0.46464  1.0000
  H   H1053     1.0  0.04385  0.97363  0.60626  1.0000
  N   N60       1.0  0.47446  0.80124  0.46769  1.0000
  H   H1054     1.0  0.47407  0.90553  0.64224  1.0000
  C   C867      1.0  0.05301  0.81537  0.46574  1.0000
  C   C868      1.0  0.44930  0.96015  0.58810  1.0000
  H   H1055     1.0  0.19647  0.91531  0.47035  1.0000
  H   H1056     1.0  0.98841  0.68796  0.50549  1.0000
  S   S233      1.0  0.44436  0.96857  0.47004  1.0000
  C   C869      1.0  0.47692  0.65047  0.56312  1.0000
  S   S234      1.0  0.07207  0.69656  0.89442  1.0000
  S   S235      1.0  0.20902  0.74951  0.82165  1.0000
  Fe  Fe115     1.0  0.33738  0.92791  0.86137  1.0000
  S   S236      1.0  0.37386  0.91841  0.82509  1.0000
  S   S237      1.0  0.35075  0.92396  0.90355  1.0000
  Fe  Fe116     1.0  0.28041  0.93580  0.82906  1.0000
  S   S238      1.0  0.31228  0.92737  0.78997  1.0000
  S   S239      1.0  0.22541  0.94052  0.83127  1.0000
  Fe  Fe117     1.0  0.33321  0.88683  0.81705  1.0000
  S   S240      1.0  0.34024  0.83453  0.81161  1.0000
  C   C870      1.0  0.45004  0.69632  0.92718  1.0000
  S   S241      1.0  0.99875  0.75190  0.78900  1.0000
  S   S242      1.0  0.29893  0.89342  0.85515  1.0000
  C   C871      1.0  0.46754  0.74458  0.87610  1.0000
  H   H1057     1.0  0.14700  0.79282  0.83740  1.0000
  S   S243      1.0  0.05353  0.83494  0.92848  1.0000
  C   C872      1.0  0.43648  0.86002  0.75903  1.0000
  H   H1058     1.0  0.14011  0.91686  0.91287  1.0000
  C   C873      1.0  0.99600  0.81306  0.75866  1.0000
  H   H1059     1.0  0.16419  0.91499  0.86423  1.0000
  H   H1060     1.0  0.43013  0.93927  0.76596  1.0000
  S   S244      1.0  0.16990  0.69849  0.89031  1.0000
  H   H1061     1.0  0.30300  0.69991  0.88972  1.0000
  N   N61       1.0  0.09948  0.79034  0.82386  1.0000
  H   H1062     1.0  0.32903  0.76536  0.82121  1.0000
  H   H1063     1.0  0.40501  0.70245  0.83937  1.0000
  C   C874      1.0  0.35644  0.68616  0.79237  1.0000
  H   H1064     1.0  0.27760  0.73144  0.82627  1.0000
  Fe  Fe118     1.0  0.45367  0.71679  0.73781  1.0000
  S   S245      1.0  0.06611  0.95344  0.75207  1.0000
  S   S246      1.0  0.98269  0.90292  0.77856  1.0000
  H   H1065     1.0  0.29274  0.76265  0.93408  1.0000
  H   H1066     1.0  0.30227  0.78506  0.90002  1.0000
  Fe  Fe119     1.0  0.01652  0.93586  0.74588  1.0000
  H   H1067     1.0  0.36002  0.69337  0.87859  1.0000
  H   H1068     1.0  0.13879  0.75589  0.82520  1.0000
  C   C875      1.0  0.98463  0.88830  0.96167  1.0000
  Fe  Fe120     1.0  0.18549  0.64685  0.89485  1.0000
  H   H1069     1.0  0.99280  0.86139  0.73640  1.0000
  C   C876      1.0  0.11001  0.80759  0.79540  1.0000
  H   H1070     1.0  0.00279  0.68779  0.82341  1.0000
  C   C877      1.0  0.15181  0.82292  0.75388  1.0000
  S   S247      1.0  0.14179  0.68432  0.83476  1.0000
  C   C878      1.0  0.42351  0.91580  0.76178  1.0000
  H   H1071     1.0  0.99465  0.79472  0.82783  1.0000
  C   C879      1.0  0.40417  0.79678  0.76286  1.0000
  H   H1072     1.0  0.27553  0.71697  0.91487  1.0000
  H   H1073     1.0  0.44692  0.86461  0.82998  1.0000
  C   C880      1.0  0.29633  0.72289  0.89723  1.0000
  S   S248      1.0  0.20982  0.64977  0.85065  1.0000
  H   H1074     1.0  0.10083  0.83417  0.84090  1.0000
  Fe  Fe121     1.0  0.19011  0.70047  0.84546  1.0000
  H   H1075     1.0  0.24915  0.91259  0.92384  1.0000
  Fe  Fe122     1.0  0.12325  0.67952  0.88002  1.0000
  H   H1076     1.0  0.44795  0.92247  0.81581  1.0000
  C   C881      1.0  0.36658  0.88538  0.91115  1.0000
  C   C882      1.0  0.35683  0.86688  0.93710  1.0000
  C   C883      1.0  0.36842  0.83548  0.94280  1.0000
  C   C884      1.0  0.39047  0.82285  0.92280  1.0000
  C   C885      1.0  0.40019  0.84132  0.89687  1.0000
  C   C886      1.0  0.38824  0.87258  0.89106  1.0000
  C   C887      1.0  0.46214  0.87960  0.83912  1.0000
  H   H1077     1.0  0.45426  0.84100  0.76136  1.0000
  H   H1078     1.0  0.41684  0.83144  0.88130  1.0000
  H   H1079     1.0  0.39635  0.88697  0.87122  1.0000
  C   C888      1.0  0.20722  0.94427  0.86478  1.0000
  C   C889      1.0  0.17681  0.92861  0.87632  1.0000
  C   C890      1.0  0.16326  0.92959  0.90384  1.0000
  C   C891      1.0  0.17960  0.94714  0.91947  1.0000
  C   C892      1.0  0.36477  0.82096  0.73526  1.0000
  H   H1080     1.0  0.35957  0.79660  0.73057  1.0000
  H   H1081     1.0  0.23603  0.88700  0.89163  1.0000
  H   H1082     1.0  0.43413  0.71677  0.92930  1.0000
  Fe  Fe123     1.0  0.98495  0.72607  0.75607  1.0000
  C   C893      1.0  0.40647  0.85520  0.74902  1.0000
  C   C894      1.0  0.99409  0.80910  0.80784  1.0000
  C   C895      1.0  0.06777  0.73387  0.90634  1.0000
  C   C896      1.0  0.03697  0.74879  0.90707  1.0000
  C   C897      1.0  0.03283  0.77939  0.91465  1.0000
  C   C898      1.0  0.05919  0.79508  0.92233  1.0000
  C   C899      1.0  0.08987  0.77986  0.92250  1.0000
  C   C900      1.0  0.09426  0.74936  0.91422  1.0000
  H   H1083     1.0  0.00913  0.79105  0.91430  1.0000
  H   H1084     1.0  0.06637  0.75083  0.84467  1.0000
  H   H1085     1.0  0.11045  0.79208  0.92811  1.0000
  H   H1086     1.0  0.11812  0.73805  0.91380  1.0000
  C   C901      1.0  0.24525  0.77193  0.82287  1.0000
  C   C902      1.0  0.24362  0.80572  0.81930  1.0000
  C   C903      1.0  0.27241  0.82491  0.81702  1.0000
  C   C904      1.0  0.30339  0.81053  0.81739  1.0000
  C   C905      1.0  0.30512  0.77666  0.82119  1.0000
  C   C906      1.0  0.27607  0.75739  0.82425  1.0000
  H   H1087     1.0  0.22003  0.81725  0.81771  1.0000
  H   H1088     1.0  0.27073  0.85094  0.81391  1.0000
  H   H1089     1.0  0.28953  0.83366  0.94441  1.0000
  H   H1090     1.0  0.10337  0.68540  0.94672  1.0000
  H   H1091     1.0  0.35832  0.72684  0.93489  1.0000
  H   H1092     1.0  0.47796  0.97125  0.79302  1.0000
  C   C907      1.0  0.12848  0.84101  0.74076  1.0000
  H   H1093     1.0  0.19277  0.80155  0.87559  1.0000
  H   H1094     1.0  0.34005  0.87665  0.95270  1.0000
  C   C908      1.0  0.22361  0.96172  0.88045  1.0000
  H   H1095     1.0  0.21352  0.85802  0.86049  1.0000
  H   H1096     1.0  0.38340  0.66813  0.75748  1.0000
  H   H1097     1.0  0.98788  0.85373  0.82391  1.0000
  S   S249      1.0  0.01299  0.68172  0.74737  1.0000
  N   N62       1.0  0.32500  0.73832  0.90541  1.0000
  C   C909      1.0  0.31286  0.76813  0.91590  1.0000
  N   N63       1.0  0.39930  0.82396  0.74081  1.0000
  C   C910      1.0  0.33626  0.71646  0.92854  1.0000
  C   C911      1.0  0.35248  0.74430  0.88168  1.0000
  C   C912      1.0  0.36450  0.77579  0.86906  1.0000
  C   C913      1.0  0.36788  0.71802  0.87020  1.0000
  C   C914      1.0  0.39045  0.78043  0.84665  1.0000
  C   C915      1.0  0.39369  0.72295  0.84770  1.0000
  C   C916      1.0  0.40498  0.75412  0.83596  1.0000
  H   H1098     1.0  0.33322  0.78087  0.92261  1.0000
  H   H1099     1.0  0.06130  0.82766  0.79077  1.0000
  C   C917      1.0  0.12732  0.77486  0.83662  1.0000
  C   C918      1.0  0.38534  0.88216  0.74573  1.0000
  H   H1100     1.0  0.34334  0.69244  0.92334  1.0000
  H   H1101     1.0  0.35416  0.79740  0.87589  1.0000
  C   C919      1.0  0.44452  0.88975  0.76565  1.0000
  H   H1102     1.0  0.42508  0.75796  0.81858  1.0000
  H   H1103     1.0  0.16236  0.79292  0.78964  1.0000
  H   H1104     1.0  0.46257  0.72745  0.86231  1.0000
  S   S250      1.0  0.16370  0.94721  0.95416  1.0000
  H   H1105     1.0  0.39886  0.80475  0.83725  1.0000
  H   H1106     1.0  0.39501  0.92995  0.94835  1.0000
  Fe  Fe124     1.0  0.34926  0.95986  0.80230  1.0000
  S   S251      1.0  0.45085  0.70478  0.78338  1.0000
  C   C920      1.0  0.20394  0.79906  0.91664  1.0000
  H   H1107     1.0  0.28651  0.73901  0.88044  1.0000
  H   H1108     1.0  0.36217  0.88106  0.73806  1.0000
  C   C921      1.0  0.14292  0.80638  0.78079  1.0000
  C   C922      1.0  0.08682  0.82594  0.78122  1.0000
  H   H1109     1.0  0.37822  0.93261  0.74835  1.0000
  H   H1110     1.0  0.07799  0.80141  0.86373  1.0000
  H   H1111     1.0  0.14382  0.97090  0.73102  1.0000
  H   H1112     1.0  0.07801  0.85698  0.74431  1.0000
  C   C923      1.0  0.09605  0.84257  0.75443  1.0000
  H   H1113     1.0  0.08554  0.74707  0.81022  1.0000
  H   H1114     1.0  0.45072  0.93687  0.94652  1.0000
  H   H1115     1.0  0.05234  0.77438  0.81567  1.0000
  H   H1116     1.0  0.19349  0.77487  0.92356  1.0000
  H   H1117     1.0  0.11884  0.76250  0.85807  1.0000
  H   H1118     1.0  0.36578  0.71069  0.78513  1.0000
  H   H1119     1.0  0.22211  0.97728  0.91974  1.0000
  H   H1120     1.0  0.42721  0.88588  0.94029  1.0000
  C   C924      1.0  0.21751  0.81524  0.93484  1.0000
  C   C925      1.0  0.43869  0.66655  0.94272  1.0000
  C   C926      1.0  0.99336  0.84684  0.75631  1.0000
  C   C927      1.0  0.26547  0.89345  0.93215  1.0000
  H   H1121     1.0  0.06003  0.82255  0.83615  1.0000
  H   H1122     1.0  0.39499  0.77340  0.75891  1.0000
  H   H1123     1.0  0.17706  0.82188  0.74317  1.0000
  H   H1124     1.0  0.47599  0.76791  0.86274  1.0000
  S   S252      1.0  0.40663  0.73001  0.72169  1.0000
  S   S253      1.0  0.31527  0.97146  0.83928  1.0000
  H   H1125     1.0  0.47698  0.97678  0.87810  1.0000
  C   C928      1.0  0.99008  0.86150  0.77994  1.0000
  H   H1126     1.0  0.34620  0.82468  0.75346  1.0000
  H   H1127     1.0  0.01634  0.73691  0.90121  1.0000
  H   H1128     1.0  0.31643  0.71144  0.94697  1.0000
  H   H1129     1.0  0.28512  0.88861  0.91517  1.0000
  H   H1130     1.0  0.47350  0.75813  0.92597  1.0000
  H   H1131     1.0  0.12360  0.67633  0.75876  1.0000
  H   H1132     1.0  0.01126  0.65467  0.80523  1.0000
  C   C929      1.0  0.99042  0.84250  0.80564  1.0000
  H   H1133     1.0  0.43857  0.97365  0.86520  1.0000
  C   C930      1.0  0.46290  0.91311  0.83116  1.0000
  C   C931      1.0  0.07487  0.76458  0.82363  1.0000
  C   C932      1.0  0.08394  0.81312  0.84181  1.0000
  H   H1134     1.0  0.32661  0.69749  0.82901  1.0000
  Fe  Fe125     1.0  0.08099  0.85467  0.95818  1.0000
  C   C933      1.0  0.36630  0.66212  0.77675  1.0000
  H   H1135     1.0  0.44346  0.74949  0.88858  1.0000
  H   H1136     1.0  0.39034  0.80077  0.78311  1.0000
  S   S254      1.0  0.40626  0.78423  0.93033  1.0000
  N   N64       1.0  0.24638  0.86350  0.94570  1.0000
  C   C934      1.0  0.99624  0.79418  0.78452  1.0000
  H   H1137     1.0  0.03728  0.66428  0.85851  1.0000
  H   H1138     1.0  0.43901  0.97475  0.81565  1.0000
  C   C935      1.0  0.23143  0.84695  0.92636  1.0000
  H   H1139     1.0  0.43072  0.79310  0.76490  1.0000
  C   C936      1.0  0.22846  0.86221  0.89929  1.0000
  C   C937      1.0  0.39402  0.91198  0.75190  1.0000
  C   C938      1.0  0.21500  0.84582  0.88120  1.0000
  C   C939      1.0  0.20315  0.81416  0.88972  1.0000
  H   H1140     1.0  0.13563  0.85400  0.72000  1.0000
  C   C940      1.0  0.99434  0.66287  0.82251  1.0000
  H   H1141     1.0  0.20198  0.88919  0.95693  1.0000
  C   C941      1.0  0.33437  0.67864  0.81703  1.0000
  H   H1142     1.0  0.99786  0.80171  0.74052  1.0000
  C   C942      1.0  0.20948  0.96365  0.90767  1.0000
  H   H1143     1.0  0.46757  0.89278  0.77316  1.0000
  H   H1144     1.0  0.24701  0.97401  0.87155  1.0000
  S   S255      1.0  0.07402  0.90724  0.96095  1.0000
  C   C943      1.0  0.10864  0.65995  0.75079  1.0000
  H   H1145     1.0  0.27822  0.90429  0.94676  1.0000
  H   H1146     1.0  0.00804  0.87862  0.95154  1.0000
  H   H1147     1.0  0.46283  0.86613  0.95130  1.0000
  H   H1148     1.0  0.44876  0.82023  0.71851  1.0000
  H   H1149     1.0  0.36024  0.83843  0.71698  1.0000
  C   C944      1.0  0.42241  0.82062  0.71528  1.0000
  C   C945      1.0  0.26972  0.84197  0.95968  1.0000
  C   C946      1.0  0.10665  0.66451  0.72282  1.0000
  H   H1150     1.0  0.41454  0.66454  0.95589  1.0000
  H   H1151     1.0  0.21620  0.80298  0.95582  1.0000
  C   C947      1.0  0.43741  0.87423  0.95877  1.0000
  C   C948      1.0  0.32194  0.64706  0.82607  1.0000
  S   S256      1.0  0.13532  0.85604  0.96107  1.0000
  Fe  Fe126     1.0  0.81751  0.19515  0.99792  1.0000
  S   S257      1.0  0.82707  0.21703  0.03422  1.0000
  S   S258      1.0  0.78349  0.15351  0.99781  1.0000
  C   C949      1.0  0.59525  0.25701  0.17710  1.0000
  S   S259      1.0  0.87679  0.26826  0.98895  1.0000
  Fe  Fe127     1.0  0.88073  0.21880  0.01383  1.0000
  S   S260      1.0  0.92240  0.21157  0.03957  1.0000
  Fe  Fe128     1.0  0.82248  0.26451  0.00713  1.0000
  C   C950      1.0  0.49767  0.25092  0.15128  1.0000
  S   S261      1.0  0.87122  0.19286  0.97981  1.0000
  H   H1152     1.0  0.72224  0.01218  0.98061  1.0000
  Fe  Fe129     1.0  0.89956  0.05292  0.00215  1.0000
  H   H1153     1.0  0.69951  0.03733  0.04949  1.0000
  Fe  Fe130     1.0  0.84831  0.08965  0.03772  1.0000
  S   S262      1.0  0.80591  0.07475  0.01820  1.0000
  S   S263      1.0  0.84679  0.11256  0.07641  1.0000
  Fe  Fe131     1.0  0.82929  0.02630  0.02198  1.0000
  C   C951      1.0  0.51529  0.17033  0.03991  1.0000
  Fe  Fe132     1.0  0.84155  0.08505  0.97810  1.0000
  H   H1154     1.0  0.83350  0.22301  0.12397  1.0000
  S   S264      1.0  0.86941  0.03978  0.04414  1.0000
  S   S265      1.0  0.88237  0.10404  0.99703  1.0000
  H   H1155     1.0  0.71073  0.99568  0.10484  1.0000
  Fe  Fe133     1.0  0.55167  0.10177  0.08019  1.0000
  S   S266      1.0  0.56048  0.14465  0.09929  1.0000
  H   H1156     1.0  0.67972  0.22094  0.09378  1.0000
  Fe  Fe134     1.0  0.61176  0.06624  0.09993  1.0000
  S   S267      1.0  0.62506  0.10702  0.12024  1.0000
  S   S268      1.0  0.64809  0.02546  0.09793  1.0000
  Fe  Fe135     1.0  0.57033  0.10874  0.13509  1.0000
  S   S269      1.0  0.54541  0.11621  0.17692  1.0000
  Fe  Fe136     1.0  0.61371  0.13829  0.08230  1.0000
  S   S270      1.0  0.64352  0.18203  0.06157  1.0000
  S   S271      1.0  0.55721  0.06536  0.11766  1.0000
  S   S272      1.0  0.60451  0.09782  0.06035  1.0000
  Fe  Fe137     1.0  0.73534  0.21680  0.17291  1.0000
  H   H1157     1.0  0.90571  0.03610  0.16397  1.0000
  S   S273      1.0  0.74586  0.21108  0.12798  1.0000
  H   H1158     1.0  0.92927  0.99192  0.03292  1.0000
  H   H1159     1.0  0.74662  0.26249  0.01423  1.0000
  C   C952      1.0  0.49429  0.14299  0.04525  1.0000
  C   C953      1.0  0.60381  0.29561  0.12527  1.0000
  C   C954      1.0  0.73459  0.28493  0.01694  1.0000
  S   S274      1.0  0.86109  0.03498  0.98062  1.0000
  C   C955      1.0  0.56809  0.14073  0.19301  1.0000
  C   C956      1.0  0.60195  0.14775  0.18360  1.0000
  C   C957      1.0  0.96790  0.00412  0.99778  1.0000
  H   H1160     1.0  0.52030  0.22141  0.02422  1.0000
  H   H1161     1.0  0.74245  0.12989  0.16492  1.0000
  H   H1162     1.0  0.61449  0.13885  0.16569  1.0000
  C   C958      1.0  0.60112  0.13479  0.96933  1.0000
  C   C959      1.0  0.66537  0.01059  0.12778  1.0000
  H   H1163     1.0  0.86461  0.04222  0.10268  1.0000
  C   C960      1.0  0.67065  0.28332  0.09445  1.0000
  H   H1164     1.0  0.86123  0.02659  0.13873  1.0000
  C   C961      1.0  0.74490  0.16022  0.01652  1.0000
  C   C962      1.0  0.72012  0.13604  0.02315  1.0000
  C   C963      1.0  0.68899  0.14219  0.03780  1.0000
  C   C964      1.0  0.68262  0.17272  0.04508  1.0000
  C   C965      1.0  0.70748  0.19667  0.03844  1.0000
  C   C966      1.0  0.73868  0.19031  0.02439  1.0000
  H   H1165     1.0  0.72519  0.11264  0.01722  1.0000
  H   H1166     1.0  0.67003  0.12345  0.04320  1.0000
  H   H1167     1.0  0.70291  0.21995  0.04467  1.0000
  H   H1168     1.0  0.75814  0.20858  0.01983  1.0000
  C   C967      1.0  0.77135  0.18042  0.11567  1.0000
  C   C968      1.0  0.79610  0.16615  0.12979  1.0000
  C   C969      1.0  0.81858  0.14493  0.11765  1.0000
  C   C970      1.0  0.81611  0.13721  0.09162  1.0000
  C   C971      1.0  0.79031  0.15016  0.07823  1.0000
  C   C972      1.0  0.76831  0.17197  0.09008  1.0000
  H   H1169     1.0  0.79870  0.17231  0.14958  1.0000
  H   H1170     1.0  0.83835  0.13481  0.12824  1.0000
  H   H1171     1.0  0.78802  0.14422  0.05831  1.0000
  H   H1172     1.0  0.74916  0.18274  0.07914  1.0000
  H   H1173     1.0  0.62927  0.22492  0.15976  1.0000
  C   C973      1.0  0.91481  0.05686  0.14763  1.0000
  C   C974      1.0  0.66561  0.00602  0.01690  1.0000
  H   H1174     1.0  0.71726  0.05095  0.01365  1.0000
  H   H1175     1.0  0.90018  0.22825  0.09147  1.0000
  H   H1176     1.0  0.60746  0.23361  0.08892  1.0000
  N   N65       1.0  0.90739  0.05241  0.12031  1.0000
  H   H1177     1.0  0.50303  0.27166  0.16038  1.0000
  H   H1178     1.0  0.91487  0.26643  0.09589  1.0000
  C   C975      1.0  0.56222  0.03815  0.20469  1.0000
  C   C976      1.0  0.94537  0.17591  0.04620  1.0000
  H   H1179     1.0  0.60466  0.06256  0.01084  1.0000
  C   C977      1.0  0.72186  0.99285  0.99878  1.0000
  C   C978      1.0  0.85232  0.28748  0.11574  1.0000
  N   N66       1.0  0.86145  0.26294  0.09775  1.0000
  C   C979      1.0  0.94268  0.14927  0.03300  1.0000
  C   C980      1.0  0.71458  0.03013  0.03081  1.0000
  H   H1180     1.0  0.54060  0.16815  0.04379  1.0000
  H   H1181     1.0  0.59217  0.24225  0.19738  1.0000
  H   H1182     1.0  0.92474  0.14940  0.01921  1.0000
  C   C981      1.0  0.66078  0.99718  0.17759  1.0000
  H   H1183     1.0  0.79011  0.06241  0.14349  1.0000
  C   C982      1.0  0.64773  0.01159  0.15414  1.0000
  H   H1184     1.0  0.64609  0.17112  0.19067  1.0000
  H   H1185     1.0  0.68524  0.26662  0.01648  1.0000
  C   C983      1.0  0.91889  0.99298  0.12768  1.0000
  H   H1186     1.0  0.69007  0.27618  0.07819  1.0000
  H   H1187     1.0  0.84487  0.21732  0.08912  1.0000
  C   C984      1.0  0.87103  0.04709  0.12247  1.0000
  Fe  Fe138     1.0  0.82245  0.00456  0.20130  1.0000
  H   H1188     1.0  0.94205  0.05975  0.14711  1.0000
  S   S275      1.0  0.95323  0.04279  0.98686  1.0000
  H   H1189     1.0  0.90249  0.07856  0.15452  1.0000
  H   H1190     1.0  0.58422  0.05446  0.19618  1.0000
  H   H1191     1.0  0.64450  0.20594  0.11843  1.0000
  H   H1192     1.0  0.96161  0.10235  0.02675  1.0000
  N   N67       1.0  0.64483  0.25755  0.10491  1.0000
  C   C985      1.0  0.66225  0.22685  0.11183  1.0000
  C   C986      1.0  0.62608  0.25381  0.08245  1.0000
  H   H1193     1.0  0.68765  0.08702  0.13673  1.0000
  C   C987      1.0  0.74988  0.06909  0.08879  1.0000
  C   C988      1.0  0.89380  0.24879  0.10283  1.0000
  H   H1194     1.0  0.75471  0.06750  0.06710  1.0000
  H   H1195     1.0  0.67751  0.22814  0.12822  1.0000
  H   H1196     1.0  0.65782  0.12456  0.98929  1.0000
  H   H1197     1.0  0.64296  0.24876  0.06378  1.0000
  C   C989      1.0  0.64924  0.03608  0.01669  1.0000
  H   H1198     1.0  0.61260  0.27587  0.07553  1.0000
  C   C990      1.0  0.77507  0.06294  0.10461  1.0000
  S   S276      1.0  0.80815  0.24248  0.97280  1.0000
  C   C991      1.0  0.71025  0.98280  0.14857  1.0000
  H   H1199     1.0  0.67670  0.16378  0.97677  1.0000
  C   C992      1.0  0.91665  0.08304  0.10106  1.0000
  C   C993      1.0  0.92545  0.02414  0.11168  1.0000
  H   H1200     1.0  0.61473  0.15483  0.01700  1.0000
  S   S277      1.0  0.71542  0.17612  0.20646  1.0000
  C   C994      1.0  0.69672  0.99626  0.12511  1.0000
  H   H1201     1.0  0.95693  0.04906  0.07423  1.0000
  H   H1202     1.0  0.94337  0.08952  0.09959  1.0000
  H   H1203     1.0  0.91132  0.08164  0.08005  1.0000
  H   H1204     1.0  0.90223  0.10376  0.10779  1.0000
  H   H1205     1.0  0.84075  0.12525  0.17863  1.0000
  C   C995      1.0  0.83683  0.23587  0.10237  1.0000
  C   C996      1.0  0.61562  0.17364  0.99843  1.0000
  H   H1206     1.0  0.81218  0.24422  0.09738  1.0000
  C   C997      1.0  0.57173  0.12544  0.98864  1.0000
  H   H1207     1.0  0.56510  0.13570  0.00722  1.0000
  H   H1208     1.0  0.69361  0.08492  0.20867  1.0000
  C   C998      1.0  0.61990  0.16595  0.19782  1.0000
  S   S278      1.0  0.79710  0.98209  0.03723  1.0000
  H   H1209     1.0  0.85685  0.06859  0.12779  1.0000
  C   C999      1.0  0.74433  0.05051  0.19214  1.0000
  C   C1000     1.0  0.51509  0.99412  0.97568  1.0000
  H   H1210     1.0  0.57448  0.01618  0.00096  1.0000
  C   C1001     1.0  0.96366  0.12264  0.03733  1.0000
  C   C1002     1.0  0.48775  0.00559  0.99200  1.0000
  H   H1211     1.0  0.52702  0.09556  0.99918  1.0000
  S   S279      1.0  0.77130  0.23602  0.19643  1.0000
  H   H1212     1.0  0.68689  0.10591  0.17616  1.0000
  C   C1003     1.0  0.48386  0.19728  0.12806  1.0000
  H   H1213     1.0  0.64662  0.99718  0.19789  1.0000
  S   S280      1.0  0.50834  0.10414  0.05727  1.0000
  H   H1214     1.0  0.69908  0.08262  0.08840  1.0000
  C   C1004     1.0  0.62180  0.26654  0.12852  1.0000
  H   H1215     1.0  0.63406  0.19225  0.00044  1.0000
  H   H1216     1.0  0.54189  0.04819  0.19369  1.0000
  H   H1217     1.0  0.56804  0.01403  0.19884  1.0000
  H   H1218     1.0  0.66062  0.05705  0.02164  1.0000
  H   H1219     1.0  0.97078  0.19556  0.07471  1.0000
  N   N68       1.0  0.69980  0.00122  0.02322  1.0000
  H   H1220     1.0  0.48896  0.11382  0.14255  1.0000
  H   H1221     1.0  0.74002  0.02540  0.03585  1.0000
  H   H1222     1.0  0.68334  0.28882  0.11132  1.0000
  H   H1223     1.0  0.74934  0.11168  0.19889  1.0000
  C   C1005     1.0  0.69203  0.98265  0.17491  1.0000
  C   C1006     1.0  0.61673  0.24736  0.15518  1.0000
  C   C1007     1.0  0.95188  0.98416  0.02142  1.0000
  H   H1224     1.0  0.79955  0.05671  0.09500  1.0000
  H   H1225     1.0  0.52082  0.17351  0.15019  1.0000
  H   H1226     1.0  0.87178  0.26027  0.05443  1.0000
  S   S281      1.0  0.83987  0.05666  0.19054  1.0000
  H   H1227     1.0  0.88409  0.29753  0.06258  1.0000
  H   H1228     1.0  0.89324  0.23937  0.12508  1.0000
  H   H1229     1.0  0.74794  0.98947  0.00260  1.0000
  H   H1230     1.0  0.50902  0.19608  0.97104  1.0000
  C   C1008     1.0  0.50374  0.20051  0.02879  1.0000
  N   N69       1.0  0.62488  0.15988  0.97267  1.0000
  C   C1009     1.0  0.65849  0.14606  0.97287  1.0000
  C   C1010     1.0  0.54956  0.10215  0.98437  1.0000
  C   C1011     1.0  0.61689  0.03960  0.01064  1.0000
  H   H1231     1.0  0.73816  0.28784  0.13077  1.0000
  S   S282      1.0  0.79824  0.98625  0.16930  1.0000
  C   C1012     1.0  0.69996  0.28735  0.01803  1.0000
  C   C1013     1.0  0.95065  0.02663  0.08809  1.0000
  H   H1232     1.0  0.53270  0.22063  0.17098  1.0000
  H   H1233     1.0  0.80426  0.26623  0.13760  1.0000
  H   H1234     1.0  0.48003  0.17566  0.11973  1.0000
  H   H1235     1.0  0.84073  0.28891  0.06369  1.0000
  H   H1236     1.0  0.77169  0.04833  0.18788  1.0000
  C   C1014     1.0  0.82260  0.28534  0.13540  1.0000
  H   H1237     1.0  0.70004  0.22965  0.98538  1.0000
  C   C1015     1.0  0.57800  0.28565  0.17319  1.0000
  C   C1016     1.0  0.86462  0.27817  0.06843  1.0000
  C   C1017     1.0  0.75132  0.10788  0.17712  1.0000
  S   S283      1.0  0.69488  0.25086  0.18540  1.0000
  H   H1238     1.0  0.68120  0.06237  0.18425  1.0000
  N   N70       1.0  0.73229  0.07886  0.17478  1.0000
  C   C1018     1.0  0.59982  0.01349  0.00498  1.0000
  H   H1239     1.0  0.77822  0.10598  0.16909  1.0000
  C   C1019     1.0  0.69688  0.08318  0.18634  1.0000
  C   C1020     1.0  0.73756  0.07446  0.14552  1.0000
  C   C1021     1.0  0.71238  0.08035  0.12877  1.0000
  C   C1022     1.0  0.76927  0.06599  0.13246  1.0000
  C   C1023     1.0  0.71864  0.07782  0.10081  1.0000
  C   C1024     1.0  0.96858  0.17522  0.06425  1.0000
  C   C1025     1.0  0.51440  0.22229  0.15726  1.0000
  H   H1240     1.0  0.62355  0.02250  0.15637  1.0000
  H   H1241     1.0  0.89977  0.98904  0.14570  1.0000
  H   H1242     1.0  0.76860  0.29840  0.08305  1.0000
  H   H1243     1.0  0.73317  0.02777  0.18872  1.0000
  C   C1026     1.0  0.81572  0.30818  0.15302  1.0000
  H   H1244     1.0  0.59112  0.18564  0.99923  1.0000
  C   C1027     1.0  0.50758  0.19564  0.14560  1.0000
  H   H1245     1.0  0.66021  0.30605  0.08479  1.0000
  H   H1246     1.0  0.77247  0.07878  0.96875  1.0000
  H   H1247     1.0  0.56150  0.29295  0.19035  1.0000
  C   C1028     1.0  0.82643  0.11817  0.19896  1.0000
  C   C1029     1.0  0.96885  0.99982  0.08169  1.0000
  H   H1248     1.0  0.81450  0.16703  0.20436  1.0000
  H   H1249     1.0  0.79309  0.30602  0.16808  1.0000
  S   S284      1.0  0.79652  0.30821  0.02118  1.0000
  C   C1030     1.0  0.58218  0.30488  0.14729  1.0000
  C   C1031     1.0  0.82215  0.08538  0.21027  1.0000
  H   H1250     1.0  0.74553  0.20073  0.96362  1.0000
  C   C1032     1.0  0.70686  0.23450  0.96318  1.0000
  C   C1033     1.0  0.75342  0.31125  0.02031  1.0000
  H   H1251     1.0  0.60647  0.31142  0.10558  1.0000
  C   C1034     1.0  0.61516  0.98379  0.00495  1.0000
  C   C1035     1.0  0.64768  0.98009  0.01049  1.0000
  Fe  Fe139     1.0  0.72887  0.26666  0.21210  1.0000
  H   H1252     1.0  0.68163  0.97881  0.06489  1.0000
  N   N71       1.0  0.55681  0.11478  0.39677  1.0000
  H   H1253     1.0  0.55833  0.29046  0.40859  1.0000
  C   C1036     1.0  0.54403  0.13744  0.41573  1.0000
  C   C1037     1.0  0.78788  0.27761  0.25759  1.0000
  H   H1254     1.0  0.55728  0.18010  0.24816  1.0000
  H   H1255     1.0  0.83929  0.19726  0.24740  1.0000
  Fe  Fe140     1.0  0.67860  0.21171  0.22119  1.0000
  H   H1256     1.0  0.84607  0.13405  0.42189  1.0000
  S   S285      1.0  0.51674  0.23449  0.29763  1.0000
  H   H1257     1.0  0.51794  0.07823  0.40988  1.0000
  S   S286      1.0  0.77572  0.16267  0.25839  1.0000
  C   C1038     1.0  0.82155  0.15454  0.45647  1.0000
  C   C1039     1.0  0.52362  0.01490  0.24545  1.0000
  S   S287      1.0  0.94123  0.24172  0.34434  1.0000
  H   H1258     1.0  0.52591  0.14727  0.22363  1.0000
  H   H1259     1.0  0.74869  0.26397  0.32478  1.0000
  C   C1040     1.0  0.65536  0.19955  0.31036  1.0000
  H   H1260     1.0  0.55388  0.27292  0.45889  1.0000
  S   S288      1.0  0.73382  0.10403  0.41919  1.0000
  H   H1261     1.0  0.59077  0.00015  0.24219  1.0000
  S   S289      1.0  0.68076  0.25426  0.41118  1.0000
  Fe  Fe141     1.0  0.97570  0.25639  0.30448  1.0000
  H   H1262     1.0  0.67658  0.29532  0.25408  1.0000
  Fe  Fe142     1.0  0.63127  0.00956  0.31051  1.0000
  S   S290      1.0  0.59818  0.99918  0.35128  1.0000
  S   S291      1.0  0.62930  0.06091  0.28841  1.0000
  H   H1263     1.0  0.80057  0.05108  0.24555  1.0000
  H   H1264     1.0  0.79686  0.14704  0.45421  1.0000
  Fe  Fe143     1.0  0.70662  0.13853  0.44493  1.0000
  H   H1265     1.0  0.59103  0.07525  0.39581  1.0000
  H   H1266     1.0  0.69551  0.29243  0.32423  1.0000
  H   H1267     1.0  0.55575  0.14997  0.36041  1.0000
  C   C1041     1.0  0.62236  0.29685  0.35876  1.0000
  Fe  Fe144     1.0  0.52402  0.25156  0.33683  1.0000
  C   C1042     1.0  0.49319  0.02266  0.23567  1.0000
  H   H1268     1.0  0.59233  0.16006  0.41487  1.0000
  H   H1269     1.0  0.72968  0.29338  0.42844  1.0000
  C   C1043     1.0  0.92376  0.08924  0.40067  1.0000
  Fe  Fe145     1.0  0.94950  0.19136  0.33585  1.0000
  S   S292      1.0  0.90558  0.15859  0.33843  1.0000
  C   C1044     1.0  0.50544  0.29157  0.40948  1.0000
  C   C1045     1.0  0.90526  0.06295  0.39665  1.0000
  C   C1046     1.0  0.92435  0.11870  0.38262  1.0000
  C   C1047     1.0  0.90584  0.12201  0.36103  1.0000
  C   C1048     1.0  0.88688  0.09586  0.35745  1.0000
  C   C1049     1.0  0.88694  0.06625  0.37500  1.0000
  H   H1270     1.0  0.87256  0.09832  0.34077  1.0000
  H   H1271     1.0  0.87270  0.04594  0.37178  1.0000
  C   C1050     1.0  0.59299  0.08231  0.29855  1.0000
  C   C1051     1.0  0.56366  0.06587  0.31205  1.0000
  C   C1052     1.0  0.53472  0.08301  0.31916  1.0000
  C   C1053     1.0  0.53492  0.11682  0.31351  1.0000
  C   C1054     1.0  0.56432  0.13343  0.30043  1.0000
  C   C1055     1.0  0.59309  0.11617  0.29256  1.0000
  H   H1272     1.0  0.56273  0.03984  0.31613  1.0000
  H   H1273     1.0  0.63703  0.02995  0.43926  1.0000
  H   H1274     1.0  0.56476  0.15953  0.29580  1.0000
  H   H1275     1.0  0.61529  0.12924  0.28155  1.0000
  N   N72       1.0  0.55350  0.03596  0.23501  1.0000
  H   H1276     1.0  0.58256  0.11677  0.35511  1.0000
  C   C1056     1.0  0.59704  0.27398  0.36037  1.0000
  C   C1057     1.0  0.64724  0.29068  0.37507  1.0000
  C   C1058     1.0  0.64724  0.26148  0.39300  1.0000
  C   C1059     1.0  0.62146  0.23870  0.39529  1.0000
  C   C1060     1.0  0.59625  0.24493  0.37890  1.0000
  H   H1277     1.0  0.62129  0.21621  0.40929  1.0000
  H   H1278     1.0  0.57654  0.22729  0.38033  1.0000
  Fe  Fe146     1.0  0.74859  0.19739  0.23094  1.0000
  S   S293      1.0  0.96559  0.29493  0.26942  1.0000
  C   C1061     1.0  0.84019  0.20192  0.30030  1.0000
  C   C1062     1.0  0.70970  0.07175  0.41376  1.0000
  C   C1063     1.0  0.72249  0.05304  0.39374  1.0000
  C   C1064     1.0  0.70435  0.02621  0.38996  1.0000
  C   C1065     1.0  0.67372  0.01752  0.40667  1.0000
  C   C1066     1.0  0.66070  0.03658  0.42634  1.0000
  C   C1067     1.0  0.67843  0.06389  0.42966  1.0000
  H   H1279     1.0  0.74672  0.05896  0.38145  1.0000
  H   H1280     1.0  0.67186  0.31063  0.44117  1.0000
  H   H1281     1.0  0.90134  0.15045  0.42644  1.0000
  H   H1282     1.0  0.60531  0.04088  0.23879  1.0000
  C   C1068     1.0  0.83977  0.25255  0.26860  1.0000
  H   H1283     1.0  0.90521  0.20706  0.28856  1.0000
  C   C1069     1.0  0.65928  0.21093  0.33435  1.0000
  H   H1284     1.0  0.49129  0.12223  0.42389  1.0000
  H   H1285     1.0  0.85467  0.18029  0.30692  1.0000
  H   H1286     1.0  0.87769  0.18253  0.25683  1.0000
  S   S294      1.0  0.70993  0.22955  0.24883  1.0000
  H   H1287     1.0  0.95429  0.00203  0.34735  1.0000
  H   H1288     1.0  0.93881  0.13889  0.38559  1.0000
  C   C1070     1.0  0.89216  0.22975  0.28220  1.0000
  H   H1289     1.0  0.77622  0.09312  0.27221  1.0000
  C   C1071     1.0  0.80551  0.04516  0.43177  1.0000
  H   H1290     1.0  0.51145  0.10850  0.38085  1.0000
  C   C1072     1.0  0.57336  0.13311  0.37006  1.0000
  S   S295      1.0  0.67662  0.98485  0.32429  1.0000
  C   C1073     1.0  0.56987  0.17092  0.23026  1.0000
  C   C1074     1.0  0.79367  0.13288  0.24001  1.0000
  C   C1075     1.0  0.78995  0.10014  0.25167  1.0000
  C   C1076     1.0  0.80368  0.07633  0.23660  1.0000
  S   S296      1.0  0.49754  0.13682  0.32270  1.0000
  H   H1291     1.0  0.57921  0.02352  0.26967  1.0000
  C   C1077     1.0  0.52149  0.18060  0.45282  1.0000
  H   H1292     1.0  0.52702  0.08088  0.23080  1.0000
  H   H1293     1.0  0.56985  0.07962  0.42942  1.0000
  C   C1078     1.0  0.58137  0.09328  0.40909  1.0000
  H   H1294     1.0  0.90881  0.24323  0.26405  1.0000
  C   C1079     1.0  0.54648  0.06871  0.24172  1.0000
  C   C1080     1.0  0.94718  0.17451  0.44605  1.0000
  H   H1295     1.0  0.51204  0.06992  0.32910  1.0000
  H   H1296     1.0  0.87703  0.21995  0.23338  1.0000
  H   H1297     1.0  0.65062  0.23470  0.33743  1.0000
  H   H1298     1.0  0.71475  0.01137  0.37499  1.0000
  S   S297      1.0  0.65908  0.16018  0.43409  1.0000
  Fe  Fe147     1.0  0.68207  0.20676  0.43882  1.0000
  C   C1081     1.0  0.56611  0.15941  0.42298  1.0000
  C   C1082     1.0  0.86341  0.20495  0.25232  1.0000
  H   H1299     1.0  0.79372  0.22699  0.26698  1.0000
  C   C1083     1.0  0.55493  0.18059  0.44126  1.0000
  Fe  Fe148     1.0  0.92745  0.02885  0.45587  1.0000
  S   S298      1.0  0.90449  0.02578  0.41847  1.0000
  H   H1300     1.0  0.57243  0.19655  0.44703  1.0000
  S   S299      1.0  0.73142  0.18600  0.44585  1.0000
  H   H1301     1.0  0.54082  0.07730  0.37642  1.0000
  C   C1084     1.0  0.53046  0.09389  0.39082  1.0000
  H   H1302     1.0  0.78740  0.03352  0.42171  1.0000
  C   C1085     1.0  0.71848  0.30610  0.32251  1.0000
  H   H1303     1.0  0.89042  0.24373  0.29952  1.0000
  N   N73       1.0  0.69654  0.11725  0.32102  1.0000
  C   C1086     1.0  0.73075  0.11359  0.32773  1.0000
  C   C1087     1.0  0.67455  0.09194  0.33928  1.0000
  C   C1088     1.0  0.69823  0.11152  0.29219  1.0000
  C   C1089     1.0  0.68353  0.14939  0.32531  1.0000
  C   C1090     1.0  0.66739  0.16936  0.30570  1.0000
  C   C1091     1.0  0.68558  0.16111  0.35019  1.0000
  C   C1092     1.0  0.67416  0.19169  0.35432  1.0000
  H   H1304     1.0  0.73157  0.11280  0.34999  1.0000
  H   H1305     1.0  0.74202  0.09067  0.32260  1.0000
  H   H1306     1.0  0.74739  0.13379  0.31593  1.0000
  H   H1307     1.0  0.67368  0.09363  0.36142  1.0000
  H   H1308     1.0  0.68309  0.06726  0.33648  1.0000
  H   H1309     1.0  0.64866  0.09382  0.33474  1.0000
  H   H1310     1.0  0.71367  0.13043  0.27740  1.0000
  H   H1311     1.0  0.70907  0.08772  0.28916  1.0000
  H   H1312     1.0  0.67322  0.11111  0.28618  1.0000
  H   H1313     1.0  0.66384  0.16253  0.28638  1.0000
  H   H1314     1.0  0.69618  0.14684  0.36664  1.0000
  Fe  Fe149     1.0  0.49410  0.19007  0.32604  1.0000
  H   H1315     1.0  0.73827  0.05177  0.21451  1.0000
  C   C1093     1.0  0.85411  0.28418  0.26414  1.0000
  C   C1094     1.0  0.81157  0.14182  0.21350  1.0000
  H   H1316     1.0  0.97200  0.18235  0.44963  1.0000
  H   H1317     1.0  0.56896  0.08490  0.23596  1.0000
  H   H1318     1.0  0.79896  0.07114  0.42997  1.0000
  H   H1319     1.0  0.83093  0.04435  0.41972  1.0000
  H   H1320     1.0  0.76212  0.27529  0.25516  1.0000
  N   N74       1.0  0.85873  0.22303  0.27579  1.0000
  H   H1321     1.0  0.59522  0.14764  0.37213  1.0000
  H   H1322     1.0  0.66840  0.07820  0.44514  1.0000
  H   H1323     1.0  0.87960  0.28856  0.26615  1.0000
  H   H1324     1.0  0.67695  0.20061  0.37309  1.0000
  S   S300      1.0  0.50536  0.20579  0.36474  1.0000
  S   S301      1.0  0.78503  0.98141  0.23697  1.0000
  C   C1095     1.0  0.58335  0.02440  0.24697  1.0000
  H   H1325     1.0  0.81647  0.19212  0.29635  1.0000
  S   S302      1.0  0.62531  0.20045  0.23934  1.0000
  H   H1326     1.0  0.93802  0.08674  0.41739  1.0000
  H   H1327     1.0  0.83458  0.21505  0.31812  1.0000
  C   C1096     1.0  0.53408  0.28681  0.42140  1.0000
  H   H1328     1.0  0.60328  0.10676  0.41255  1.0000
  H   H1329     1.0  0.53776  0.06781  0.26412  1.0000
  C   C1097     1.0  0.49910  0.15940  0.44619  1.0000
  H   H1330     1.0  0.64319  0.21436  0.29503  1.0000
  S   S303      1.0  0.56744  0.28331  0.33854  1.0000
  C   C1098     1.0  0.51001  0.13807  0.42792  1.0000
  C   C1099     1.0  0.80613  0.25015  0.26477  1.0000
  H   H1331     1.0  0.66686  0.30848  0.37342  1.0000
  C   C1100     1.0  0.53151  0.27706  0.44972  1.0000
  H   H1332     1.0  0.47966  0.99661  0.40240  1.0000
  C   C1101     1.0  0.74844  0.29006  0.32271  1.0000
  C   C1102     1.0  0.60383  0.17739  0.22126  1.0000
  H   H1333     1.0  0.94536  0.18518  0.42440  1.0000
  C   C1103     1.0  0.84923  0.14719  0.43836  1.0000
  C   C1104     1.0  0.52339  0.98686  0.26578  1.0000
  H   H1334     1.0  0.82382  0.99028  0.42057  1.0000
  H   H1335     1.0  0.80146  0.29518  0.31925  1.0000
  C   C1105     1.0  0.88111  0.15691  0.44116  1.0000
  C   C1106     1.0  0.73114  0.29092  0.45079  1.0000
  H   H1336     1.0  0.91640  0.23174  0.44149  1.0000
  H   H1337     1.0  0.72112  0.26642  0.46061  1.0000
  C   C1107     1.0  0.55209  0.15248  0.21627  1.0000
  H   H1338     1.0  0.75787  0.29155  0.45274  1.0000
  H   H1339     1.0  0.54499  0.97928  0.27500  1.0000
  H   H1340     1.0  0.50781  0.29845  0.38730  1.0000
  H   H1341     1.0  0.94780  0.14772  0.44803  1.0000
  S   S304      1.0  0.65354  0.98085  0.40580  1.0000
  C   C1108     1.0  0.80263  0.30817  0.25336  1.0000
  C   C1109     1.0  0.96832  0.98519  0.35976  1.0000
  C   C1110     1.0  0.83565  0.31144  0.25660  1.0000
  H   H1342     1.0  0.49141  0.04386  0.22047  1.0000
  C   C1111     1.0  0.77805  0.30764  0.31976  1.0000
  H   H1343     1.0  0.92078  0.31033  0.31753  1.0000
  N   N75       1.0  0.80429  0.02976  0.46096  1.0000
  C   C1112     1.0  0.92149  0.22077  0.46226  1.0000
  C   C1113     1.0  0.88622  0.17448  0.46229  1.0000
  H   H1344     1.0  0.50672  0.00553  0.62967  1.0000
  H   H1345     1.0  0.96082  0.98180  0.60347  1.0000
  H   H1346     1.0  0.81939  0.24050  0.69458  1.0000
  S   S305      1.0  0.52549  0.20616  0.69181  1.0000
  H   H1347     1.0  0.78882  0.01486  0.66637  1.0000
  C   C1114     1.0  0.96319  0.30772  0.67123  1.0000
  C   C1115     1.0  0.50023  0.27256  0.46627  1.0000
  C   C1116     1.0  0.77457  0.22677  0.54795  1.0000
  C   C1117     1.0  0.67014  0.16462  0.63475  1.0000
  H   H1348     1.0  0.59365  0.03161  0.47807  1.0000
  Fe  Fe150     1.0  0.90701  0.02096  0.51768  1.0000
  H   H1349     1.0  0.61923  0.08260  0.48484  1.0000
  C   C1118     1.0  0.96325  0.09035  0.66316  1.0000
  H   H1350     1.0  0.82765  0.03894  0.49519  1.0000
  C   C1119     1.0  0.96820  0.15698  0.64576  1.0000
  H   H1351     1.0  0.59241  0.25882  0.50631  1.0000
  S   S306      1.0  0.91086  0.06412  0.48413  1.0000
  C   C1120     1.0  0.88973  0.20434  0.69627  1.0000
  C   C1121     1.0  0.60203  0.01090  0.61349  1.0000
  C   C1122     1.0  0.63905  0.19286  0.59999  1.0000
  S   S307      1.0  0.91634  0.29071  0.54515  1.0000
  C   C1123     1.0  0.57238  0.10594  0.49311  1.0000
  C   C1124     1.0  0.54339  0.04831  0.48472  1.0000
  C   C1125     1.0  0.73924  0.26254  0.71139  1.0000
  C   C1126     1.0  0.52328  0.07404  0.49099  1.0000
  C   C1127     1.0  0.53773  0.10259  0.49556  1.0000
  H   H1352     1.0  0.66446  0.16698  0.55159  1.0000
  H   H1353     1.0  0.52202  0.12229  0.50075  1.0000
  H   H1354     1.0  0.55220  0.24377  0.63925  1.0000
  H   H1355     1.0  0.80550  0.25690  0.56557  1.0000
  H   H1356     1.0  0.49656  0.07192  0.49254  1.0000
  N   N76       1.0  0.91965  0.18503  0.46591  1.0000
  C   C1128     1.0  0.89505  0.26049  0.65719  1.0000
  C   C1129     1.0  0.90282  0.23070  0.64883  1.0000
  C   C1130     1.0  0.89932  0.20253  0.66834  1.0000
  C   C1131     1.0  0.75079  0.98603  0.65586  1.0000
  N   N77       1.0  0.49018  0.00365  0.59093  1.0000
  S   S308      1.0  0.58974  0.14181  0.49943  1.0000
  H   H1357     1.0  0.90411  0.17936  0.66194  1.0000
  H   H1358     1.0  0.51551  0.98836  0.53848  1.0000
  C   C1132     1.0  0.63720  0.17001  0.55745  1.0000
  H   H1359     1.0  0.80402  0.17747  0.49147  1.0000
  C   C1133     1.0  0.55120  0.24118  0.68289  1.0000
  C   C1134     1.0  0.56265  0.25538  0.70325  1.0000
  C   C1135     1.0  0.58490  0.28194  0.69582  1.0000
  H   H1360     1.0  0.53496  0.14407  0.66986  1.0000
  C   C1136     1.0  0.88545  0.26233  0.68510  1.0000
  C   C1137     1.0  0.56136  0.25437  0.65507  1.0000
  S   S309      1.0  0.68870  0.12875  0.49068  1.0000
  C   C1138     1.0  0.51930  0.26566  0.54879  1.0000
  C   C1139     1.0  0.58376  0.28094  0.64762  1.0000
  C   C1140     1.0  0.63608  0.20940  0.64541  1.0000
  H   H1361     1.0  0.80545  0.98787  0.50933  1.0000
  C   C1141     1.0  0.57490  0.26717  0.52230  1.0000
  N   N78       1.0  0.62964  0.19798  0.57215  1.0000
  H   H1362     1.0  0.82369  0.07380  0.47019  1.0000
  C   C1142     1.0  0.49626  0.98806  0.61855  1.0000
  H   H1363     1.0  0.96970  0.18295  0.63910  1.0000
  C   C1143     1.0  0.59610  0.29434  0.66802  1.0000
  C   C1144     1.0  0.76799  0.99813  0.67414  1.0000
  C   C1145     1.0  0.76289  0.22112  0.52406  1.0000
  C   C1146     1.0  0.54763  0.08500  0.69570  1.0000
  H   H1364     1.0  0.89721  0.28232  0.64235  1.0000
  Fe  Fe151     1.0  0.64286  0.15427  0.47984  1.0000
  S   S310      1.0  0.83460  0.30694  0.51999  1.0000
  H   H1365     1.0  0.70561  0.28968  0.50475  1.0000
  C   C1147     1.0  0.57800  0.05144  0.48275  1.0000
  C   C1148     1.0  0.61041  0.02201  0.58526  1.0000
  S   S311      1.0  0.95941  0.02671  0.52509  1.0000
  N   N79       1.0  0.77572  0.26531  0.71008  1.0000
  S   S312      1.0  0.57674  0.98686  0.70853  1.0000
  H   H1366     1.0  0.59389  0.29253  0.71174  1.0000
  C   C1149     1.0  0.94700  0.10481  0.64177  1.0000
  H   H1367     1.0  0.51303  0.19671  0.46728  1.0000
  H   H1368     1.0  0.76636  0.23642  0.48045  1.0000
  C   C1150     1.0  0.78838  0.29743  0.69489  1.0000
  H   H1369     1.0  0.66277  0.06795  0.65267  1.0000
  H   H1370     1.0  0.57616  0.16057  0.66629  1.0000
  C   C1151     1.0  0.82563  0.17177  0.47738  1.0000
  H   H1371     1.0  0.51174  0.29623  0.57975  1.0000
  C   C1152     1.0  0.56168  0.13758  0.66863  1.0000
  H   H1372     1.0  0.95155  0.17720  0.49698  1.0000
  H   H1373     1.0  0.89802  0.00151  0.67039  1.0000
  C   C1153     1.0  0.79198  0.23996  0.69539  1.0000
  C   C1154     1.0  0.67161  0.09154  0.68613  1.0000
  C   C1155     1.0  0.56220  0.30047  0.55776  1.0000
  H   H1374     1.0  0.57844  0.18486  0.58885  1.0000
  S   S313      1.0  0.57299  0.03160  0.63344  1.0000
  C   C1156     1.0  0.77024  0.03396  0.47565  1.0000
  H   H1375     1.0  0.62598  0.14721  0.57005  1.0000
  C   C1157     1.0  0.63139  0.00394  0.56871  1.0000
  S   S314      1.0  0.91770  0.22892  0.61419  1.0000
  H   H1376     1.0  0.49943  0.26455  0.48807  1.0000
  C   C1158     1.0  0.94952  0.13808  0.63307  1.0000
  H   H1377     1.0  0.68740  0.14608  0.64065  1.0000
  H   H1378     1.0  0.55153  0.07454  0.67638  1.0000
  H   H1379     1.0  0.76610  0.21128  0.56735  1.0000
  C   C1159     1.0  0.72504  0.26815  0.68686  1.0000
  H   H1380     1.0  0.52041  0.08902  0.70050  1.0000
  C   C1160     1.0  0.65721  0.18474  0.65332  1.0000
  H   H1381     1.0  0.75164  0.01960  0.46827  1.0000
  C   C1161     1.0  0.79703  0.25254  0.54699  1.0000
  H   H1382     1.0  0.61204  0.23396  0.61352  1.0000
  H   H1383     1.0  0.76261  0.05966  0.47230  1.0000
  H   H1384     1.0  0.56876  0.12711  0.64948  1.0000
  C   C1162     1.0  0.65783  0.10973  0.70596  1.0000
  C   C1163     1.0  0.54239  0.25443  0.52868  1.0000
  H   H1385     1.0  0.63725  0.01214  0.54672  1.0000
  H   H1386     1.0  0.67299  0.15268  0.59482  1.0000
  H   H1387     1.0  0.88723  0.18253  0.71135  1.0000
  H   H1388     1.0  0.92276  0.14480  0.49809  1.0000
  H   H1389     1.0  0.60008  0.04415  0.57604  1.0000
  H   H1390     1.0  0.78277  0.21546  0.70589  1.0000
  S   S315      1.0  0.85994  0.01441  0.54893  1.0000
  H   H1391     1.0  0.66403  0.18159  0.67371  1.0000
  C   C1164     1.0  0.52926  0.28849  0.56351  1.0000
  C   C1165     1.0  0.59337  0.20382  0.57368  1.0000
  H   H1392     1.0  0.88110  0.99642  0.62677  1.0000
  C   C1166     1.0  0.79658  0.26706  0.49816  1.0000
  H   H1393     1.0  0.58502  0.20386  0.55347  1.0000
  C   C1167     1.0  0.77435  0.24116  0.49908  1.0000
  H   H1394     1.0  0.58622  0.22777  0.57928  1.0000
  H   H1395     1.0  0.75840  0.99338  0.63382  1.0000
  Fe  Fe152     1.0  0.90891  0.27744  0.59100  1.0000
  Fe  Fe153     1.0  0.55198  0.99753  0.67130  1.0000
  S   S316      1.0  0.50290  0.01051  0.69332  1.0000
  H   H1396     1.0  0.67565  0.22286  0.55300  1.0000
  H   H1397     1.0  0.59192  0.29067  0.62612  1.0000
  H   H1398     1.0  0.62659  0.22551  0.65968  1.0000
  C   C1168     1.0  0.62744  0.21374  0.61905  1.0000
  H   H1399     1.0  0.85917  0.19538  0.49662  1.0000
  H   H1400     1.0  0.81558  0.30067  0.69472  1.0000
  H   H1401     1.0  0.96071  0.06444  0.66909  1.0000
  H   H1402     1.0  0.51836  0.03467  0.55597  1.0000
  Fe  Fe154     1.0  0.70954  0.17851  0.49068  1.0000
  H   H1403     1.0  0.94668  0.22957  0.46403  1.0000
  C   C1169     1.0  0.80787  0.27307  0.52211  1.0000
  H   H1404     1.0  0.66721  0.28725  0.47464  1.0000
  C   C1170     1.0  0.61854  0.09019  0.67042  1.0000
  Fe  Fe155     1.0  0.97288  0.99504  0.49281  1.0000
  C   C1171     1.0  0.59252  0.08035  0.48647  1.0000
  H   H1405     1.0  0.74041  0.27482  0.66693  1.0000
  H   H1406     1.0  0.80535  0.28249  0.47878  1.0000
  C   C1172     1.0  0.81242  0.99503  0.46434  1.0000
  H   H1407     1.0  0.64135  0.23225  0.53462  1.0000
  S   S317      1.0  0.66201  0.20311  0.48358  1.0000
  H   H1408     1.0  0.63676  0.98825  0.48304  1.0000
  H   H1409     1.0  0.93497  0.99496  0.70205  1.0000
  H   H1410     1.0  0.64334  0.24856  0.56526  1.0000
  C   C1173     1.0  0.64828  0.22660  0.55554  1.0000
  C   C1174     1.0  0.82838  0.04744  0.47275  1.0000
  H   H1411     1.0  0.53507  0.23604  0.51780  1.0000
  C   C1175     1.0  0.58491  0.29025  0.53678  1.0000
  S   S318      1.0  0.62600  0.30542  0.52817  1.0000
  C   C1176     1.0  0.52155  0.02059  0.57633  1.0000
  S   S319      1.0  0.73439  0.18857  0.52627  1.0000
  C   C1177     1.0  0.65206  0.08199  0.66823  1.0000
  H   H1412     1.0  0.60443  0.08233  0.65601  1.0000
  S   S320      1.0  0.85775  0.29736  0.59832  1.0000
  C   C1178     1.0  0.75834  0.98876  0.70242  1.0000
  C   C1179     1.0  0.92577  0.17160  0.49405  1.0000
  C   C1180     1.0  0.66143  0.16857  0.60841  1.0000
  C   C1181     1.0  0.69075  0.26490  0.68749  1.0000
  H   H1413     1.0  0.90345  0.23071  0.47786  1.0000
  H   H1414     1.0  0.62709  0.17300  0.53775  1.0000
  H   H1415     1.0  0.85419  0.04415  0.46241  1.0000
  H   H1416     1.0  0.90873  0.18130  0.51039  1.0000
  Fe  Fe156     1.0  0.96459  0.06660  0.48874  1.0000
  H   H1417     1.0  0.69747  0.08478  0.68470  1.0000
  H   H1418     1.0  0.88078  0.28556  0.69155  1.0000
  C   C1182     1.0  0.88361  0.23430  0.70464  1.0000
  N   N80       1.0  0.56753  0.11511  0.69348  1.0000
  C   C1183     1.0  0.60338  0.10777  0.69101  1.0000
  H   H1419     1.0  0.79368  0.98970  0.56878  1.0000
  S   S321      1.0  0.91993  0.98553  0.48896  1.0000
  H   H1420     1.0  0.68034  0.26970  0.66854  1.0000
  H   H1421     1.0  0.78542  0.30114  0.67285  1.0000
  C   C1184     1.0  0.85740  0.18180  0.48022  1.0000
  H   H1422     1.0  0.93676  0.14945  0.61662  1.0000
  H   H1423     1.0  0.78767  0.24283  0.67368  1.0000
  H   H1424     1.0  0.95241  0.28439  0.68326  1.0000
  C   C1185     1.0  0.62427  0.11790  0.70842  1.0000
  H   H1425     1.0  0.54217  0.00340  0.57323  1.0000
  S   S322      1.0  0.52600  0.01207  0.47917  1.0000
  H   H1426     1.0  0.53020  0.03829  0.58825  1.0000
  H   H1427     1.0  0.76803  0.02638  0.49829  1.0000
  H   H1428     1.0  0.93243  0.09018  0.63180  1.0000
  C   C1186     1.0  0.61553  0.98237  0.62544  1.0000
  C   C1187     1.0  0.67652  0.31105  0.46251  1.0000
  Fe  Fe157     1.0  0.67806  0.12965  0.87222  1.0000
  S   S323      1.0  0.70354  0.13774  0.82838  1.0000
  C   C1188     1.0  0.59058  0.04514  0.75850  1.0000
  Fe  Fe158     1.0  0.62873  0.18223  0.86105  1.0000
  S   S324      1.0  0.64921  0.19450  0.81568  1.0000
  S   S325      1.0  0.58985  0.20589  0.88819  1.0000
  Fe  Fe159     1.0  0.65180  0.14022  0.81751  1.0000
  S   S326      1.0  0.64626  0.11104  0.78358  1.0000
  Fe  Fe160     1.0  0.69894  0.19096  0.82988  1.0000
  S   S327      1.0  0.74438  0.22430  0.81546  1.0000
  S   S328      1.0  0.62678  0.12863  0.86161  1.0000
  S   S329      1.0  0.67811  0.18225  0.87491  1.0000
  H   H1429     1.0  0.77169  0.99830  0.71667  1.0000
  H   H1430     1.0  0.87770  0.13835  0.88849  1.0000
  C   C1189     1.0  0.86587  0.03685  0.77198  1.0000
  C   C1190     1.0  0.51504  0.24400  0.88295  1.0000
  S   S330      1.0  0.92143  0.19401  0.79878  1.0000
  S   S331      1.0  0.93634  0.10119  0.80382  1.0000
  H   H1431     1.0  0.67285  0.11678  0.72025  1.0000
  C   C1191     1.0  0.82277  0.03018  0.85932  1.0000
  Fe  Fe161     1.0  0.50649  0.21727  0.79059  1.0000
  C   C1192     1.0  0.64383  0.02624  0.83914  1.0000
  H   H1432     1.0  0.86231  0.07771  0.74035  1.0000
  S   S332      1.0  0.52680  0.17450  0.77201  1.0000
  H   H1433     1.0  0.54894  0.17236  0.93729  1.0000
  C   C1193     1.0  0.51107  0.15085  0.92007  1.0000
  S   S333      1.0  0.94481  0.17056  0.73801  1.0000
  H   H1434     1.0  0.81361  0.26459  0.73585  1.0000
  C   C1194     1.0  0.55729  0.28116  0.79532  1.0000
  H   H1435     1.0  0.60164  0.19745  0.94805  1.0000
  H   H1436     1.0  0.80916  0.17222  0.91431  1.0000
  H   H1437     1.0  0.87888  0.18167  0.88082  1.0000
  H   H1438     1.0  0.95200  0.18977  0.85762  1.0000
  H   H1439     1.0  0.68030  0.06465  0.82738  1.0000
  C   C1195     1.0  0.78621  0.26143  0.73761  1.0000
  C   C1196     1.0  0.72951  0.09491  0.91495  1.0000
  H   H1440     1.0  0.79171  0.04001  0.82782  1.0000
  H   H1441     1.0  0.71307  0.04473  0.86288  1.0000
  S   S334      1.0  0.87437  0.25221  0.91047  1.0000
  C   C1197     1.0  0.88042  0.02508  0.79509  1.0000
  C   C1198     1.0  0.90250  0.04486  0.80432  1.0000
  C   C1199     1.0  0.90964  0.07667  0.79088  1.0000
  C   C1200     1.0  0.89498  0.08845  0.76784  1.0000
  C   C1201     1.0  0.87351  0.06845  0.75822  1.0000
  C   C1202     1.0  0.73371  0.00442  0.90025  1.0000
  H   H1442     1.0  0.91386  0.03564  0.82209  1.0000
  H   H1443     1.0  0.81449  0.09512  0.81051  1.0000
  C   C1203     1.0  0.84823  0.09265  0.83974  1.0000
  C   C1204     1.0  0.67263  0.04249  0.84150  1.0000
  H   H1444     1.0  0.73083  0.03003  0.90327  1.0000
  S   S335      1.0  0.52358  0.02863  0.76448  1.0000
  H   H1445     1.0  0.53869  0.06937  0.95799  1.0000
  C   C1205     1.0  0.87048  0.29355  0.89910  1.0000
  C   C1206     1.0  0.61205  0.08637  0.78102  1.0000
  C   C1207     1.0  0.57981  0.09031  0.79459  1.0000
  C   C1208     1.0  0.55304  0.07197  0.78980  1.0000
  C   C1209     1.0  0.55819  0.04971  0.77135  1.0000
  C   C1210     1.0  0.61729  0.06322  0.76344  1.0000
  H   H1446     1.0  0.57532  0.10814  0.80810  1.0000
  H   H1447     1.0  0.52809  0.07574  0.79985  1.0000
  H   H1448     1.0  0.64218  0.05959  0.75318  1.0000
  C   C1211     1.0  0.60158  0.24529  0.89104  1.0000
  C   C1212     1.0  0.62507  0.26316  0.87072  1.0000
  H   H1449     1.0  0.58979  0.08423  0.92376  1.0000
  C   C1213     1.0  0.62658  0.18692  0.94930  1.0000
  C   C1214     1.0  0.59501  0.29107  0.91565  1.0000
  C   C1215     1.0  0.58661  0.25929  0.91354  1.0000
  H   H1450     1.0  0.63670  0.25254  0.85327  1.0000
  H   H1451     1.0  0.62852  0.12512  0.93016  1.0000
  H   H1452     1.0  0.86361  0.25624  0.81218  1.0000
  H   H1453     1.0  0.56830  0.24569  0.92929  1.0000
  C   C1216     1.0  0.74274  0.26692  0.81060  1.0000
  C   C1217     1.0  0.71534  0.28348  0.80209  1.0000
  H   H1454     1.0  0.74921  0.00355  0.87986  1.0000
  S   S336      1.0  0.48399  0.24051  0.75465  1.0000
  H   H1455     1.0  0.61079  0.98565  0.85573  1.0000
  C   C1218     1.0  0.77102  0.28460  0.81289  1.0000
  H   H1456     1.0  0.69339  0.27014  0.80023  1.0000
  N   N81       1.0  0.48621  0.26532  0.88697  1.0000
  H   H1457     1.0  0.84803  0.28699  0.86402  1.0000
  H   H1458     1.0  0.79232  0.27198  0.81941  1.0000
  H   H1459     1.0  0.51048  0.22487  0.87087  1.0000
  C   C1219     1.0  0.75559  0.10765  0.89430  1.0000
  C   C1220     1.0  0.78774  0.11009  0.90054  1.0000
  H   H1460     1.0  0.75097  0.11585  0.87355  1.0000
  H   H1461     1.0  0.80778  0.12038  0.88460  1.0000
  H   H1462     1.0  0.85882  0.11653  0.83145  1.0000
  N   N82       1.0  0.86113  0.02050  0.89451  1.0000
  C   C1221     1.0  0.88797  0.03598  0.90518  1.0000
  H   H1463     1.0  0.93678  0.11026  0.93546  1.0000
  C   C1222     1.0  0.83363  0.01118  0.91788  1.0000
  C   C1223     1.0  0.73309  0.21789  0.95032  1.0000
  C   C1224     1.0  0.78809  0.18409  0.92569  1.0000
  H   H1464     1.0  0.78809  0.24923  0.87560  1.0000
  C   C1225     1.0  0.85538  0.29492  0.78039  1.0000
  C   C1226     1.0  0.76056  0.19060  0.88645  1.0000
  H   H1465     1.0  0.88031  0.08439  0.86930  1.0000
  H   H1466     1.0  0.59709  0.27448  0.81912  1.0000
  C   C1227     1.0  0.72468  0.24719  0.90603  1.0000
  N   N83       1.0  0.70099  0.98791  0.90254  1.0000
  C   C1228     1.0  0.74305  0.22398  0.92127  1.0000
  C   C1229     1.0  0.85665  0.30428  0.87532  1.0000
  C   C1230     1.0  0.89410  0.15971  0.87924  1.0000
  H   H1467     1.0  0.83614  0.28178  0.77389  1.0000
  H   H1468     1.0  0.74121  0.17201  0.89654  1.0000
  N   N84       1.0  0.77170  0.20801  0.90702  1.0000
  C   C1231     1.0  0.71699  0.25300  0.73652  1.0000
  H   H1469     1.0  0.90991  0.04280  0.88881  1.0000
  C   C1232     1.0  0.76792  0.08637  0.94793  1.0000
  H   H1470     1.0  0.66620  0.24276  0.75634  1.0000
  C   C1233     1.0  0.81056  0.04946  0.83763  1.0000
  H   H1471     1.0  0.51794  0.00887  0.82300  1.0000
  H   H1472     1.0  0.93137  0.21203  0.88252  1.0000
  H   H1473     1.0  0.87903  0.05792  0.91382  1.0000
  C   C1234     1.0  0.55604  0.08733  0.96110  1.0000
  H   H1474     1.0  0.95411  0.13956  0.84631  1.0000
  C   C1235     1.0  0.87089  0.28057  0.80207  1.0000
  C   C1236     1.0  0.68977  0.25754  0.94768  1.0000
  C   C1237     1.0  0.60685  0.11918  0.94584  1.0000
  C   C1238     1.0  0.63252  0.29533  0.87231  1.0000
  H   H1475     1.0  0.62954  0.03561  0.82314  1.0000
  H   H1476     1.0  0.90746  0.28431  0.82705  1.0000
  C   C1239     1.0  0.73579  0.08367  0.94164  1.0000
  H   H1477     1.0  0.89707  0.01959  0.92221  1.0000
  H   H1478     1.0  0.89199  0.00060  0.71671  1.0000
  H   H1479     1.0  0.73067  0.25304  0.88381  1.0000
  H   H1480     1.0  0.89690  0.18731  0.92303  1.0000
  H   H1481     1.0  0.82180  0.03298  0.92506  1.0000
  C   C1240     1.0  0.48970  0.11208  0.88394  1.0000
  H   H1482     1.0  0.81258  0.00594  0.86584  1.0000
  Fe  Fe162     1.0  0.97178  0.21830  0.79132  1.0000
  Fe  Fe163     1.0  0.50169  0.19686  0.73661  1.0000
  C   C1241     1.0  0.55478  0.13026  0.71795  1.0000
  C   C1242     1.0  0.52248  0.16878  0.93813  1.0000
  H   H1483     1.0  0.52760  0.13474  0.71969  1.0000
  H   H1484     1.0  0.58320  0.30165  0.93299  1.0000
  C   C1243     1.0  0.68178  0.00149  0.88065  1.0000
  C   C1244     1.0  0.58469  0.09576  0.94190  1.0000
  H   H1485     1.0  0.50617  0.09611  0.89571  1.0000
  H   H1486     1.0  0.68484  0.28130  0.90704  1.0000
  C   C1245     1.0  0.65174  0.98612  0.87813  1.0000
  H   H1487     1.0  0.66903  0.13840  0.95296  1.0000
  C   C1246     1.0  0.87480  0.99084  0.88470  1.0000
  C   C1247     1.0  0.89622  0.29706  0.81034  1.0000
  S   S337      1.0  0.83377  0.10584  0.93493  1.0000
  Fe  Fe164     1.0  0.52687  0.99718  0.73113  1.0000
  Fe  Fe165     1.0  0.92128  0.21347  0.75435  1.0000
  H   H1488     1.0  0.82019  0.22186  0.88335  1.0000
  H   H1489     1.0  0.63557  0.17930  0.92913  1.0000
  H   H1490     1.0  0.55859  0.11457  0.73741  1.0000
  Fe  Fe166     1.0  0.94776  0.15242  0.78226  1.0000
  H   H1491     1.0  0.72539  0.24744  0.75620  1.0000
  C   C1248     1.0  0.69140  0.03053  0.86197  1.0000
  H   H1492     1.0  0.87485  0.00071  0.80575  1.0000
  H   H1493     1.0  0.81398  0.99637  0.91238  1.0000
  H   H1494     1.0  0.89999  0.11300  0.75749  1.0000
  H   H1495     1.0  0.77057  0.16438  0.93708  1.0000
  H   H1496     1.0  0.52600  0.00858  0.95635  1.0000
  C   C1249     1.0  0.63332  0.99819  0.85750  1.0000
  C   C1250     1.0  0.86060  0.07365  0.86147  1.0000
  H   H1497     1.0  0.89454  0.99690  0.86633  1.0000
  C   C1251     1.0  0.94716  0.10750  0.91461  1.0000
  H   H1498     1.0  0.90130  0.15864  0.85697  1.0000
  C   C1252     1.0  0.48426  0.31013  0.94823  1.0000
  C   C1253     1.0  0.79384  0.09998  0.92743  1.0000
  C   C1254     1.0  0.82334  0.08058  0.82783  1.0000
  H   H1499     1.0  0.53783  0.25745  0.87144  1.0000
  H   H1500     1.0  0.66970  0.27064  0.95782  1.0000
  H   H1501     1.0  0.50336  0.29520  0.84745  1.0000
  H   H1502     1.0  0.80420  0.24799  0.90722  1.0000
  H   H1503     1.0  0.84258  0.99634  0.93580  1.0000
  C   C1255     1.0  0.58687  0.29016  0.80321  1.0000
  H   H1504     1.0  0.59517  0.02791  0.74457  1.0000
  S   S338      1.0  0.83867  0.01253  0.75940  1.0000
  H   H1505     1.0  0.92079  0.98483  0.73841  1.0000
  H   H1506     1.0  0.74989  0.20693  0.87045  1.0000
  H   H1507     1.0  0.74814  0.99271  0.91620  1.0000
  Fe  Fe167     1.0  0.86255  0.24179  0.95675  1.0000
  S   S339      1.0  0.53642  0.24539  0.81315  1.0000
  C   C1256     1.0  0.84826  0.04165  0.87189  1.0000
  H   H1508     1.0  0.55401  0.06629  0.71243  1.0000
  C   C1257     1.0  0.94452  0.18902  0.88014  1.0000
  C   C1258     1.0  0.95703  0.12357  0.86505  1.0000
  S   S340      1.0  0.68896  0.09271  0.90778  1.0000
  C   C1259     1.0  0.54415  0.30161  0.77471  1.0000
  H   H1509     1.0  0.78144  0.17832  0.87522  1.0000
  C   C1260     1.0  0.94251  0.13049  0.89126  1.0000
  S   S341      1.0  0.96903  0.24179  0.74819  1.0000
  H   H1510     1.0  0.55499  0.24550  0.72477  1.0000
  H   H1511     1.0  0.53000  0.14160  0.90573  1.0000
  C   C1261     1.0  0.69843  0.26361  0.91912  1.0000
  C   C1262     1.0  0.68145  0.99088  0.92975  1.0000
  C   C1263     1.0  0.49337  0.28876  0.90460  1.0000
  H   H1512     1.0  0.64368  0.20665  0.95114  1.0000
  H   H1513     1.0  0.52118  0.23182  0.90299  1.0000
  H   H1514     1.0  0.52135  0.29479  0.76852  1.0000
  H   H1515     1.0  0.79889  0.19540  0.94096  1.0000
  S   S342      1.0  0.87686  0.23694  0.73954  1.0000
  H   H1516     1.0  0.67618  0.01666  0.93138  1.0000
  H   H1517     1.0  0.78021  0.23681  0.74963  1.0000
  H   H1518     1.0  0.69482  0.98053  0.94683  1.0000
  C   C1264     1.0  0.79705  0.23283  0.89263  1.0000
  C   C1265     1.0  0.91090  0.16458  0.92225  1.0000
  C   C1266     1.0  0.68274  0.24995  0.73691  1.0000
  N   N85       1.0  0.92335  0.16031  0.89342  1.0000
  C   C1267     1.0  0.91363  0.98442  0.71781  1.0000
  H   H1519     1.0  0.77450  0.27955  0.74998  1.0000
  H   H1520     1.0  0.96767  0.18965  0.88924  1.0000
  H   H1521     1.0  0.95582  0.30682  0.82864  1.0000
  H   H1522     1.0  0.96894  0.06256  0.92968  1.0000
  H   H1523     1.0  0.71561  0.07378  0.95764  1.0000
  H   H1524     1.0  0.61516  0.13132  0.72477  1.0000
  H   H1525     1.0  0.89327  0.14477  0.93325  1.0000
  H   H1526     1.0  0.64992  0.30933  0.85604  1.0000
  H   H1527     1.0  0.93159  0.16599  0.93412  1.0000
  H   H1528     1.0  0.96162  0.05700  0.71613  1.0000
  C   C1268     1.0  0.50007  0.18213  0.95714  1.0000
  H   H1529     1.0  0.56677  0.15429  0.71682  1.0000
  C   C1269     1.0  0.96562  0.07972  0.91162  1.0000
  C   C1270     1.0  0.97623  0.07628  0.72194  1.0000
  C   C1271     1.0  0.51721  0.98212  0.82925  1.0000
  H   H1530     1.0  0.50507  0.13136  0.86940  1.0000
  C   C1272     1.0  0.61748  0.30939  0.89476  1.0000
  C   C1273     1.0  0.48057  0.28250  0.85966  1.0000
  H   H1531     1.0  0.95829  0.09368  0.73039  1.0000
  C   C1274     1.0  0.97530  0.09567  0.86234  1.0000
  H   H1532     1.0  0.89241  0.30779  0.93191  1.0000
  H   H1533     1.0  0.64309  0.25341  0.71297  1.0000
  C   C1275     1.0  0.66966  0.25584  0.71249  1.0000
  C   C1276     1.0  0.73758  0.34043  0.02362  1.0000
  H   H1534     1.0  0.78731  0.52712  0.05908  1.0000
  C   C1277     1.0  0.76800  0.54186  0.06801  1.0000
  C   C1278     1.0  0.80503  0.41060  0.97476  1.0000
  H   H1535     1.0  0.95593  0.47247  0.10849  1.0000
  H   H1536     1.0  0.97144  0.44483  0.01390  1.0000
  S   S343      1.0  0.60050  0.40418  0.00393  1.0000
  C   C1279     1.0  0.71101  0.55839  0.07388  1.0000
  H   H1537     1.0  0.70636  0.37320  0.17471  1.0000
  S   S344      1.0  0.50961  0.41122  0.98301  1.0000
  H   H1538     1.0  0.95076  0.50083  0.00908  1.0000
  H   H1539     1.0  0.75134  0.62938  0.02421  1.0000
  C   C1280     1.0  0.70310  0.34315  0.02389  1.0000
  H   H1540     1.0  0.69102  0.36558  0.02693  1.0000
  C   C1281     1.0  0.62484  0.60527  0.97834  1.0000
  Fe  Fe168     1.0  0.93038  0.57009  0.00420  1.0000
  S   S345      1.0  0.89173  0.55587  0.98114  1.0000
  Fe  Fe169     1.0  0.87845  0.59552  0.04746  1.0000
  S   S346      1.0  0.83579  0.58372  0.02663  1.0000
  Fe  Fe170     1.0  0.86212  0.53758  0.02243  1.0000
  S   S347      1.0  0.83537  0.48967  0.03027  1.0000
  Fe  Fe171     1.0  0.86879  0.60337  0.98685  1.0000
  C   C1282     1.0  0.72578  0.49775  0.17308  1.0000
  S   S348      1.0  0.90276  0.54742  0.04532  1.0000
  S   S349      1.0  0.90978  0.61944  0.00762  1.0000
  S   S350      1.0  0.85658  0.42107  0.14829  1.0000
  Fe  Fe172     1.0  0.56847  0.61232  0.09797  1.0000
  H   H1541     1.0  0.85121  0.50179  0.96888  1.0000
  C   C1283     1.0  0.83783  0.33382  0.15140  1.0000
  Fe  Fe173     1.0  0.62304  0.57476  0.12419  1.0000
  S   S351      1.0  0.64120  0.61751  0.13951  1.0000
  S   S352      1.0  0.65301  0.52929  0.12898  1.0000
  H   H1542     1.0  0.78907  0.35349  0.06225  1.0000
  H   H1543     1.0  0.76527  0.41405  0.17295  1.0000
  H   H1544     1.0  0.79235  0.61068  0.98376  1.0000
  S   S353      1.0  0.56866  0.58188  0.13967  1.0000
  S   S354      1.0  0.62123  0.60125  0.08119  1.0000
  C   C1284     1.0  0.67638  0.52108  0.15620  1.0000
  C   C1285     1.0  0.70826  0.50824  0.15120  1.0000
  H   H1545     1.0  0.71922  0.50600  0.13035  1.0000
  C   C1286     1.0  0.52202  0.50825  0.97812  1.0000
  H   H1546     1.0  0.63832  0.62784  0.97064  1.0000
  H   H1547     1.0  0.73802  0.63860  0.14130  1.0000
  C   C1287     1.0  0.64322  0.57706  0.97824  1.0000
  H   H1548     1.0  0.70382  0.41553  0.16805  1.0000
  H   H1549     1.0  0.66964  0.57849  0.97015  1.0000
  H   H1550     1.0  0.68574  0.55593  0.07011  1.0000
  C   C1288     1.0  0.52848  0.47547  0.97712  1.0000
  S   S355      1.0  0.52577  0.61390  0.07367  1.0000
  C   C1289     1.0  0.48393  0.47672  0.05940  1.0000
  C   C1290     1.0  0.71118  0.49938  0.20022  1.0000
  C   C1291     1.0  0.84849  0.44063  0.11626  1.0000
  C   C1292     1.0  0.84587  0.47419  0.11069  1.0000
  C   C1293     1.0  0.84158  0.48935  0.08430  1.0000
  C   C1294     1.0  0.83889  0.47089  0.06372  1.0000
  C   C1295     1.0  0.83998  0.43726  0.06968  1.0000
  C   C1296     1.0  0.84526  0.42219  0.09579  1.0000
  H   H1551     1.0  0.84832  0.48862  0.12633  1.0000
  H   H1552     1.0  0.84064  0.51538  0.07987  1.0000
  H   H1553     1.0  0.83805  0.42289  0.05384  1.0000
  H   H1554     1.0  0.84709  0.39623  0.10001  1.0000
  H   H1555     1.0  0.71316  0.60335  0.14124  1.0000
  H   H1556     1.0  0.49144  0.55257  0.07209  1.0000
  C   C1297     1.0  0.62775  0.54709  0.98832  1.0000
  H   H1557     1.0  0.84227  0.61810  0.14579  1.0000
  C   C1298     1.0  0.50257  0.45242  0.98489  1.0000
  C   C1299     1.0  0.94869  0.49595  0.11318  1.0000
  C   C1300     1.0  0.75101  0.58360  0.09642  1.0000
  H   H1558     1.0  0.72985  0.52202  0.05007  1.0000
  H   H1559     1.0  0.54894  0.56988  0.00685  1.0000
  C   C1301     1.0  0.48985  0.51815  0.98748  1.0000
  H   H1560     1.0  0.80139  0.56585  0.08713  1.0000
  C   C1302     1.0  0.77572  0.56393  0.08435  1.0000
  H   H1561     1.0  0.73411  0.60998  0.97477  1.0000
  H   H1562     1.0  0.57881  0.63935  0.02839  1.0000
  Fe  Fe174     1.0  0.84344  0.44810  0.18372  1.0000
  N   N86       1.0  0.74373  0.39650  0.14123  1.0000
  H   H1563     1.0  0.75008  0.48744  0.16904  1.0000
  C   C1303     1.0  0.76810  0.39425  0.16040  1.0000
  C   C1304     1.0  0.74753  0.42910  0.12399  1.0000
  C   C1305     1.0  0.74973  0.36999  0.12477  1.0000
  C   C1306     1.0  0.73940  0.33773  0.13639  1.0000
  C   C1307     1.0  0.76824  0.37486  0.09763  1.0000
  H   H1564     1.0  0.82962  0.40503  0.96515  1.0000
  C   C1308     1.0  0.77484  0.34925  0.08291  1.0000
  H   H1565     1.0  0.77823  0.39820  0.08737  1.0000
  C   C1309     1.0  0.78716  0.61763  0.96303  1.0000
  C   C1310     1.0  0.80292  0.42816  0.99648  1.0000
  H   H1566     1.0  0.72676  0.33163  0.15735  1.0000
  H   H1567     1.0  0.83259  0.35135  0.16520  1.0000
  H   H1568     1.0  0.73174  0.43133  0.10757  1.0000
  H   H1569     1.0  0.79392  0.39563  0.14897  1.0000
  H   H1570     1.0  0.64204  0.52525  0.98808  1.0000
  S   S356      1.0  0.81908  0.49621  0.18342  1.0000
  H   H1571     1.0  0.77385  0.43506  0.11441  1.0000
  C   C1311     1.0  0.77208  0.43693  0.00936  1.0000
  C   C1312     1.0  0.53450  0.62911  0.99547  1.0000
  Fe  Fe175     1.0  0.58713  0.62725  0.15135  1.0000
  C   C1313     1.0  0.59387  0.54521  0.99872  1.0000
  H   H1572     1.0  0.96140  0.63439  0.04836  1.0000
  S   S357      1.0  0.64035  0.31771  0.02604  1.0000
  C   C1314     1.0  0.90826  0.52611  0.13959  1.0000
  H   H1573     1.0  0.58203  0.52177  0.00671  1.0000
  H   H1574     1.0  0.71692  0.63715  0.11302  1.0000
  C   C1315     1.0  0.74320  0.42861  0.00022  1.0000
  H   H1575     1.0  0.92578  0.63743  0.13686  1.0000
  H   H1576     1.0  0.52761  0.61608  0.01689  1.0000
  H   H1577     1.0  0.77073  0.45063  0.02615  1.0000
  Fe  Fe176     1.0  0.56358  0.39665  0.97646  1.0000
  H   H1578     1.0  0.75197  0.36091  0.02623  1.0000
  C   C1316     1.0  0.96699  0.52470  0.10046  1.0000
  H   H1579     1.0  0.70725  0.61041  0.20074  1.0000
  H   H1580     1.0  0.54203  0.52597  0.97163  1.0000
  C   C1317     1.0  0.95463  0.55406  0.10845  1.0000
  C   C1318     1.0  0.57510  0.57324  0.99862  1.0000
  C   C1319     1.0  0.86678  0.33699  0.13201  1.0000
  H   H1581     1.0  0.74025  0.44849  0.13642  1.0000
  H   H1582     1.0  0.69053  0.39218  0.14435  1.0000
  C   C1320     1.0  0.66245  0.52415  0.18318  1.0000
  H   H1583     1.0  0.56879  0.32723  0.14428  1.0000
  H   H1584     1.0  0.76551  0.37103  0.17493  1.0000
  H   H1585     1.0  0.91599  0.57740  0.13270  1.0000
  H   H1586     1.0  0.51559  0.51755  0.04042  1.0000
  C   C1321     1.0  0.73573  0.53910  0.06276  1.0000
  N   N87       1.0  0.75984  0.60675  0.11370  1.0000
  Fe  Fe177     1.0  0.62062  0.35603  0.99603  1.0000
  C   C1322     1.0  0.77815  0.59008  0.13525  1.0000
  H   H1587     1.0  0.90618  0.47466  0.14185  1.0000
  H   H1588     1.0  0.88369  0.35728  0.13069  1.0000
  C   C1323     1.0  0.59002  0.60424  0.98805  1.0000
  C   C1324     1.0  0.70967  0.39412  0.15762  1.0000
  H   H1589     1.0  0.78236  0.60591  0.15029  1.0000
  H   H1590     1.0  0.76430  0.56801  0.14695  1.0000
  H   H1591     1.0  0.80336  0.58270  0.12652  1.0000
  S   S358      1.0  0.86821  0.60418  0.09215  1.0000
  H   H1592     1.0  0.63766  0.53344  0.18731  1.0000
  C   C1325     1.0  0.91985  0.49683  0.13252  1.0000
  C   C1326     1.0  0.92555  0.55464  0.12752  1.0000
  H   H1593     1.0  0.80358  0.62351  0.08404  1.0000
  C   C1327     1.0  0.74602  0.31232  0.12141  1.0000
  C   C1328     1.0  0.71833  0.58028  0.09054  1.0000
  C   C1329     1.0  0.67965  0.51301  0.20513  1.0000
  H   H1594     1.0  0.52453  0.61500  0.98142  1.0000
  S   S359      1.0  0.48265  0.55926  0.98980  1.0000
  N   N88       1.0  0.57105  0.63451  0.98763  1.0000
  H   H1595     1.0  0.63360  0.61881  0.20411  1.0000
  H   H1596     1.0  0.55349  0.46810  0.97022  1.0000
  H   H1597     1.0  0.97337  0.54055  0.04566  1.0000
  H   H1598     1.0  0.82541  0.43513  0.00329  1.0000
  S   S360      1.0  0.57981  0.34585  0.97290  1.0000
  H   H1599     1.0  0.79062  0.33780  0.96733  1.0000
  C   C1330     1.0  0.73055  0.62199  0.12796  1.0000
  C   C1331     1.0  0.69524  0.63032  0.21075  1.0000
  C   C1332     1.0  0.78133  0.63291  0.09607  1.0000
  H   H1600     1.0  0.77645  0.54895  0.97149  1.0000
  H   H1601     1.0  0.88574  0.52686  0.15434  1.0000
  H   H1602     1.0  0.71915  0.43595  0.00986  1.0000
  H   H1603     1.0  0.69781  0.59407  0.09870  1.0000
  C   C1333     1.0  0.84874  0.64090  0.13243  1.0000
  C   C1334     1.0  0.49553  0.50835  0.05686  1.0000
  C   C1335     1.0  0.74502  0.41095  0.97853  1.0000
  H   H1604     1.0  0.96721  0.57691  0.09988  1.0000
  Fe  Fe178     1.0  0.63375  0.42308  0.96433  1.0000
  C   C1336     1.0  0.76347  0.31813  0.09464  1.0000
  H   H1605     1.0  0.79893  0.51476  0.98379  1.0000
  C   C1337     1.0  0.86284  0.64127  0.10470  1.0000
  H   H1606     1.0  0.93228  0.63202  0.17222  1.0000
  S   S361      1.0  0.88102  0.45818  0.20981  1.0000
  C   C1338     1.0  0.97683  0.49655  0.00258  1.0000
  C   C1339     1.0  0.68412  0.31639  0.02155  1.0000
  H   H1607     1.0  0.48365  0.53784  0.13465  1.0000
  C   C1340     1.0  0.87400  0.31426  0.11439  1.0000
  H   H1608     1.0  0.49506  0.46134  0.04509  1.0000
  H   H1609     1.0  0.69565  0.63439  0.05226  1.0000
  H   H1610     1.0  0.89687  0.31769  0.09978  1.0000
  H   H1611     1.0  0.72166  0.40552  0.97250  1.0000
  Fe  Fe179     1.0  0.63529  0.64448  0.09807  1.0000
  S   S362      1.0  0.87635  0.55249  0.21233  1.0000
  C   C1341     1.0  0.79894  0.53466  0.96607  1.0000
  H   H1612     1.0  0.82085  0.55099  0.96468  1.0000
  C   C1342     1.0  0.77609  0.40064  0.96558  1.0000
  C   C1343     1.0  0.48111  0.52841  0.07511  1.0000
  H   H1613     1.0  0.65270  0.58097  0.21193  1.0000
  Fe  Fe180     1.0  0.84298  0.43528  0.24516  1.0000
  S   S363      1.0  0.85565  0.40219  0.28274  1.0000
  H   H1614     1.0  0.86263  0.45152  0.36324  1.0000
  H   H1615     1.0  0.81134  0.49805  0.32669  1.0000
  S   S364      1.0  0.63942  0.42792  0.35766  1.0000
  S   S365      1.0  0.63016  0.38704  0.29582  1.0000
  S   S366      1.0  0.55770  0.44291  0.40318  1.0000
  C   C1344     1.0  0.52365  0.53341  0.26809  1.0000
  H   H1616     1.0  0.78024  0.51839  0.45854  1.0000
  H   H1617     1.0  0.70541  0.41559  0.40480  1.0000
  C   C1345     1.0  0.74753  0.35840  0.31754  1.0000
  H   H1618     1.0  0.93462  0.47242  0.24451  1.0000
  C   C1346     1.0  0.70904  0.37170  0.23756  1.0000
  C   C1347     1.0  0.51839  0.46030  0.40411  1.0000
  C   C1348     1.0  0.52688  0.57667  0.34371  1.0000
  H   H1619     1.0  0.51039  0.53009  0.45744  1.0000
  C   C1349     1.0  0.67952  0.32083  0.25437  1.0000
  H   H1620     1.0  0.90750  0.55572  0.29502  1.0000
  C   C1350     1.0  0.51836  0.60706  0.33072  1.0000
  S   S367      1.0  0.88832  0.57657  0.40807  1.0000
  H   H1621     1.0  0.76263  0.58437  0.29762  1.0000
  C   C1351     1.0  0.51551  0.36901  0.32145  1.0000
  C   C1352     1.0  0.71421  0.40741  0.32130  1.0000
  C   C1353     1.0  0.91658  0.32702  0.29954  1.0000
  H   H1622     1.0  0.51886  0.53821  0.42264  1.0000
  C   C1354     1.0  0.70586  0.33850  0.23698  1.0000
  C   C1355     1.0  0.90009  0.45829  0.32682  1.0000
  C   C1356     1.0  0.65668  0.33617  0.27218  1.0000
  C   C1357     1.0  0.65994  0.36929  0.27294  1.0000
  Fe  Fe181     1.0  0.91421  0.46635  0.44447  1.0000
  H   H1623     1.0  0.48676  0.58147  0.28618  1.0000
  C   C1358     1.0  0.88649  0.37268  0.27885  1.0000
  C   C1359     1.0  0.90551  0.37083  0.25320  1.0000
  C   C1360     1.0  0.92984  0.34709  0.25073  1.0000
  C   C1361     1.0  0.75883  0.35807  0.44834  1.0000
  C   C1362     1.0  0.94452  0.49646  0.32658  1.0000
  C   C1363     1.0  0.89222  0.35079  0.30202  1.0000
  H   H1624     1.0  0.90138  0.38754  0.23519  1.0000
  H   H1625     1.0  0.94429  0.34571  0.23076  1.0000
  H   H1626     1.0  0.86440  0.59651  0.35033  1.0000
  H   H1627     1.0  0.87783  0.35221  0.32200  1.0000
  H   H1628     1.0  0.93994  0.52021  0.36231  1.0000
  H   H1629     1.0  0.76117  0.39312  0.35470  1.0000
  C   C1364     1.0  0.95140  0.43122  0.28740  1.0000
  C   C1365     1.0  0.96864  0.43574  0.39402  1.0000
  H   H1630     1.0  0.94976  0.37667  0.44371  1.0000
  H   H1631     1.0  0.49731  0.49505  0.32073  1.0000
  H   H1632     1.0  0.63224  0.56667  0.43177  1.0000
  S   S368      1.0  0.81768  0.48191  0.25098  1.0000
  H   H1633     1.0  0.76091  0.52551  0.31412  1.0000
  Fe  Fe182     1.0  0.61597  0.50495  0.31301  1.0000
  S   S369      1.0  0.62332  0.50474  0.35670  1.0000
  S   S370      1.0  0.60129  0.55052  0.28762  1.0000
  Fe  Fe183     1.0  0.63152  0.43362  0.31362  1.0000
  Fe  Fe184     1.0  0.59447  0.45801  0.36470  1.0000
  Fe  Fe185     1.0  0.66781  0.47503  0.34563  1.0000
  S   S371      1.0  0.71762  0.47693  0.36001  1.0000
  S   S372      1.0  0.58360  0.46021  0.32190  1.0000
  S   S373      1.0  0.66320  0.47891  0.30077  1.0000
  H   H1634     1.0  0.95673  0.37583  0.34471  1.0000
  S   S374      1.0  0.73496  0.31996  0.21414  1.0000
  C   C1366     1.0  0.88482  0.58953  0.33482  1.0000
  N   N89       1.0  0.87499  0.59367  0.30708  1.0000
  C   C1367     1.0  0.57067  0.57281  0.30518  1.0000
  C   C1368     1.0  0.55325  0.55974  0.33111  1.0000
  H   H1635     1.0  0.55959  0.53629  0.34112  1.0000
  C   C1369     1.0  0.51042  0.48252  0.38206  1.0000
  H   H1636     1.0  0.57214  0.34517  0.29735  1.0000
  H   H1637     1.0  0.52855  0.48877  0.36362  1.0000
  C   C1370     1.0  0.84550  0.58061  0.22021  1.0000
  H   H1638     1.0  0.89939  0.46288  0.27088  1.0000
  H   H1639     1.0  0.97667  0.50965  0.27160  1.0000
  C   C1371     1.0  0.56207  0.60313  0.29222  1.0000
  C   C1372     1.0  0.74708  0.55784  0.40365  1.0000
  N   N90       1.0  0.74777  0.39408  0.31458  1.0000
  C   C1373     1.0  0.75961  0.50900  0.38404  1.0000
  C   C1374     1.0  0.72804  0.50880  0.37641  1.0000
  C   C1375     1.0  0.70593  0.53341  0.38228  1.0000
  C   C1376     1.0  0.71544  0.55795  0.39595  1.0000
  C   C1377     1.0  0.93057  0.47367  0.31312  1.0000
  C   C1378     1.0  0.76882  0.40535  0.33307  1.0000
  H   H1640     1.0  0.68156  0.53353  0.37637  1.0000
  C   C1379     1.0  0.79662  0.62446  0.23629  1.0000
  H   H1641     1.0  0.94420  0.33611  0.46172  1.0000
  H   H1642     1.0  0.86307  0.52863  0.32363  1.0000
  C   C1380     1.0  0.71782  0.33973  0.32008  1.0000
  Fe  Fe186     1.0  0.90630  0.53851  0.43879  1.0000
  H   H1643     1.0  0.57493  0.61299  0.27196  1.0000
  H   H1644     1.0  0.88818  0.49118  0.38559  1.0000
  C   C1381     1.0  0.87274  0.62890  0.29741  1.0000
  S   S375      1.0  0.87035  0.49717  0.45340  1.0000
  H   H1645     1.0  0.56436  0.40444  0.28436  1.0000
  H   H1646     1.0  0.63644  0.32217  0.28560  1.0000
  H   H1647     1.0  0.92530  0.59536  0.28503  1.0000
  H   H1648     1.0  0.93650  0.60220  0.43666  1.0000
  H   H1649     1.0  0.97624  0.56974  0.31572  1.0000
  H   H1650     1.0  0.72920  0.38569  0.22410  1.0000
  C   C1382     1.0  0.53088  0.37934  0.36501  1.0000
  H   H1651     1.0  0.76694  0.43187  0.33292  1.0000
  C   C1383     1.0  0.92583  0.62195  0.42436  1.0000
  C   C1384     1.0  0.57472  0.56890  0.41413  1.0000
  H   H1652     1.0  0.57605  0.59504  0.41570  1.0000
  H   H1653     1.0  0.59937  0.56122  0.40461  1.0000
  H   H1654     1.0  0.55973  0.56744  0.39749  1.0000
  C   C1385     1.0  0.65443  0.64491  0.24738  1.0000
  C   C1386     1.0  0.92350  0.47657  0.26554  1.0000
  H   H1655     1.0  0.60000  0.51323  0.44052  1.0000
  H   H1656     1.0  0.53423  0.52487  0.28711  1.0000
  S   S376      1.0  0.48303  0.62608  0.34547  1.0000
  C   C1387     1.0  0.49798  0.37474  0.37797  1.0000
  S   S377      1.0  0.90534  0.42516  0.42289  1.0000
  S   S378      1.0  0.94927  0.50792  0.42643  1.0000
  H   H1657     1.0  0.78735  0.40032  0.27983  1.0000
  H   H1658     1.0  0.97129  0.31421  0.42557  1.0000
  C   C1388     1.0  0.81209  0.57072  0.22744  1.0000
  H   H1659     1.0  0.84698  0.33533  0.25317  1.0000
  H   H1660     1.0  0.79570  0.40115  0.32677  1.0000
  H   H1661     1.0  0.89109  0.56428  0.34241  1.0000
  N   N91       1.0  0.94601  0.46642  0.28582  1.0000
  H   H1662     1.0  0.62072  0.59327  0.23690  1.0000
  H   H1663     1.0  0.74658  0.39984  0.27119  1.0000
  C   C1389     1.0  0.72617  0.48336  0.45790  1.0000
  C   C1390     1.0  0.93548  0.32504  0.27384  1.0000
  C   C1391     1.0  0.88511  0.46457  0.35265  1.0000
  H   H1664     1.0  0.54982  0.38531  0.37650  1.0000
  C   C1392     1.0  0.52463  0.54779  0.44103  1.0000
  H   H1665     1.0  0.51369  0.57222  0.43929  1.0000
  H   H1666     1.0  0.76138  0.43479  0.28228  1.0000
  C   C1393     1.0  0.53961  0.37637  0.33727  1.0000
  C   C1394     1.0  0.75316  0.40791  0.41747  1.0000
  C   C1395     1.0  0.48072  0.48466  0.30945  1.0000
  N   N92       1.0  0.48683  0.53466  0.27343  1.0000
  C   C1396     1.0  0.48221  0.36376  0.33548  1.0000
  C   C1397     1.0  0.92893  0.50298  0.35220  1.0000
  H   H1667     1.0  0.79811  0.39376  0.43337  1.0000
  H   H1668     1.0  0.89422  0.58236  0.26701  1.0000
  C   C1398     1.0  0.93389  0.39791  0.37901  1.0000
  C   C1399     1.0  0.77778  0.34133  0.31668  1.0000
  H   H1669     1.0  0.71528  0.43405  0.32029  1.0000
  H   H1670     1.0  0.53530  0.55764  0.25949  1.0000
  H   H1671     1.0  0.96797  0.42253  0.30256  1.0000
  C   C1400     1.0  0.76143  0.40790  0.28576  1.0000
  H   H1672     1.0  0.54686  0.40015  0.25478  1.0000
  H   H1673     1.0  0.52362  0.41964  0.28130  1.0000
  S   S379      1.0  0.80683  0.42227  0.21889  1.0000
  C   C1401     1.0  0.70647  0.37020  0.43214  1.0000
  Fe  Fe187     1.0  0.72892  0.63010  0.42834  1.0000
  H   H1674     1.0  0.66243  0.58564  0.27200  1.0000
  N   N93       1.0  0.56126  0.54895  0.44156  1.0000
  H   H1675     1.0  0.91040  0.38510  0.38123  1.0000
  H   H1676     1.0  0.77693  0.49028  0.37944  1.0000
  C   C1402     1.0  0.85431  0.61285  0.22013  1.0000
  C   C1403     1.0  0.78781  0.59245  0.23576  1.0000
  H   H1677     1.0  0.70207  0.39672  0.34241  1.0000
  H   H1678     1.0  0.87061  0.63655  0.37967  1.0000
  H   H1679     1.0  0.70422  0.60054  0.25930  1.0000
  H   H1680     1.0  0.68747  0.57026  0.24413  1.0000
  H   H1681     1.0  0.73713  0.47083  0.44064  1.0000
  H   H1682     1.0  0.90718  0.60453  0.33513  1.0000
  N   N94       1.0  0.52524  0.36794  0.29165  1.0000
  H   H1683     1.0  0.80485  0.54617  0.22705  1.0000
  H   H1684     1.0  0.83796  0.57989  0.46199  1.0000
  C   C1404     1.0  0.72545  0.34851  0.44827  1.0000
  C   C1405     1.0  0.72027  0.39945  0.41709  1.0000
  C   C1406     1.0  0.53633  0.62049  0.30512  1.0000
  H   H1685     1.0  0.80154  0.35390  0.31326  1.0000
  C   C1407     1.0  0.76909  0.53339  0.39749  1.0000
  N   N95       1.0  0.66782  0.61796  0.23328  1.0000
  H   H1686     1.0  0.88006  0.62073  0.21437  1.0000
  H   H1687     1.0  0.55997  0.49814  0.45824  1.0000
  H   H1688     1.0  0.53870  0.31806  0.29674  1.0000
  H   H1689     1.0  0.50505  0.36048  0.25553  1.0000
  H   H1690     1.0  0.55917  0.34189  0.26547  1.0000
  C   C1408     1.0  0.96007  0.39272  0.35835  1.0000
  H   H1691     1.0  0.89679  0.64182  0.29671  1.0000
  C   C1409     1.0  0.68104  0.59264  0.25300  1.0000
  C   C1410     1.0  0.57282  0.51546  0.44043  1.0000
  S   S380      1.0  0.68246  0.64502  0.41149  1.0000
  H   H1692     1.0  0.86672  0.63389  0.27613  1.0000
  H   H1693     1.0  0.48382  0.53510  0.23049  1.0000
  C   C1411     1.0  0.54984  0.34230  0.28763  1.0000
  H   H1694     1.0  0.76224  0.58419  0.24210  1.0000
  H   H1695     1.0  0.68098  0.36501  0.43061  1.0000
  H   H1696     1.0  0.81604  0.63069  0.43882  1.0000
  H   H1697     1.0  0.48524  0.33710  0.28676  1.0000
  C   C1412     1.0  0.93811  0.41954  0.39679  1.0000
  H   H1698     1.0  0.79363  0.53325  0.40320  1.0000
  H   H1699     1.0  0.53238  0.51689  0.25321  1.0000
  S   S381      1.0  0.75968  0.58630  0.42254  1.0000
  H   H1700     1.0  0.81320  0.61581  0.29331  1.0000
  H   H1701     1.0  0.66809  0.51412  0.22607  1.0000
  H   H1702     1.0  0.56766  0.50658  0.42158  1.0000
  C   C1413     1.0  0.97880  0.48292  0.27511  1.0000
  H   H1703     1.0  0.51280  0.56608  0.36341  1.0000
  H   H1704     1.0  0.56555  0.37991  0.32830  1.0000
  H   H1705     1.0  0.88782  0.44086  0.31783  1.0000
  C   C1414     1.0  0.54056  0.39942  0.27744  1.0000
  C   C1415     1.0  0.90161  0.58117  0.28774  1.0000
  H   H1706     1.0  0.69779  0.40336  0.30636  1.0000
  H   H1707     1.0  0.69824  0.57670  0.40069  1.0000
  H   H1708     1.0  0.68862  0.41275  0.25537  1.0000
  C   C1416     1.0  0.81413  0.59038  0.30120  1.0000
  H   H1709     1.0  0.50069  0.43453  0.44478  1.0000
  C   C1417     1.0  0.68615  0.38708  0.25542  1.0000
  H   H1710     1.0  0.92799  0.41669  0.29364  1.0000
  C   C1418     1.0  0.84354  0.57547  0.30857  1.0000
  C   C1419     1.0  0.84169  0.54160  0.31780  1.0000
  C   C1420     1.0  0.81223  0.52387  0.31966  1.0000
  C   C1421     1.0  0.78376  0.53930  0.31259  1.0000
  H   H1711     1.0  0.97246  0.45154  0.40825  1.0000
  S   S382      1.0  0.73081  0.48308  0.22846  1.0000
  C   C1422     1.0  0.78471  0.57247  0.30347  1.0000
  C   C1423     1.0  0.90228  0.61575  0.40818  1.0000
  C   C1424     1.0  0.82983  0.63485  0.22790  1.0000
  H   H1712     1.0  0.91783  0.50270  0.26418  1.0000
  C   C1425     1.0  0.89950  0.48687  0.36530  1.0000
  H   H1713     1.0  0.77465  0.62040  0.35320  1.0000
  H   H1714     1.0  0.78834  0.32935  0.24763  1.0000
  C   C1426     1.0  0.49481  0.45199  0.42784  1.0000
  H   H1715     1.0  0.77492  0.34274  0.45991  1.0000
  Fe  Fe188     1.0  0.85276  0.50389  0.21335  1.0000
  H   H1716     1.0  0.76374  0.43043  0.40548  1.0000
  H   H1717     1.0  0.69365  0.35045  0.32007  1.0000
  Fe  Fe189     1.0  0.78539  0.47145  0.22077  1.0000
  C   C1427     1.0  0.88882  0.64127  0.39210  1.0000
  C   C1428     1.0  0.77240  0.38729  0.43311  1.0000
  H   H1718     1.0  0.79392  0.47926  0.45356  1.0000
  C   C1429     1.0  0.62005  0.57076  0.45166  1.0000
  C   C1430     1.0  0.49693  0.36121  0.27784  1.0000
  H   H1719     1.0  0.72393  0.50912  0.44890  1.0000
  H   H1720     1.0  0.71505  0.64274  0.21837  1.0000
  C   C1431     1.0  0.64256  0.60219  0.22105  1.0000
  H   H1721     1.0  0.48579  0.54851  0.31358  1.0000
  S   S383      1.0  0.96776  0.63817  0.30667  1.0000
  H   H1722     1.0  0.85376  0.64015  0.31142  1.0000
  H   H1723     1.0  0.96767  0.50923  0.31795  1.0000
  C   C1432     1.0  0.96140  0.35751  0.45699  1.0000
  H   H1724     1.0  0.49143  0.37728  0.39947  1.0000
  H   H1725     1.0  0.67112  0.58745  0.46167  1.0000
  C   C1433     1.0  0.82720  0.64339  0.45327  1.0000
  H   H1726     1.0  0.96314  0.42487  0.26725  1.0000
  H   H1727     1.0  0.62294  0.31941  0.34460  1.0000
  H   H1728     1.0  0.48656  0.57421  0.23974  1.0000
  H   H1729     1.0  0.52964  0.64372  0.29481  1.0000
  C   C1434     1.0  0.78376  0.64501  0.34577  1.0000
  S   S384      1.0  0.60913  0.36168  0.58582  1.0000
  Fe  Fe190     1.0  0.70551  0.36284  0.57079  1.0000
  S   S385      1.0  0.67494  0.38015  0.53810  1.0000
  S   S386      1.0  0.76090  0.36232  0.55835  1.0000
  Fe  Fe191     1.0  0.64456  0.40363  0.57060  1.0000
  S   S387      1.0  0.62792  0.45416  0.55865  1.0000
  Fe  Fe192     1.0  0.64264  0.33654  0.55622  1.0000
  H   H1730     1.0  0.59515  0.56922  0.69432  1.0000
  S   S388      1.0  0.67763  0.38961  0.60227  1.0000
  H   H1731     1.0  0.71772  0.45462  0.53520  1.0000
  S   S389      1.0  0.88815  0.36209  0.55683  1.0000
  H   H1732     1.0  0.59749  0.59238  0.54572  1.0000
  Fe  Fe193     1.0  0.88519  0.34266  0.60222  1.0000
  S   S390      1.0  0.87053  0.36867  0.63908  1.0000
  C   C1435     1.0  0.56080  0.62407  0.69898  1.0000
  H   H1733     1.0  0.70341  0.33260  0.50267  1.0000
  S   S391      1.0  0.84491  0.49355  0.53095  1.0000
  H   H1734     1.0  0.95448  0.49241  0.53900  1.0000
  C   C1436     1.0  0.74983  0.44419  0.48946  1.0000
  H   H1735     1.0  0.71075  0.57355  0.51348  1.0000
  C   C1437     1.0  0.89349  0.38122  0.66338  1.0000
  C   C1438     1.0  0.92843  0.38442  0.65943  1.0000
  C   C1439     1.0  0.94436  0.39644  0.67928  1.0000
  H   H1736     1.0  0.79016  0.59341  0.51018  1.0000
  C   C1440     1.0  0.96425  0.46201  0.59038  1.0000
  H   H1737     1.0  0.94309  0.37843  0.64090  1.0000
  H   H1738     1.0  0.91198  0.41725  0.60355  1.0000
  C   C1441     1.0  0.78383  0.39895  0.55123  1.0000
  C   C1442     1.0  0.77218  0.42588  0.56286  1.0000
  C   C1443     1.0  0.79116  0.45481  0.55670  1.0000
  C   C1444     1.0  0.82156  0.45707  0.53860  1.0000
  C   C1445     1.0  0.83294  0.43026  0.52674  1.0000
  C   C1446     1.0  0.81431  0.40121  0.53331  1.0000
  H   H1739     1.0  0.74883  0.42426  0.57687  1.0000
  H   H1740     1.0  0.78222  0.47548  0.56593  1.0000
  H   H1741     1.0  0.85633  0.43165  0.51280  1.0000
  H   H1742     1.0  0.82347  0.38038  0.52433  1.0000
  C   C1447     1.0  0.92557  0.40490  0.70323  1.0000
  H   H1743     1.0  0.62198  0.60102  0.69821  1.0000
  H   H1744     1.0  0.76263  0.43201  0.47260  1.0000
  H   H1745     1.0  0.49633  0.35083  0.58133  1.0000
  C   C1448     1.0  0.72515  0.36866  0.67701  1.0000
  H   H1746     1.0  0.53826  0.63008  0.47042  1.0000
  C   C1449     1.0  0.78044  0.49298  0.46912  1.0000
  C   C1450     1.0  0.72143  0.35117  0.65554  1.0000
  C   C1451     1.0  0.59816  0.49976  0.63552  1.0000
  C   C1452     1.0  0.60624  0.46717  0.63784  1.0000
  C   C1453     1.0  0.61573  0.45329  0.61417  1.0000
  C   C1454     1.0  0.61728  0.47197  0.58811  1.0000
  C   C1455     1.0  0.60981  0.50477  0.58567  1.0000
  C   C1456     1.0  0.60046  0.51874  0.60942  1.0000
  H   H1747     1.0  0.60534  0.45262  0.65787  1.0000
  H   H1748     1.0  0.62116  0.42792  0.61617  1.0000
  H   H1749     1.0  0.61099  0.51923  0.56547  1.0000
  H   H1750     1.0  0.59419  0.54397  0.60758  1.0000
  Fe  Fe194     1.0  0.88583  0.49654  0.49433  1.0000
  S   S392      1.0  0.93544  0.32136  0.59744  1.0000
  H   H1751     1.0  0.77548  0.31725  0.70442  1.0000
  H   H1752     1.0  0.72522  0.43173  0.49674  1.0000
  H   H1753     1.0  0.92372  0.50256  0.56632  1.0000
  H   H1754     1.0  0.73680  0.54456  0.47733  1.0000
  C   C1457     1.0  0.51368  0.35167  0.61917  1.0000
  C   C1458     1.0  0.77811  0.36402  0.63322  1.0000
  C   C1459     1.0  0.51142  0.36414  0.59178  1.0000
  C   C1460     1.0  0.48656  0.31544  0.70961  1.0000
  C   C1461     1.0  0.53263  0.53558  0.49885  1.0000
  C   C1462     1.0  0.57026  0.52122  0.50351  1.0000
  C   C1463     1.0  0.60442  0.54552  0.49735  1.0000
  H   H1755     1.0  0.57255  0.49620  0.51208  1.0000
  H   H1756     1.0  0.62753  0.53428  0.50222  1.0000
  H   H1757     1.0  0.93667  0.42125  0.54415  1.0000
  H   H1758     1.0  0.97100  0.39964  0.67599  1.0000
  H   H1759     1.0  0.68739  0.54394  0.55977  1.0000
  C   C1464     1.0  0.71629  0.31307  0.49275  1.0000
  C   C1465     1.0  0.51398  0.49689  0.61326  1.0000
  C   C1466     1.0  0.54845  0.60700  0.47723  1.0000
  S   S393      1.0  0.92712  0.46178  0.48691  1.0000
  C   C1467     1.0  0.87512  0.38982  0.68730  1.0000
  H   H1760     1.0  0.55712  0.43367  0.58632  1.0000
  C   C1468     1.0  0.56455  0.57344  0.51529  1.0000
  C   C1469     1.0  0.54714  0.43455  0.53711  1.0000
  S   S394      1.0  0.49914  0.50821  0.51270  1.0000
  H   H1761     1.0  0.77531  0.63152  0.49407  1.0000
  C   C1470     1.0  0.52758  0.39360  0.57831  1.0000
  H   H1762     1.0  0.48417  0.60530  0.52985  1.0000
  H   H1763     1.0  0.89484  0.45726  0.60181  1.0000
  S   S395      1.0  0.67593  0.31662  0.58624  1.0000
  H   H1764     1.0  0.65613  0.59983  0.51271  1.0000
  H   H1765     1.0  0.66119  0.37879  0.67027  1.0000
  H   H1766     1.0  0.54195  0.57080  0.53072  1.0000
  C   C1471     1.0  0.69965  0.53102  0.54396  1.0000
  H   H1767     1.0  0.55922  0.41169  0.63411  1.0000
  N   N96       1.0  0.94013  0.45359  0.57324  1.0000
  H   H1768     1.0  0.54592  0.44248  0.51488  1.0000
  C   C1472     1.0  0.79208  0.61102  0.49071  1.0000
  C   C1473     1.0  0.89091  0.40130  0.70697  1.0000
  H   H1769     1.0  0.49681  0.57879  0.48701  1.0000
  H   H1770     1.0  0.79817  0.36278  0.61620  1.0000
  S   S396      1.0  0.91860  0.54106  0.48071  1.0000
  Fe  Fe195     1.0  0.93708  0.33727  0.55234  1.0000
  N   N97       1.0  0.52601  0.40539  0.54887  1.0000
  C   C1474     1.0  0.49766  0.50168  0.59053  1.0000
  Fe  Fe196     1.0  0.95903  0.50642  0.46969  1.0000
  Fe  Fe197     1.0  0.56787  0.47770  0.70157  1.0000
  S   S397      1.0  0.55585  0.42541  0.70190  1.0000
  H   H1771     1.0  0.57371  0.42998  0.53879  1.0000
  C   C1475     1.0  0.49813  0.50358  0.63869  1.0000
  H   H1772     1.0  0.48920  0.42436  0.52409  1.0000
  H   H1773     1.0  0.51190  0.49913  0.65571  1.0000
  C   C1476     1.0  0.82342  0.64463  0.52567  1.0000
  H   H1774     1.0  0.93311  0.44920  0.63112  1.0000
  C   C1477     1.0  0.53731  0.37997  0.53212  1.0000
  H   H1775     1.0  0.53292  0.35906  0.65546  1.0000
  C   C1478     1.0  0.54615  0.39837  0.62207  1.0000
  H   H1776     1.0  0.79867  0.63479  0.53333  1.0000
  H   H1777     1.0  0.51014  0.49672  0.57080  1.0000
  C   C1479     1.0  0.64543  0.58396  0.47125  1.0000
  S   S398      1.0  0.58346  0.51641  0.66506  1.0000
  C   C1480     1.0  0.59909  0.58670  0.52518  1.0000
  H   H1778     1.0  0.80646  0.39312  0.65316  1.0000
  H   H1779     1.0  0.49258  0.43859  0.66504  1.0000
  C   C1481     1.0  0.63596  0.59105  0.50413  1.0000
  H   H1780     1.0  0.52058  0.35830  0.53724  1.0000
  H   H1781     1.0  0.76225  0.39720  0.69106  1.0000
  H   H1782     1.0  0.69793  0.33985  0.65479  1.0000
  C   C1482     1.0  0.54450  0.41082  0.59451  1.0000
  H   H1783     1.0  0.69157  0.48469  0.56985  1.0000
  H   H1784     1.0  0.67105  0.32724  0.69810  1.0000
  C   C1483     1.0  0.95685  0.45837  0.61962  1.0000
  C   C1484     1.0  0.74759  0.34888  0.63407  1.0000
  H   H1785     1.0  0.76498  0.43961  0.50628  1.0000
  C   C1485     1.0  0.72774  0.53073  0.49739  1.0000
  C   C1486     1.0  0.75682  0.38341  0.67576  1.0000
  N   N98       1.0  0.74650  0.47937  0.48029  1.0000
  H   H1786     1.0  0.84826  0.38783  0.69066  1.0000
  H   H1787     1.0  0.66078  0.32962  0.47158  1.0000
  C   C1487     1.0  0.95461  0.42926  0.55648  1.0000
  H   H1788     1.0  0.96180  0.36531  0.47718  1.0000
  C   C1488     1.0  0.78270  0.38115  0.65406  1.0000
  H   H1789     1.0  0.50004  0.63641  0.56401  1.0000
  H   H1790     1.0  0.84767  0.57752  0.49627  1.0000
  C   C1489     1.0  0.52289  0.57428  0.48703  1.0000
  S   S399      1.0  0.70942  0.63757  0.47147  1.0000
  C   C1490     1.0  0.71723  0.48051  0.52934  1.0000
  C   C1491     1.0  0.84086  0.64086  0.49926  1.0000
  H   H1791     1.0  0.78216  0.59836  0.47561  1.0000
  H   H1792     1.0  0.55229  0.61131  0.68337  1.0000
  H   H1793     1.0  0.56978  0.31766  0.56948  1.0000
  C   C1492     1.0  0.73073  0.49664  0.50252  1.0000
  C   C1493     1.0  0.60157  0.58415  0.70935  1.0000
  C   C1494     1.0  0.53126  0.36864  0.63421  1.0000
  H   H1794     1.0  0.53888  0.45546  0.54740  1.0000
  C   C1495     1.0  0.84738  0.59400  0.47640  1.0000
  C   C1496     1.0  0.93253  0.48294  0.55453  1.0000
  H   H1795     1.0  0.87358  0.60073  0.46735  1.0000
  H   H1796     1.0  0.74404  0.33602  0.61751  1.0000
  H   H1797     1.0  0.89060  0.43344  0.57605  1.0000
  C   C1497     1.0  0.58977  0.60490  0.47926  1.0000
  H   H1798     1.0  0.64820  0.39397  0.70143  1.0000
  H   H1799     1.0  0.53988  0.63853  0.70738  1.0000
  Fe  Fe198     1.0  0.64462  0.34501  0.61478  1.0000
  N   N99       1.0  0.82689  0.62265  0.48043  1.0000
  H   H1800     1.0  0.53899  0.48765  0.61125  1.0000
  N   N100      1.0  0.69651  0.37215  0.69868  1.0000
  C   C1498     1.0  0.71262  0.54758  0.51791  1.0000
  H   H1801     1.0  0.91252  0.47812  0.54285  1.0000
  C   C1499     1.0  0.67041  0.39088  0.68592  1.0000
  H   H1802     1.0  0.50125  0.32901  0.62892  1.0000
  H   H1803     1.0  0.74272  0.31361  0.49577  1.0000
  H   H1804     1.0  0.67991  0.41526  0.67540  1.0000
  H   H1805     1.0  0.97697  0.43852  0.54140  1.0000
  H   H1806     1.0  0.79568  0.49228  0.48590  1.0000
  C   C1500     1.0  0.70209  0.49762  0.54966  1.0000
  S   S400      1.0  0.62678  0.32533  0.65959  1.0000
  Fe  Fe199     1.0  0.86653  0.31386  0.55243  1.0000
  C   C1501     1.0  0.90810  0.43986  0.58949  1.0000
  H   H1807     1.0  0.56271  0.37188  0.53528  1.0000
  H   H1808     1.0  0.96198  0.40734  0.56981  1.0000
  H   H1809     1.0  0.53818  0.38869  0.50970  1.0000
  H   H1810     1.0  0.94729  0.31596  0.65539  1.0000
  H   H1811     1.0  0.97409  0.46362  0.65741  1.0000
  H   H1812     1.0  0.58060  0.64160  0.68769  1.0000
  H   H1813     1.0  0.49384  0.53476  0.68305  1.0000
  H   H1814     1.0  0.51197  0.32090  0.69950  1.0000
  H   H1815     1.0  0.70045  0.47353  0.46564  1.0000
  H   H1816     1.0  0.96086  0.32568  0.68554  1.0000
  C   C1502     1.0  0.49129  0.41358  0.54567  1.0000
  H   H1817     1.0  0.48135  0.43136  0.55910  1.0000
  S   S401      1.0  0.60968  0.64469  0.47104  1.0000
  N   N101      1.0  0.71232  0.31659  0.46331  1.0000
  C   C1503     1.0  0.57765  0.56184  0.46355  1.0000
  C   C1504     1.0  0.68252  0.33990  0.71222  1.0000
  Fe  Fe200     1.0  0.83388  0.41827  0.83627  1.0000
  S   S402      1.0  0.84016  0.41025  0.79216  1.0000
  S   S403      1.0  0.86511  0.40137  0.86882  1.0000
  Fe  Fe201     1.0  0.77960  0.46711  0.82956  1.0000
  S   S404      1.0  0.78070  0.46264  0.78548  1.0000
  S   S405      1.0  0.75328  0.50796  0.84688  1.0000
  Fe  Fe202     1.0  0.78392  0.40913  0.79959  1.0000
  H   H1818     1.0  0.54755  0.59477  0.77840  1.0000
  Fe  Fe203     1.0  0.83627  0.46450  0.78237  1.0000
  S   S406      1.0  0.86477  0.50135  0.74848  1.0000
  S   S407      1.0  0.77819  0.41374  0.84446  1.0000
  S   S408      1.0  0.83446  0.47201  0.82570  1.0000
  Fe  Fe204     1.0  0.61490  0.36887  0.93570  1.0000
  C   C1505     1.0  0.88147  0.31596  0.91369  1.0000
  C   C1506     1.0  0.85315  0.49535  0.94860  1.0000
  H   H1819     1.0  0.68386  0.47731  0.79631  1.0000
  C   C1507     1.0  0.75534  0.56917  0.78472  1.0000
  H   H1820     1.0  0.76820  0.64480  0.88891  1.0000
  H   H1821     1.0  0.95499  0.53718  0.94097  1.0000
  H   H1822     1.0  0.70585  0.40355  0.83121  1.0000
  H   H1823     1.0  0.67222  0.38878  0.85780  1.0000
  H   H1824     1.0  0.55055  0.48593  0.85497  1.0000
  C   C1508     1.0  0.94651  0.53259  0.90025  1.0000
  C   C1509     1.0  0.60691  0.64378  0.73471  1.0000
  Fe  Fe205     1.0  0.54656  0.47500  0.76287  1.0000
  S   S409      1.0  0.59535  0.46757  0.73731  1.0000
  S   S410      1.0  0.54667  0.50436  0.79766  1.0000
  S   S411      1.0  0.64701  0.64136  0.87050  1.0000
  H   H1825     1.0  0.54631  0.35258  0.90341  1.0000
  Fe  Fe206     1.0  0.57727  0.41645  0.74120  1.0000
  S   S412      1.0  0.61081  0.37702  0.75588  1.0000
  H   H1826     1.0  0.62659  0.32550  0.79656  1.0000
  H   H1827     1.0  0.74590  0.51306  0.95082  1.0000
  H   H1828     1.0  0.72444  0.37607  0.73134  1.0000
  H   H1829     1.0  0.50093  0.51715  0.84409  1.0000
  N   N102      1.0  0.57228  0.60126  0.72138  1.0000
  H   H1830     1.0  0.53415  0.31361  0.87485  1.0000
  C   C1510     1.0  0.86594  0.35982  0.88037  1.0000
  C   C1511     1.0  0.87967  0.34903  0.90411  1.0000
  C   C1512     1.0  0.52612  0.33510  0.91110  1.0000
  H   H1831     1.0  0.88912  0.36627  0.91506  1.0000
  C   C1513     1.0  0.58999  0.34007  0.77048  1.0000
  C   C1514     1.0  0.72718  0.49672  0.87832  1.0000
  C   C1515     1.0  0.71815  0.46435  0.88813  1.0000
  C   C1516     1.0  0.69745  0.45583  0.91359  1.0000
  C   C1517     1.0  0.68647  0.47958  0.92942  1.0000
  C   C1518     1.0  0.69527  0.51195  0.91949  1.0000
  C   C1519     1.0  0.71545  0.52056  0.89382  1.0000
  H   H1832     1.0  0.68999  0.43095  0.92094  1.0000
  H   H1833     1.0  0.68644  0.53042  0.93156  1.0000
  H   H1834     1.0  0.72212  0.54567  0.88610  1.0000
  C   C1520     1.0  0.60927  0.53284  0.77871  1.0000
  H   H1835     1.0  0.61062  0.51951  0.76189  1.0000
  C   C1521     1.0  0.56677  0.61302  0.77047  1.0000
  C   C1522     1.0  0.56024  0.33131  0.76258  1.0000
  C   C1523     1.0  0.54471  0.46993  0.87526  1.0000
  C   C1524     1.0  0.48017  0.55239  0.86747  1.0000
  S   S413      1.0  0.62624  0.35024  0.89543  1.0000
  H   H1836     1.0  0.73023  0.38941  0.93126  1.0000
  S   S414      1.0  0.66920  0.59736  0.80113  1.0000
  H   H1837     1.0  0.52205  0.58820  0.74157  1.0000
  H   H1838     1.0  0.79440  0.33179  0.80776  1.0000
  C   C1525     1.0  0.95762  0.51917  0.87669  1.0000
  H   H1839     1.0  0.55000  0.34723  0.74685  1.0000
  C   C1526     1.0  0.54518  0.57685  0.73261  1.0000
  S   S415      1.0  0.65674  0.37572  0.95848  1.0000
  C   C1527     1.0  0.79860  0.61068  0.76192  1.0000
  H   H1840     1.0  0.82648  0.64423  0.89799  1.0000
  H   H1841     1.0  0.65364  0.52537  0.86465  1.0000
  C   C1528     1.0  0.74724  0.62744  0.93121  1.0000
  C   C1529     1.0  0.68006  0.39334  0.83515  1.0000
  H   H1842     1.0  0.90697  0.45415  0.90782  1.0000
  C   C1530     1.0  0.49408  0.49773  0.88808  1.0000
  C   C1531     1.0  0.89046  0.53064  0.75729  1.0000
  C   C1532     1.0  0.90002  0.52721  0.78330  1.0000
  C   C1533     1.0  0.91898  0.55165  0.79022  1.0000
  C   C1534     1.0  0.92847  0.57982  0.77126  1.0000
  C   C1535     1.0  0.91944  0.58310  0.74506  1.0000
  C   C1536     1.0  0.90071  0.55849  0.73806  1.0000
  H   H1843     1.0  0.89342  0.50547  0.79795  1.0000
  H   H1844     1.0  0.92639  0.54863  0.81033  1.0000
  C   C1537     1.0  0.79530  0.55047  0.91833  1.0000
  H   H1845     1.0  0.72638  0.44605  0.87583  1.0000
  C   C1538     1.0  0.63468  0.57165  0.80127  1.0000
  C   C1539     1.0  0.60697  0.56792  0.82222  1.0000
  C   C1540     1.0  0.58020  0.54723  0.82102  1.0000
  C   C1541     1.0  0.58114  0.52960  0.79917  1.0000
  C   C1542     1.0  0.63571  0.55380  0.77967  1.0000
  H   H1846     1.0  0.60596  0.58131  0.83911  1.0000
  H   H1847     1.0  0.55859  0.54528  0.83694  1.0000
  H   H1848     1.0  0.65717  0.55619  0.76354  1.0000
  H   H1849     1.0  0.69604  0.32986  0.78729  1.0000
  C   C1543     1.0  0.80049  0.35358  0.94758  1.0000
  S   S416      1.0  0.74756  0.37717  0.78523  1.0000
  C   C1544     1.0  0.96316  0.34734  0.78159  1.0000
  N   N103      1.0  0.65752  0.41551  0.82098  1.0000
  C   C1545     1.0  0.62394  0.40005  0.82540  1.0000
  C   C1546     1.0  0.67021  0.41972  0.79096  1.0000
  S   S417      1.0  0.95162  0.61026  0.78108  1.0000
  C   C1547     1.0  0.65589  0.44607  0.83232  1.0000
  C   C1548     1.0  0.64063  0.44663  0.85996  1.0000
  H   H1850     1.0  0.56465  0.62507  0.81100  1.0000
  C   C1549     1.0  0.63935  0.47507  0.87128  1.0000
  C   C1550     1.0  0.50861  0.33399  0.93767  1.0000
  H   H1851     1.0  0.95856  0.60725  0.84220  1.0000
  H   H1852     1.0  0.60589  0.41680  0.81629  1.0000
  H   H1853     1.0  0.62419  0.37791  0.81573  1.0000
  H   H1854     1.0  0.61397  0.39197  0.84747  1.0000
  H   H1855     1.0  0.69656  0.42848  0.78600  1.0000
  H   H1856     1.0  0.65454  0.43652  0.77904  1.0000
  H   H1857     1.0  0.67007  0.39629  0.78324  1.0000
  C   C1551     1.0  0.66999  0.50351  0.82890  1.0000
  H   H1858     1.0  0.92462  0.54746  0.90128  1.0000
  H   H1859     1.0  0.68300  0.39061  0.73671  1.0000
  H   H1860     1.0  0.63041  0.42485  0.87326  1.0000
  H   H1861     1.0  0.79104  0.54351  0.89858  1.0000
  H   H1862     1.0  0.92684  0.60454  0.73017  1.0000
  H   H1863     1.0  0.84343  0.34575  0.84768  1.0000
  C   C1552     1.0  0.57653  0.63030  0.78966  1.0000
  C   C1553     1.0  0.81101  0.56430  0.79438  1.0000
  H   H1864     1.0  0.71372  0.41435  0.71247  1.0000
  H   H1865     1.0  0.80530  0.53846  0.80315  1.0000
  H   H1866     1.0  0.74755  0.58179  0.80266  1.0000
  H   H1867     1.0  0.80605  0.57838  0.81164  1.0000
  C   C1554     1.0  0.92497  0.37992  0.80726  1.0000
  H   H1868     1.0  0.55681  0.44652  0.87283  1.0000
  H   H1869     1.0  0.92191  0.39519  0.78746  1.0000
  H   H1870     1.0  0.94403  0.39271  0.81543  1.0000
  H   H1871     1.0  0.90113  0.38013  0.82159  1.0000
  N   N104      1.0  0.79089  0.57608  0.77262  1.0000
  H   H1872     1.0  0.85359  0.33668  0.74942  1.0000
  C   C1555     1.0  0.94546  0.33110  0.83018  1.0000
  S   S418      1.0  0.70582  0.62735  0.92535  1.0000
  H   H1873     1.0  0.89818  0.36581  0.76277  1.0000
  C   C1556     1.0  0.49230  0.52167  0.86474  1.0000
  H   H1874     1.0  0.78476  0.56539  0.73294  1.0000
  H   H1875     1.0  0.51201  0.41760  0.90730  1.0000
  H   H1876     1.0  0.66215  0.34155  0.72971  1.0000
  S   S419      1.0  0.59571  0.41888  0.93723  1.0000
  C   C1557     1.0  0.74545  0.33497  0.79666  1.0000
  H   H1877     1.0  0.92462  0.32885  0.84783  1.0000
  C   C1558     1.0  0.67087  0.47542  0.81715  1.0000
  S   S420      1.0  0.47981  0.61523  0.79576  1.0000
  C   C1559     1.0  0.77384  0.63468  0.76169  1.0000
  H   H1878     1.0  0.74972  0.35411  0.92175  1.0000
  H   H1879     1.0  0.73850  0.57620  0.76937  1.0000
  H   H1880     1.0  0.77126  0.47887  0.95875  1.0000
  C   C1560     1.0  0.74660  0.36951  0.93815  1.0000
  H   H1881     1.0  0.89379  0.56120  0.71777  1.0000
  H   H1882     1.0  0.62823  0.47491  0.89258  1.0000
  C   C1561     1.0  0.96959  0.63129  0.89913  1.0000
  H   H1883     1.0  0.96575  0.34538  0.83545  1.0000
  H   H1884     1.0  0.55262  0.55807  0.74887  1.0000
  C   C1562     1.0  0.58174  0.61924  0.74229  1.0000
  C   C1563     1.0  0.82887  0.50407  0.93130  1.0000
  C   C1564     1.0  0.83388  0.49322  0.90543  1.0000
  H   H1885     1.0  0.83815  0.56569  0.78660  1.0000
  C   C1565     1.0  0.86193  0.47573  0.89711  1.0000
  Fe  Fe207     1.0  0.67516  0.63401  0.82926  1.0000
  Fe  Fe208     1.0  0.50880  0.43506  0.72896  1.0000
  C   C1566     1.0  0.80622  0.63720  0.91474  1.0000
  H   H1886     1.0  0.81782  0.56657  0.91406  1.0000
  C   C1567     1.0  0.48919  0.64178  0.92464  1.0000
  S   S421      1.0  0.85484  0.62872  0.94677  1.0000
  S   S422      1.0  0.51956  0.48809  0.72671  1.0000
  C   C1568     1.0  0.51888  0.31269  0.89485  1.0000
  S   S423      1.0  0.72527  0.63601  0.84260  1.0000
  C   C1569     1.0  0.70505  0.38906  0.72066  1.0000
  H   H1887     1.0  0.94635  0.62450  0.94180  1.0000
  H   H1888     1.0  0.81604  0.49799  0.89145  1.0000
  H   H1889     1.0  0.51708  0.44890  0.92622  1.0000
  N   N105      1.0  0.77904  0.38197  0.94255  1.0000
  H   H1890     1.0  0.80222  0.33855  0.93096  1.0000
  H   H1891     1.0  0.75050  0.54298  0.79254  1.0000
  H   H1892     1.0  0.82602  0.55947  0.74070  1.0000
  N   N106      1.0  0.93451  0.34636  0.80413  1.0000
  C   C1570     1.0  0.89066  0.34237  0.77463  1.0000
  S   S424      1.0  0.94302  0.41963  0.72967  1.0000
  C   C1571     1.0  0.75421  0.61743  0.95791  1.0000
  S   S425      1.0  0.52953  0.42287  0.76876  1.0000
  H   H1893     1.0  0.68238  0.52545  0.81734  1.0000
  N   N107      1.0  0.79877  0.52226  0.93981  1.0000
  H   H1894     1.0  0.68116  0.36944  0.82811  1.0000
  H   H1895     1.0  0.50425  0.62045  0.92389  1.0000
  C   C1572     1.0  0.90662  0.32877  0.79699  1.0000
  H   H1896     1.0  0.57050  0.63969  0.94410  1.0000
  C   C1573     1.0  0.65386  0.50349  0.85570  1.0000
  C   C1574     1.0  0.50302  0.44196  0.91061  1.0000
  C   C1575     1.0  0.81323  0.62768  0.94145  1.0000
  C   C1576     1.0  0.79922  0.55726  0.74981  1.0000
  C   C1577     1.0  0.79425  0.40303  0.91686  1.0000
  C   C1578     1.0  0.88541  0.46791  0.91439  1.0000
  C   C1579     1.0  0.85395  0.33749  0.86612  1.0000
  H   H1897     1.0  0.95803  0.36181  0.76204  1.0000
  H   H1898     1.0  0.79411  0.53099  0.75695  1.0000
  H   H1899     1.0  0.86544  0.46796  0.87715  1.0000
  H   H1900     1.0  0.77886  0.42456  0.91203  1.0000
  C   C1580     1.0  0.96352  0.52673  0.92258  1.0000
  H   H1901     1.0  0.53860  0.56376  0.71645  1.0000
  H   H1902     1.0  0.55687  0.48102  0.89008  1.0000
  H   H1903     1.0  0.74800  0.62931  0.77029  1.0000
  H   H1904     1.0  0.77350  0.56519  0.92474  1.0000
  H   H1905     1.0  0.51454  0.35104  0.95045  1.0000
  H   H1906     1.0  0.79720  0.38989  0.89898  1.0000
  C   C1581     1.0  0.88100  0.47765  0.94011  1.0000
  H   H1907     1.0  0.89928  0.47150  0.95361  1.0000
  S   S426      1.0  0.66235  0.46898  0.96188  1.0000
  C   C1582     1.0  0.83178  0.62114  0.75061  1.0000
  H   H1908     1.0  0.61181  0.56774  0.72565  1.0000
  C   C1583     1.0  0.77333  0.63731  0.90960  1.0000
  C   C1584     1.0  0.49344  0.45162  0.86385  1.0000
  H   H1909     1.0  0.85190  0.60431  0.75000  1.0000
  C   C1585     1.0  0.71692  0.31734  0.79471  1.0000
  H   H1910     1.0  0.81954  0.41188  0.91816  1.0000
  H   H1911     1.0  0.76576  0.49263  0.92397  1.0000
  H   H1912     1.0  0.96907  0.32267  0.77721  1.0000
  H   H1913     1.0  0.50192  0.42663  0.86238  1.0000
  C   C1586     1.0  0.86524  0.32575  0.76665  1.0000
  H   H1914     1.0  0.49136  0.34245  0.74107  1.0000
  N   N108      1.0  0.50836  0.46578  0.88469  1.0000
  C   C1587     1.0  0.77225  0.31850  0.80629  1.0000
  C   C1588     1.0  0.48355  0.50682  0.91436  1.0000
  H   H1915     1.0  0.73337  0.35443  0.95730  1.0000
  H   H1916     1.0  0.82655  0.36030  0.94838  1.0000
  C   C1589     1.0  0.76915  0.50080  0.94347  1.0000
  H   H1917     1.0  0.70191  0.32429  0.72048  1.0000
  H   H1918     1.0  0.50033  0.46534  0.84265  1.0000
  C   C1590     1.0  0.60352  0.31913  0.79046  1.0000
  H   H1919     1.0  0.87597  0.40803  0.72511  1.0000
  H   H1920     1.0  0.94444  0.52372  0.85924  1.0000
  H   H1921     1.0  0.48449  0.49065  0.93336  1.0000
  C   C1591     1.0  0.94850  0.63974  0.92179  1.0000
  S   S427      1.0  0.61317  0.85683  0.00466  1.0000
  H   H1922     1.0  0.74071  0.87860  0.15357  1.0000
  Fe  Fe209     1.0  0.83489  0.72155  0.00202  1.0000
  S   S428      1.0  0.84300  0.74024  0.04011  1.0000
  H   H1923     1.0  0.72156  0.73131  0.05953  1.0000
  S   S429      1.0  0.87836  0.80274  0.99927  1.0000
  Fe  Fe210     1.0  0.89425  0.75334  0.01664  1.0000
  S   S430      1.0  0.94270  0.75197  0.03371  1.0000
  Fe  Fe211     1.0  0.82633  0.78721  0.01849  1.0000
  S   S431      1.0  0.79195  0.82172  0.03869  1.0000
  S   S432      1.0  0.88727  0.73168  0.97966  1.0000
  S   S433      1.0  0.81445  0.76765  0.98211  1.0000
  H   H1924     1.0  0.96821  0.80536  0.05830  1.0000
  C   C1592     1.0  0.81362  0.96218  0.06541  1.0000
  C   C1593     1.0  0.96610  0.95474  0.03101  1.0000
  Fe  Fe212     1.0  0.81034  0.73958  0.17673  1.0000
  H   H1925     1.0  0.73144  0.87252  0.20109  1.0000
  S   S434      1.0  0.84962  0.73602  0.13989  1.0000
  H   H1926     1.0  0.56794  0.67614  0.00824  1.0000
  C   C1594     1.0  0.74470  0.65162  0.03187  1.0000
  S   S435      1.0  0.78269  0.78480  0.18254  1.0000
  Fe  Fe213     1.0  0.73236  0.75597  0.19191  1.0000
  C   C1595     1.0  0.75906  0.70621  0.03616  1.0000
  C   C1596     1.0  0.84851  0.82889  0.12223  1.0000
  H   H1927     1.0  0.96635  0.71828  0.11663  1.0000
  H   H1928     1.0  0.85287  0.85154  0.13015  1.0000
  C   C1597     1.0  0.62881  0.74660  0.17158  1.0000
  H   H1929     1.0  0.48476  0.67300  0.13168  1.0000
  H   H1930     1.0  0.95710  0.69077  0.97192  1.0000
  H   H1931     1.0  0.86427  0.96852  0.04447  1.0000
  C   C1598     1.0  0.61598  0.69591  0.15823  1.0000
  C   C1599     1.0  0.63499  0.72435  0.15355  1.0000
  S   S436      1.0  0.85807  0.96377  0.20469  1.0000
  C   C1600     1.0  0.76768  0.67753  0.02629  1.0000
  H   H1932     1.0  0.88325  0.67141  0.06672  1.0000
  H   H1933     1.0  0.65561  0.72829  0.13666  1.0000
  C   C1601     1.0  0.85322  0.69939  0.12649  1.0000
  C   C1602     1.0  0.86860  0.69961  0.09916  1.0000
  H   H1934     1.0  0.84854  0.92029  0.01578  1.0000
  C   C1603     1.0  0.60228  0.74104  0.19360  1.0000
  C   C1604     1.0  0.84811  0.95978  0.06368  1.0000
  C   C1605     1.0  0.89518  0.83833  0.08499  1.0000
  H   H1935     1.0  0.87768  0.72217  0.08647  1.0000
  H   H1936     1.0  0.49313  0.66725  0.17693  1.0000
  H   H1937     1.0  0.71308  0.70924  0.99142  1.0000
  H   H1938     1.0  0.83184  0.66923  0.16438  1.0000
  C   C1606     1.0  0.96388  0.71627  0.04406  1.0000
  H   H1939     1.0  0.72463  0.97145  0.05311  1.0000
  S   S437      1.0  0.58275  0.65747  0.11121  1.0000
  S   S438      1.0  0.56851  0.65219  0.18718  1.0000
  C   C1607     1.0  0.90955  0.86610  0.09172  1.0000
  C   C1608     1.0  0.72787  0.70902  0.05183  1.0000
  H   H1940     1.0  0.73971  0.74353  0.98804  1.0000
  C   C1609     1.0  0.68184  0.85066  0.17746  1.0000
  C   C1610     1.0  0.96502  0.84981  0.07459  1.0000
  C   C1611     1.0  0.72282  0.88416  0.98924  1.0000
  C   C1612     1.0  0.71954  0.85042  0.99301  1.0000
  C   C1613     1.0  0.74194  0.83087  0.00683  1.0000
  C   C1614     1.0  0.76714  0.84508  0.01738  1.0000
  C   C1615     1.0  0.77039  0.87872  0.01338  1.0000
  C   C1616     1.0  0.89882  0.90649  0.01935  1.0000
  H   H1941     1.0  0.69994  0.74764  0.97594  1.0000
  H   H1942     1.0  0.73899  0.80488  0.01028  1.0000
  H   H1943     1.0  0.78944  0.88989  0.02178  1.0000
  S   S439      1.0  0.79264  0.91513  0.20943  1.0000
  H   H1944     1.0  0.79041  0.93079  0.13314  1.0000
  H   H1945     1.0  0.77645  0.72636  0.03184  1.0000
  Fe  Fe214     1.0  0.86760  0.78015  0.96406  1.0000
  H   H1946     1.0  0.89906  0.91708  0.03775  1.0000
  H   H1947     1.0  0.90417  0.73954  0.21045  1.0000
  S   S440      1.0  0.65778  0.77842  0.16882  1.0000
  H   H1948     1.0  0.85989  0.78058  0.09303  1.0000
  H   H1949     1.0  0.69961  0.83945  0.98551  1.0000
  H   H1950     1.0  0.51752  0.78123  0.02875  1.0000
  H   H1951     1.0  0.82160  0.82269  0.12844  1.0000
  H   H1952     1.0  0.68234  0.87732  0.17680  1.0000
  S   S441      1.0  0.55927  0.85447  0.96256  1.0000
  C   C1617     1.0  0.87044  0.90840  0.00696  1.0000
  C   C1618     1.0  0.51357  0.67888  0.07383  1.0000
  N   N109      1.0  0.85882  0.83211  0.09198  1.0000
  H   H1953     1.0  0.76606  0.95334  0.09170  1.0000
  C   C1619     1.0  0.51447  0.94496  0.00895  1.0000
  N   N110      1.0  0.71508  0.83667  0.17908  1.0000
  H   H1954     1.0  0.75759  0.68159  0.96927  1.0000
  C   C1620     1.0  0.92615  0.70993  0.18100  1.0000
  H   H1955     1.0  0.94599  0.68653  0.10486  1.0000
  C   C1621     1.0  0.71228  0.80102  0.18155  1.0000
  C   C1622     1.0  0.72277  0.78371  0.15665  1.0000
  H   H1956     1.0  0.50213  0.72859  0.07626  1.0000
  C   C1623     1.0  0.71383  0.74850  0.15798  1.0000
  H   H1957     1.0  0.60898  0.66071  0.00140  1.0000
  C   C1624     1.0  0.94395  0.87172  0.08647  1.0000
  H   H1958     1.0  0.76781  0.64728  0.08081  1.0000
  H   H1959     1.0  0.54879  0.95518  0.97093  1.0000
  C   C1625     1.0  0.59009  0.68958  0.18057  1.0000
  H   H1960     1.0  0.72889  0.84922  0.13487  1.0000
  H   H1961     1.0  0.88857  0.94551  0.08567  1.0000
  C   C1626     1.0  0.95454  0.69296  0.17081  1.0000
  C   C1627     1.0  0.58269  0.71260  0.19794  1.0000
  C   C1628     1.0  0.93696  0.96622  0.12088  1.0000
  H   H1962     1.0  0.73523  0.79634  0.13712  1.0000
  H   H1963     1.0  0.92261  0.71055  0.12693  1.0000
  H   H1964     1.0  0.72016  0.73718  0.13984  1.0000
  C   C1629     1.0  0.84793  0.80225  0.08329  1.0000
  H   H1965     1.0  0.75020  0.83408  0.20749  1.0000
  H   H1966     1.0  0.89429  0.88336  0.10163  1.0000
  H   H1967     1.0  0.84821  0.86246  0.05554  1.0000
  H   H1968     1.0  0.90898  0.79502  0.06654  1.0000
  H   H1969     1.0  0.68710  0.70469  0.18487  1.0000
  N   N111      1.0  0.61005  0.77279  0.07366  1.0000
  C   C1630     1.0  0.63349  0.76667  0.04905  1.0000
  C   C1631     1.0  0.62894  0.79033  0.09007  1.0000
  C   C1632     1.0  0.59851  0.74150  0.09088  1.0000
  C   C1633     1.0  0.58094  0.79034  0.06495  1.0000
  C   C1634     1.0  0.56079  0.77670  0.04880  1.0000
  C   C1635     1.0  0.57122  0.82062  0.07258  1.0000
  C   C1636     1.0  0.53264  0.79230  0.04090  1.0000
  C   C1637     1.0  0.54313  0.83609  0.06439  1.0000
  C   C1638     1.0  0.52390  0.82199  0.04862  1.0000
  H   H1970     1.0  0.62269  0.75026  0.03723  1.0000
  H   H1971     1.0  0.64091  0.78955  0.03463  1.0000
  H   H1972     1.0  0.65654  0.75494  0.05475  1.0000
  H   H1973     1.0  0.63892  0.81397  0.07815  1.0000
  H   H1974     1.0  0.65076  0.77641  0.09608  1.0000
  H   H1975     1.0  0.61341  0.79422  0.10976  1.0000
  H   H1976     1.0  0.58762  0.72516  0.07909  1.0000
  H   H1977     1.0  0.61928  0.72825  0.09924  1.0000
  H   H1978     1.0  0.57947  0.74498  0.10882  1.0000
  H   H1979     1.0  0.56668  0.75382  0.04210  1.0000
  H   H1980     1.0  0.58498  0.83301  0.08468  1.0000
  C   C1639     1.0  0.97084  0.83812  0.99258  1.0000
  H   H1981     1.0  0.53638  0.85946  0.06999  1.0000
  Fe  Fe215     1.0  0.60404  0.82687  0.97295  1.0000
  C   C1640     1.0  0.74874  0.89813  0.99897  1.0000
  C   C1641     1.0  0.91741  0.81679  0.07241  1.0000
  C   C1642     1.0  0.96216  0.96971  0.09809  1.0000
  C   C1643     1.0  0.73809  0.85206  0.15418  1.0000
  H   H1982     1.0  0.90385  0.71077  0.17172  1.0000
  H   H1983     1.0  0.67248  0.84576  0.15872  1.0000
  S   S442      1.0  0.53005  0.90643  0.01939  1.0000
  H   H1984     1.0  0.62232  0.67866  0.14475  1.0000
  C   C1644     1.0  0.48718  0.95647  0.02545  1.0000
  C   C1645     1.0  0.80648  0.93857  0.11369  1.0000
  S   S443      1.0  0.69457  0.90972  0.97320  1.0000
  H   H1985     1.0  0.93054  0.68330  0.03256  1.0000
  C   C1646     1.0  0.86184  0.94673  0.08692  1.0000
  S   S444      1.0  0.85826  0.92189  0.14126  1.0000
  C   C1647     1.0  0.92706  0.89116  0.00809  1.0000
  C   C1648     1.0  0.95264  0.68564  0.04157  1.0000
  C   C1649     1.0  0.72202  0.73208  0.97746  1.0000
  H   H1986     1.0  0.82061  0.79779  0.08910  1.0000
  S   S445      1.0  0.76377  0.71013  0.18347  1.0000
  C   C1650     1.0  0.52819  0.96385  0.98399  1.0000
  H   H1987     1.0  0.76347  0.84227  0.15359  1.0000
  C   C1651     1.0  0.94696  0.69877  0.12296  1.0000
  H   H1988     1.0  0.71402  0.96984  0.99315  1.0000
  Fe  Fe216     1.0  0.57173  0.88771  0.99056  1.0000
  H   H1989     1.0  0.81346  0.85499  0.08273  1.0000
  C   C1652     1.0  0.84102  0.93660  0.11200  1.0000
  S   S446      1.0  0.60710  0.77273  0.97805  1.0000
  C   C1653     1.0  0.70519  0.68305  0.05797  1.0000
  H   H1990     1.0  0.52082  0.65219  0.99482  1.0000
  H   H1991     1.0  0.95410  0.93985  0.04973  1.0000
  S   S447      1.0  0.70693  0.96357  0.20483  1.0000
  S   S448      1.0  0.66690  0.68788  0.07820  1.0000
  H   H1992     1.0  0.93118  0.94268  0.13341  1.0000
  Fe  Fe217     1.0  0.83005  0.94303  0.17633  1.0000
  S   S449      1.0  0.80711  0.67441  0.00711  1.0000
  H   H1993     1.0  0.53643  0.68031  0.08158  1.0000
  C   C1654     1.0  0.49415  0.70649  0.07049  1.0000
  H   H1994     1.0  0.84559  0.88244  0.08506  1.0000
  C   C1655     1.0  0.79272  0.95104  0.09025  1.0000
  H   H1995     1.0  0.73437  0.97176  0.14621  1.0000
  H   H1996     1.0  0.86246  0.80938  0.13321  1.0000
  H   H1997     1.0  0.95104  0.81983  0.00242  1.0000
  C   C1656     1.0  0.84293  0.66988  0.14305  1.0000
  C   C1657     1.0  0.69314  0.78113  0.20783  1.0000
  C   C1658     1.0  0.92784  0.87732  0.98386  1.0000
  H   H1998     1.0  0.94853  0.89062  0.01834  1.0000
  H   H1999     1.0  0.84783  0.89585  0.97396  1.0000
  C   C1659     1.0  0.84089  0.85927  0.07830  1.0000
  H   H2000     1.0  0.69319  0.95068  0.04151  1.0000
  H   H2001     1.0  0.85380  0.80370  0.06057  1.0000
  C   C1660     1.0  0.87242  0.67081  0.08804  1.0000
  C   C1661     1.0  0.50316  0.64982  0.06732  1.0000
  C   C1662     1.0  0.69463  0.72942  0.18427  1.0000
  H   H2002     1.0  0.50230  0.83426  0.04224  1.0000
  C   C1663     1.0  0.92761  0.65027  0.15447  1.0000
  C   C1664     1.0  0.71338  0.65434  0.04787  1.0000
  C   C1665     1.0  0.95177  0.82249  0.06749  1.0000
  C   C1666     1.0  0.72669  0.84600  0.20349  1.0000
  N   N112      1.0  0.95405  0.67576  0.14716  1.0000
  H   H2003     1.0  0.65855  0.95657  0.01004  1.0000
  H   H2004     1.0  0.90269  0.66021  0.16028  1.0000
  C   C1667     1.0  0.58223  0.65355  0.00718  1.0000
  H   H2005     1.0  0.60155  0.96337  0.00103  1.0000
  C   C1668     1.0  0.87019  0.89483  0.98329  1.0000
  N   N113      1.0  0.95869  0.86264  0.97162  1.0000
  H   H2006     1.0  0.66307  0.84006  0.19540  1.0000
  H   H2007     1.0  0.48043  0.87255  0.99401  1.0000
  C   C1669     1.0  0.68411  0.74574  0.20903  1.0000
  Fe  Fe218     1.0  0.64606  0.88683  0.96927  1.0000
  H   H2008     1.0  0.97637  0.94904  0.09295  1.0000
  H   H2009     1.0  0.75168  0.92407  0.99608  1.0000
  C   C1670     1.0  0.92595  0.72637  0.20326  1.0000
  C   C1671     1.0  0.69970  0.97438  0.04663  1.0000
  H   H2010     1.0  0.68596  0.64792  0.19466  1.0000
  C   C1672     1.0  0.97036  0.65795  0.05037  1.0000
  C   C1673     1.0  0.89849  0.87979  0.97164  1.0000
  H   H2011     1.0  0.59767  0.75806  0.20783  1.0000
  H   H2012     1.0  0.79032  0.64998  0.10830  1.0000
  H   H2013     1.0  0.95439  0.89295  0.09195  1.0000
  Fe  Fe219     1.0  0.76265  0.96046  0.20496  1.0000
  H   H2014     1.0  0.55132  0.86976  0.31794  1.0000
  S   S450      1.0  0.83614  0.91332  0.27740  1.0000
  C   C1674     1.0  0.77053  0.82847  0.37398  1.0000
  C   C1675     1.0  0.95520  0.89014  0.42333  1.0000
  S   S451      1.0  0.75335  0.67906  0.41659  1.0000
  H   H2015     1.0  0.94296  0.88597  0.40578  1.0000
  H   H2016     1.0  0.81705  0.85008  0.37961  1.0000
  C   C1676     1.0  0.83738  0.75751  0.33513  1.0000
  C   C1677     1.0  0.49734  0.82433  0.26195  1.0000
  C   C1678     1.0  0.76292  0.86508  0.26834  1.0000
  C   C1679     1.0  0.88149  0.83513  0.25015  1.0000
  C   C1680     1.0  0.97140  0.92877  0.44991  1.0000
  H   H2017     1.0  0.69796  0.65078  0.26668  1.0000
  H   H2018     1.0  0.60116  0.85164  0.23989  1.0000
  Fe  Fe220     1.0  0.70452  0.69500  0.40397  1.0000
  S   S452      1.0  0.70605  0.72945  0.36429  1.0000
  H   H2019     1.0  0.83404  0.80310  0.40972  1.0000
  H   H2020     1.0  0.74612  0.75096  0.40389  1.0000
  S   S453      1.0  0.62514  0.92549  0.35589  1.0000
  S   S454      1.0  0.66892  0.89171  0.29754  1.0000
  S   S455      1.0  0.53541  0.93121  0.33621  1.0000
  Fe  Fe221     1.0  0.58495  0.95335  0.33775  1.0000
  C   C1681     1.0  0.78508  0.69451  0.31306  1.0000
  C   C1682     1.0  0.50106  0.94853  0.35381  1.0000
  H   H2021     1.0  0.50085  0.68654  0.21855  1.0000
  S   S456      1.0  0.50925  0.70594  0.36430  1.0000
  H   H2022     1.0  0.77646  0.70718  0.29490  1.0000
  H   H2023     1.0  0.49637  0.69189  0.44240  1.0000
  S   S457      1.0  0.93887  0.71857  0.40341  1.0000
  Fe  Fe222     1.0  0.52491  0.74179  0.32599  1.0000
  S   S458      1.0  0.57631  0.76350  0.31103  1.0000
  S   S459      1.0  0.92889  0.71371  0.32735  1.0000
  S   S460      1.0  0.50194  0.71460  0.29810  1.0000
  C   C1683     1.0  0.80097  0.82886  0.38440  1.0000
  C   C1684     1.0  0.75799  0.83319  0.26462  1.0000
  S   S461      1.0  0.97457  0.77650  0.33176  1.0000
  C   C1685     1.0  0.76154  0.77272  0.39839  1.0000
  Fe  Fe223     1.0  0.95011  0.75862  0.29949  1.0000
  H   H2024     1.0  0.97373  0.95472  0.45153  1.0000
  C   C1686     1.0  0.49701  0.82323  0.44642  1.0000
  C   C1687     1.0  0.77407  0.66255  0.32225  1.0000
  H   H2025     1.0  0.90726  0.91737  0.45523  1.0000
  H   H2026     1.0  0.59463  0.85976  0.31410  1.0000
  H   H2027     1.0  0.70685  0.84686  0.36566  1.0000
  Fe  Fe224     1.0  0.95723  0.72926  0.35806  1.0000
  H   H2028     1.0  0.84255  0.77451  0.28174  1.0000
  C   C1688     1.0  0.67336  0.65894  0.26419  1.0000
  S   S462      1.0  0.73974  0.74185  0.23809  1.0000
  H   H2029     1.0  0.74694  0.90681  0.36116  1.0000
  Fe  Fe225     1.0  0.81889  0.93843  0.23805  1.0000
  H   H2030     1.0  0.85711  0.73402  0.28791  1.0000
  C   C1689     1.0  0.81102  0.80206  0.40152  1.0000
  C   C1690     1.0  0.66887  0.73717  0.35073  1.0000
  C   C1691     1.0  0.63781  0.72431  0.36454  1.0000
  C   C1692     1.0  0.60881  0.73192  0.35277  1.0000
  C   C1693     1.0  0.61104  0.75241  0.32730  1.0000
  C   C1694     1.0  0.64216  0.76460  0.31357  1.0000
  C   C1695     1.0  0.67083  0.75714  0.32521  1.0000
  H   H2031     1.0  0.63613  0.70870  0.38425  1.0000
  H   H2032     1.0  0.58489  0.72212  0.36341  1.0000
  H   H2033     1.0  0.64411  0.77970  0.29363  1.0000
  H   H2034     1.0  0.69469  0.76691  0.31441  1.0000
  C   C1696     1.0  0.81602  0.69129  0.35098  1.0000
  H   H2035     1.0  0.76968  0.75876  0.30341  1.0000
  C   C1697     1.0  0.75622  0.88470  0.37301  1.0000
  H   H2036     1.0  0.88351  0.82405  0.23184  1.0000
  C   C1698     1.0  0.80604  0.71009  0.32734  1.0000
  H   H2037     1.0  0.81894  0.74271  0.27455  1.0000
  Fe  Fe226     1.0  0.66409  0.65575  0.45391  1.0000
  H   H2038     1.0  0.70789  0.84026  0.22234  1.0000
  C   C1699     1.0  0.78560  0.76439  0.31822  1.0000
  H   H2039     1.0  0.61074  0.90286  0.27578  1.0000
  C   C1700     1.0  0.72585  0.81977  0.27121  1.0000
  C   C1701     1.0  0.69902  0.83836  0.28092  1.0000
  C   C1702     1.0  0.70389  0.87051  0.28416  1.0000
  H   H2040     1.0  0.72160  0.79508  0.26893  1.0000
  H   H2041     1.0  0.67434  0.82770  0.28629  1.0000
  C   C1703     1.0  0.85980  0.87794  0.27509  1.0000
  C   C1704     1.0  0.86335  0.86360  0.25141  1.0000
  H   H2042     1.0  0.92591  0.97049  0.38949  1.0000
  C   C1705     1.0  0.89670  0.82084  0.27235  1.0000
  C   C1706     1.0  0.89335  0.83520  0.29608  1.0000
  C   C1707     1.0  0.87483  0.86358  0.29747  1.0000
  C   C1708     1.0  0.50488  0.96878  0.37282  1.0000
  H   H2043     1.0  0.78774  0.87538  0.26355  1.0000
  H   H2044     1.0  0.90498  0.82444  0.31331  1.0000
  H   H2045     1.0  0.87248  0.87465  0.31577  1.0000
  H   H2046     1.0  0.74028  0.90869  0.27994  1.0000
  H   H2047     1.0  0.72789  0.79633  0.37417  1.0000
  Fe  Fe227     1.0  0.65606  0.93883  0.31392  1.0000
  C   C1709     1.0  0.92275  0.67934  0.40770  1.0000
  C   C1710     1.0  0.73603  0.88393  0.27769  1.0000
  Fe  Fe228     1.0  0.77206  0.70124  0.22708  1.0000
  H   H2048     1.0  0.79892  0.75344  0.42209  1.0000
  H   H2049     1.0  0.84434  0.78336  0.32718  1.0000
  H   H2050     1.0  0.82457  0.75624  0.35672  1.0000
  C   C1711     1.0  0.83438  0.74889  0.28938  1.0000
  H   H2051     1.0  0.73837  0.87813  0.39255  1.0000
  H   H2052     1.0  0.49483  0.81924  0.42523  1.0000
  C   C1712     1.0  0.95378  0.72620  0.21621  1.0000
  H   H2053     1.0  0.53007  0.91207  0.25473  1.0000
  H   H2054     1.0  0.81306  0.66581  0.45551  1.0000
  H   H2055     1.0  0.59776  0.89328  0.45855  1.0000
  H   H2056     1.0  0.71956  0.87592  0.33574  1.0000
  N   N114      1.0  0.75972  0.85768  0.35698  1.0000
  H   H2057     1.0  0.95348  0.73912  0.23340  1.0000
  H   H2058     1.0  0.94276  0.87403  0.44220  1.0000
  H   H2059     1.0  0.75755  0.65152  0.31121  1.0000
  S   S463      1.0  0.76621  0.65023  0.24952  1.0000
  H   H2060     1.0  0.52940  0.97420  0.37673  1.0000
  H   H2061     1.0  0.86124  0.74447  0.33496  1.0000
  N   N115      1.0  0.57378  0.86605  0.27648  1.0000
  C   C1713     1.0  0.59967  0.84644  0.26265  1.0000
  C   C1714     1.0  0.58585  0.90015  0.26990  1.0000
  C   C1715     1.0  0.57076  0.85591  0.30669  1.0000
  C   C1716     1.0  0.54133  0.86117  0.26778  1.0000
  C   C1717     1.0  0.52770  0.82961  0.27032  1.0000
  C   C1718     1.0  0.52211  0.88720  0.25706  1.0000
  H   H2062     1.0  0.79196  0.79059  0.31222  1.0000
  H   H2063     1.0  0.66883  0.73262  0.22719  1.0000
  H   H2064     1.0  0.76998  0.76045  0.33896  1.0000
  C   C1719     1.0  0.79128  0.77407  0.40856  1.0000
  H   H2065     1.0  0.62473  0.85131  0.26756  1.0000
  H   H2066     1.0  0.59501  0.82008  0.26936  1.0000
  C   C1720     1.0  0.89888  0.67299  0.39200  1.0000
  H   H2067     1.0  0.88833  0.69265  0.37959  1.0000
  H   H2068     1.0  0.56913  0.91597  0.28162  1.0000
  C   C1721     1.0  0.80490  0.65924  0.35993  1.0000
  H   H2069     1.0  0.58562  0.69190  0.25766  1.0000
  H   H2070     1.0  0.56253  0.70809  0.21514  1.0000
  H   H2071     1.0  0.54039  0.80869  0.27890  1.0000
  H   H2072     1.0  0.85164  0.87412  0.23416  1.0000
  H   H2073     1.0  0.78026  0.89179  0.37837  1.0000
  H   H2074     1.0  0.56400  0.82989  0.31314  1.0000
  C   C1722     1.0  0.93608  0.65389  0.42415  1.0000
  H   H2075     1.0  0.83688  0.65951  0.22827  1.0000
  S   S464      1.0  0.91822  0.78435  0.26971  1.0000
  C   C1723     1.0  0.62909  0.69516  0.27619  1.0000
  H   H2076     1.0  0.58860  0.90945  0.24745  1.0000
  Fe  Fe229     1.0  0.64220  0.97292  0.36465  1.0000
  C   C1724     1.0  0.78488  0.86717  0.33192  1.0000
  S   S465      1.0  0.79250  0.81071  0.25227  1.0000
  H   H2077     1.0  0.80945  0.87377  0.33655  1.0000
  C   C1725     1.0  0.95224  0.96677  0.38420  1.0000
  C   C1726     1.0  0.82857  0.94540  0.44576  1.0000
  H   H2078     1.0  0.91547  0.95787  0.43782  1.0000
  Fe  Fe230     1.0  0.97589  0.68978  0.31225  1.0000
  S   S466      1.0  0.61479  0.96572  0.29574  1.0000
  H   H2079     1.0  0.90283  0.92711  0.41984  1.0000
  C   C1727     1.0  0.75120  0.79934  0.38130  1.0000
  S   S467      1.0  0.48087  0.77374  0.33315  1.0000
  H   H2080     1.0  0.83190  0.70094  0.36319  1.0000
  N   N116      1.0  0.81585  0.74452  0.31790  1.0000
  H   H2081     1.0  0.77722  0.88875  0.31836  1.0000
  C   C1728     1.0  0.61026  0.68271  0.25927  1.0000
  H   H2082     1.0  0.52346  0.81949  0.44907  1.0000
  C   C1729     1.0  0.72729  0.85331  0.34791  1.0000
  Fe  Fe231     1.0  0.78635  0.77149  0.22720  1.0000
  Fe  Fe232     1.0  0.73072  0.68807  0.45857  1.0000
  Fe  Fe233     1.0  0.48331  0.68054  0.33713  1.0000
  H   H2083     1.0  0.78891  0.84750  0.31931  1.0000
  H   H2084     1.0  0.72846  0.83448  0.33441  1.0000
  S   S468      1.0  0.68315  0.70748  0.44527  1.0000
  H   H2085     1.0  0.95496  0.65881  0.43598  1.0000
  H   H2086     1.0  0.49509  0.94652  0.29076  1.0000
  H   H2087     1.0  0.61906  0.71389  0.28747  1.0000
  C   C1730     1.0  0.97002  0.94480  0.40111  1.0000
  H   H2088     1.0  0.67541  0.69355  0.29158  1.0000
  H   H2089     1.0  0.55256  0.70905  0.44823  1.0000
  N   N117      1.0  0.95377  0.92449  0.42689  1.0000
  C   C1731     1.0  0.49163  0.88165  0.24893  1.0000
  H   H2090     1.0  0.68351  0.79230  0.22543  1.0000
  H   H2091     1.0  0.49183  0.84903  0.44743  1.0000
  H   H2092     1.0  0.85270  0.65087  0.44277  1.0000
  H   H2093     1.0  0.62096  0.84099  0.45392  1.0000
  C   C1732     1.0  0.66074  0.68356  0.27847  1.0000
  S   S469      1.0  0.81979  0.72953  0.22028  1.0000
  H   H2094     1.0  0.48755  0.79994  0.26394  1.0000
  H   H2095     1.0  0.60518  0.95046  0.44806  1.0000
  C   C1733     1.0  0.62277  0.65830  0.24471  1.0000
  H   H2096     1.0  0.83525  0.93309  0.42824  1.0000
  C   C1734     1.0  0.82160  0.97836  0.44167  1.0000
  H   H2097     1.0  0.60677  0.64990  0.23197  1.0000
  H   H2098     1.0  0.81192  0.64549  0.37844  1.0000
  C   C1735     1.0  0.49457  0.96777  0.27528  1.0000
  C   C1736     1.0  0.91829  0.93214  0.43517  1.0000
  Fe  Fe234     1.0  0.68382  0.85432  0.63306  1.0000
  S   S470      1.0  0.64818  0.86398  0.60293  1.0000
  S   S471      1.0  0.66721  0.83598  0.67814  1.0000
  Fe  Fe235     1.0  0.74496  0.86804  0.58917  1.0000
  S   S472      1.0  0.71529  0.87659  0.55481  1.0000
  S   S473      1.0  0.80077  0.87153  0.58196  1.0000
  Fe  Fe236     1.0  0.68297  0.90513  0.58233  1.0000
  C   C1737     1.0  0.52183  0.85424  0.68229  1.0000
  Fe  Fe237     1.0  0.68304  0.83483  0.57771  1.0000
  S   S474      1.0  0.66374  0.79707  0.55670  1.0000
  S   S475      1.0  0.71470  0.89935  0.61557  1.0000
  S   S476      1.0  0.71670  0.82238  0.60925  1.0000
  S   S477      1.0  0.53597  0.83184  0.50105  1.0000
  H   H2099     1.0  0.56831  0.86413  0.53683  1.0000
  Fe  Fe238     1.0  0.92232  0.78410  0.55182  1.0000
  S   S478      1.0  0.87981  0.81445  0.56608  1.0000
  S   S479      1.0  0.92679  0.73335  0.57300  1.0000
  C   C1738     1.0  0.88709  0.67238  0.50887  1.0000
  S   S480      1.0  0.91459  0.87351  0.51983  1.0000
  C   C1739     1.0  0.48063  0.95265  0.53553  1.0000
  Fe  Fe239     1.0  0.91944  0.85285  0.56406  1.0000
  S   S481      1.0  0.92468  0.86930  0.60505  1.0000
  Fe  Fe240     1.0  0.87954  0.83132  0.52093  1.0000
  S   S482      1.0  0.83401  0.83348  0.49933  1.0000
  H   H2100     1.0  0.54672  0.93253  0.56861  1.0000
  S   S483      1.0  0.91948  0.79800  0.50712  1.0000
  C   C1740     1.0  0.89548  0.94957  0.68699  1.0000
  C   C1741     1.0  0.60181  0.93729  0.51725  1.0000
  C   C1742     1.0  0.58138  0.84215  0.53420  1.0000
  S   S484      1.0  0.53758  0.94606  0.67165  1.0000
  H   H2101     1.0  0.51415  0.96812  0.61687  1.0000
  S   S485      1.0  0.57273  0.71342  0.69224  1.0000
  C   C1743     1.0  0.90182  0.73490  0.66534  1.0000
  C   C1744     1.0  0.90572  0.70539  0.65570  1.0000
  C   C1745     1.0  0.91390  0.70481  0.62731  1.0000
  C   C1746     1.0  0.91837  0.73375  0.60863  1.0000
  C   C1747     1.0  0.91504  0.76317  0.61844  1.0000
  C   C1748     1.0  0.90683  0.76375  0.64671  1.0000
  H   H2102     1.0  0.90223  0.68299  0.67011  1.0000
  H   H2103     1.0  0.91662  0.68198  0.61987  1.0000
  H   H2104     1.0  0.91940  0.78564  0.60434  1.0000
  C   C1749     1.0  0.81709  0.79738  0.49238  1.0000
  H   H2105     1.0  0.48561  0.82038  0.65684  1.0000
  C   C1750     1.0  0.56157  0.88977  0.62929  1.0000
  C   C1751     1.0  0.94838  0.90010  0.61452  1.0000
  H   H2106     1.0  0.85446  0.76650  0.50783  1.0000
  H   H2107     1.0  0.90510  0.78658  0.65417  1.0000
  C   C1752     1.0  0.72393  0.96438  0.66573  1.0000
  H   H2108     1.0  0.71176  0.95605  0.65037  1.0000
  C   C1753     1.0  0.83174  0.76760  0.49918  1.0000
  H   H2109     1.0  0.57918  0.81508  0.64299  1.0000
  C   C1754     1.0  0.81723  0.91128  0.57346  1.0000
  C   C1755     1.0  0.79644  0.93780  0.57471  1.0000
  H   H2110     1.0  0.65799  0.94070  0.67183  1.0000
  H   H2111     1.0  0.79254  0.92866  0.70598  1.0000
  C   C1756     1.0  0.86493  0.94806  0.55710  1.0000
  C   C1757     1.0  0.85156  0.91651  0.56512  1.0000
  H   H2112     1.0  0.76994  0.93415  0.58076  1.0000
  H   H2113     1.0  0.96176  0.86840  0.64948  1.0000
  H   H2114     1.0  0.89140  0.95183  0.55032  1.0000
  H   H2115     1.0  0.86781  0.89612  0.56455  1.0000
  C   C1758     1.0  0.62701  0.80637  0.54285  1.0000
  C   C1759     1.0  0.60986  0.83479  0.54639  1.0000
  H   H2116     1.0  0.57723  0.89179  0.64454  1.0000
  C   C1760     1.0  0.57021  0.82139  0.51813  1.0000
  C   C1761     1.0  0.58705  0.79280  0.51487  1.0000
  C   C1762     1.0  0.61525  0.78523  0.52734  1.0000
  Fe  Fe241     1.0  0.95422  0.83854  0.50841  1.0000
  C   C1763     1.0  0.63231  0.90673  0.48469  1.0000
  C   C1764     1.0  0.48910  0.66914  0.51259  1.0000
  H   H2117     1.0  0.62843  0.76330  0.52443  1.0000
  C   C1765     1.0  0.60157  0.74532  0.68925  1.0000
  N   N118      1.0  0.61881  0.93883  0.48848  1.0000
  H   H2118     1.0  0.53016  0.67696  0.53471  1.0000
  C   C1766     1.0  0.64418  0.79957  0.68263  1.0000
  C   C1767     1.0  0.63961  0.78567  0.65979  1.0000
  C   C1768     1.0  0.61871  0.75838  0.66315  1.0000
  C   C1769     1.0  0.60700  0.75845  0.71226  1.0000
  C   C1770     1.0  0.51149  0.81193  0.65748  1.0000
  H   H2119     1.0  0.65139  0.79639  0.63938  1.0000
  C   C1771     1.0  0.49471  0.78230  0.51543  1.0000
  H   H2120     1.0  0.51733  0.83624  0.70159  1.0000
  H   H2121     1.0  0.88971  0.89706  0.69384  1.0000
  C   C1772     1.0  0.52126  0.68002  0.51523  1.0000
  C   C1773     1.0  0.87324  0.65512  0.49154  1.0000
  C   C1774     1.0  0.49678  0.82446  0.54861  1.0000
  C   C1775     1.0  0.84841  0.82836  0.63799  1.0000
  C   C1776     1.0  0.88800  0.91934  0.67991  1.0000
  H   H2122     1.0  0.64715  0.94227  0.61801  1.0000
  C   C1777     1.0  0.86940  0.67560  0.53458  1.0000
  S   S486      1.0  0.76564  0.70215  0.48630  1.0000
  H   H2123     1.0  0.57124  0.93502  0.47498  1.0000
  C   C1778     1.0  0.79738  0.90687  0.69716  1.0000
  H   H2124     1.0  0.49803  0.86670  0.67982  1.0000
  H   H2125     1.0  0.51980  0.79939  0.63959  1.0000
  H   H2126     1.0  0.85509  0.80710  0.62767  1.0000
  H   H2127     1.0  0.82782  0.71615  0.50141  1.0000
  C   C1779     1.0  0.81649  0.73897  0.49560  1.0000
  N   N119      1.0  0.68547  0.93103  0.70582  1.0000
  H   H2128     1.0  0.76834  0.80648  0.66557  1.0000
  H   H2129     1.0  0.56505  0.80443  0.67941  1.0000
  H   H2130     1.0  0.51016  0.79316  0.67617  1.0000
  H   H2131     1.0  0.57858  0.77675  0.50239  1.0000
  H   H2132     1.0  0.81773  0.93044  0.51550  1.0000
  H   H2133     1.0  0.74859  0.77020  0.47013  1.0000
  C   C1780     1.0  0.82871  0.79275  0.68005  1.0000
  H   H2134     1.0  0.58037  0.91996  0.52184  1.0000
  H   H2135     1.0  0.50144  0.75861  0.51098  1.0000
  C   C1781     1.0  0.67226  0.86409  0.49470  1.0000
  H   H2136     1.0  0.59246  0.96134  0.52122  1.0000
  C   C1782     1.0  0.66889  0.92020  0.68434  1.0000
  H   H2137     1.0  0.61890  0.85148  0.55792  1.0000
  H   H2138     1.0  0.48120  0.67515  0.56756  1.0000
  N   N120      1.0  0.81983  0.82109  0.66074  1.0000
  C   C1783     1.0  0.53469  0.69876  0.46606  1.0000
  C   C1784     1.0  0.78746  0.79816  0.48114  1.0000
  H   H2139     1.0  0.79566  0.78991  0.63923  1.0000
  C   C1785     1.0  0.81197  0.85011  0.67375  1.0000
  H   H2140     1.0  0.85138  0.79774  0.68870  1.0000
  C   C1786     1.0  0.80296  0.87910  0.65792  1.0000
  H   H2141     1.0  0.58531  0.84222  0.66622  1.0000
  C   C1787     1.0  0.82701  0.92821  0.47231  1.0000
  H   H2142     1.0  0.68631  0.90716  0.67062  1.0000
  C   C1788     1.0  0.87574  0.94491  0.63563  1.0000
  H   H2143     1.0  0.69235  0.85482  0.50540  1.0000
  H   H2144     1.0  0.50594  0.88799  0.57347  1.0000
  H   H2145     1.0  0.84342  0.84804  0.62144  1.0000
  H   H2146     1.0  0.64814  0.90265  0.69347  1.0000
  S   S487      1.0  0.66803  0.95161  0.55922  1.0000
  C   C1789     1.0  0.54458  0.91339  0.58621  1.0000
  H   H2147     1.0  0.93728  0.93844  0.58328  1.0000
  C   C1790     1.0  0.65907  0.89428  0.49802  1.0000
  C   C1791     1.0  0.79065  0.81158  0.64928  1.0000
  H   H2148     1.0  0.80198  0.88065  0.63624  1.0000
  H   H2149     1.0  0.77581  0.82105  0.47593  1.0000
  C   C1792     1.0  0.96229  0.95691  0.61300  1.0000
  H   H2150     1.0  0.78392  0.83066  0.63304  1.0000
  H   H2151     1.0  0.87450  0.89383  0.64898  1.0000
  H   H2152     1.0  0.53966  0.87252  0.68573  1.0000
  Fe  Fe242     1.0  0.48988  0.95779  0.69638  1.0000
  H   H2153     1.0  0.61871  0.92915  0.53232  1.0000
  H   H2154     1.0  0.56848  0.70154  0.49446  1.0000
  H   H2155     1.0  0.50081  0.84446  0.61253  1.0000
  H   H2156     1.0  0.60914  0.97386  0.64732  1.0000
  H   H2157     1.0  0.83232  0.90265  0.47554  1.0000
  C   C1793     1.0  0.71355  0.95414  0.69450  1.0000
  H   H2158     1.0  0.58223  0.93380  0.60397  1.0000
  C   C1794     1.0  0.59439  0.95021  0.47004  1.0000
  H   H2159     1.0  0.84077  0.72420  0.63773  1.0000
  H   H2160     1.0  0.79001  0.92894  0.65661  1.0000
  H   H2161     1.0  0.61476  0.74822  0.64530  1.0000
  C   C1795     1.0  0.56455  0.91409  0.60623  1.0000
  C   C1796     1.0  0.78635  0.73953  0.48532  1.0000
  H   H2162     1.0  0.86914  0.94296  0.61572  1.0000
  H   H2163     1.0  0.87090  0.83581  0.64563  1.0000
  C   C1797     1.0  0.48081  0.84916  0.52956  1.0000
  C   C1798     1.0  0.87868  0.91718  0.65449  1.0000
  H   H2164     1.0  0.50467  0.83084  0.56670  1.0000
  H   H2165     1.0  0.66286  0.95976  0.49877  1.0000
  H   H2166     1.0  0.95845  0.91600  0.47016  1.0000
  S   S488      1.0  0.96155  0.82084  0.55168  1.0000
  C   C1799     1.0  0.53851  0.86364  0.63282  1.0000
  C   C1800     1.0  0.50316  0.79081  0.54186  1.0000
  C   C1801     1.0  0.64623  0.96337  0.48297  1.0000
  S   S489      1.0  0.89140  0.73599  0.70064  1.0000
  C   C1802     1.0  0.84409  0.97455  0.55846  1.0000
  C   C1803     1.0  0.81150  0.97680  0.49108  1.0000
  H   H2167     1.0  0.51545  0.77348  0.55526  1.0000
  C   C1804     1.0  0.61884  0.88653  0.46869  1.0000
  N   N121      1.0  0.74585  0.73784  0.57267  1.0000
  C   C1805     1.0  0.74958  0.76924  0.55373  1.0000
  C   C1806     1.0  0.75048  0.71147  0.55603  1.0000
  C   C1807     1.0  0.71106  0.73520  0.58754  1.0000
  C   C1808     1.0  0.77124  0.73538  0.59105  1.0000
  C   C1809     1.0  0.80554  0.73941  0.57975  1.0000
  C   C1810     1.0  0.76315  0.72752  0.62024  1.0000
  C   C1811     1.0  0.83011  0.73568  0.59649  1.0000
  C   C1812     1.0  0.78805  0.72341  0.63680  1.0000
  C   C1813     1.0  0.82146  0.72746  0.62493  1.0000
  H   H2168     1.0  0.73006  0.77238  0.54028  1.0000
  H   H2169     1.0  0.74806  0.78987  0.56523  1.0000
  H   H2170     1.0  0.77360  0.77189  0.53953  1.0000
  H   H2171     1.0  0.74731  0.68739  0.56932  1.0000
  H   H2172     1.0  0.77558  0.71240  0.54337  1.0000
  H   H2173     1.0  0.73240  0.71292  0.54132  1.0000
  H   H2174     1.0  0.70542  0.75487  0.59998  1.0000
  H   H2175     1.0  0.69281  0.73732  0.57296  1.0000
  H   H2176     1.0  0.70563  0.71146  0.60108  1.0000
  H   H2177     1.0  0.81374  0.74529  0.55777  1.0000
  H   H2178     1.0  0.73779  0.72424  0.63078  1.0000
  H   H2179     1.0  0.85609  0.73903  0.58726  1.0000
  H   H2180     1.0  0.78145  0.71696  0.65898  1.0000
  H   H2181     1.0  0.71779  0.89037  0.70910  1.0000
  H   H2182     1.0  0.95610  0.93955  0.70135  1.0000
  C   C1814     1.0  0.80991  0.96931  0.56773  1.0000
  H   H2183     1.0  0.80803  0.78510  0.69737  1.0000
  C   C1815     1.0  0.64438  0.97512  0.58051  1.0000
  C   C1816     1.0  0.56741  0.82468  0.66172  1.0000
  H   H2184     1.0  0.66966  0.90757  0.51152  1.0000
  C   C1817     1.0  0.52175  0.88815  0.58896  1.0000
  C   C1818     1.0  0.51892  0.86334  0.61171  1.0000
  N   N122      1.0  0.53471  0.83892  0.65801  1.0000
  C   C1819     1.0  0.94900  0.93226  0.60138  1.0000
  S   S490      1.0  0.95858  0.67069  0.70789  1.0000
  C   C1820     1.0  0.77205  0.76935  0.47771  1.0000
  H   H2185     1.0  0.49217  0.95043  0.51474  1.0000
  C   C1821     1.0  0.62880  0.78518  0.70898  1.0000
  C   C1822     1.0  0.79590  0.90700  0.66947  1.0000
  H   H2186     1.0  0.83468  0.77144  0.66960  1.0000
  C   C1823     1.0  0.89244  0.97749  0.66715  1.0000
  H   H2187     1.0  0.88029  0.68905  0.54793  1.0000
  C   C1824     1.0  0.81303  0.85074  0.70203  1.0000
  C   C1825     1.0  0.96268  0.89293  0.63863  1.0000
  C   C1826     1.0  0.63709  0.96460  0.60895  1.0000
  C   C1827     1.0  0.83768  0.66169  0.54299  1.0000
  H   H2188     1.0  0.66847  0.82135  0.47678  1.0000
  H   H2189     1.0  0.97558  0.82254  0.62698  1.0000
  C   C1828     1.0  0.54358  0.69456  0.49221  1.0000
  C   C1829     1.0  0.81865  0.94392  0.49489  1.0000
  H   H2190     1.0  0.91165  0.68345  0.50226  1.0000
  H   H2191     1.0  0.82404  0.66431  0.56302  1.0000
  C   C1830     1.0  0.49379  0.97459  0.54949  1.0000
  C   C1831     1.0  0.65882  0.84515  0.47856  1.0000
  C   C1832     1.0  0.88259  0.97500  0.64193  1.0000
  C   C1833     1.0  0.48083  0.67417  0.48567  1.0000
  C   C1834     1.0  0.97641  0.94970  0.63721  1.0000
  C   C1835     1.0  0.97729  0.91733  0.64948  1.0000
  H   H2192     1.0  0.58636  0.97523  0.47186  1.0000
  H   H2193     1.0  0.88813  0.65311  0.47193  1.0000
  C   C1836     1.0  0.63208  0.85627  0.46571  1.0000
  C   C1837     1.0  0.48232  0.76776  0.46335  1.0000
  H   H2194     1.0  0.50877  0.76232  0.46483  1.0000
  C   C1838     1.0  0.50321  0.68888  0.46282  1.0000
  Fe  Fe243     1.0  0.55579  0.93680  0.71224  1.0000
  H   H2195     1.0  0.66176  0.96295  0.46249  1.0000
  H   H2196     1.0  0.60952  0.66664  0.79672  1.0000
  S   S491      1.0  0.77084  0.71222  0.80001  1.0000
  Fe  Fe244     1.0  0.79509  0.93159  0.84554  1.0000
  S   S492      1.0  0.84071  0.93103  0.81364  1.0000
  S   S493      1.0  0.79804  0.93059  0.89036  1.0000
  Fe  Fe245     1.0  0.74815  0.93303  0.80429  1.0000
  S   S494      1.0  0.78979  0.93267  0.76933  1.0000
  S   S495      1.0  0.69792  0.93477  0.79136  1.0000
  Fe  Fe246     1.0  0.81118  0.89489  0.79819  1.0000
  S   S496      1.0  0.83523  0.85269  0.78090  1.0000
  Fe  Fe247     1.0  0.69740  0.64770  0.88226  1.0000
  S   S497      1.0  0.77113  0.97233  0.82112  1.0000
  S   S498      1.0  0.76755  0.89227  0.83201  1.0000
  C   C1839     1.0  0.93213  0.68709  0.89312  1.0000
  H   H2197     1.0  0.78875  0.83268  0.87985  1.0000
  H   H2198     1.0  0.75923  0.80625  0.75186  1.0000
  Fe  Fe248     1.0  0.59590  0.88488  0.93049  1.0000
  S   S499      1.0  0.60551  0.92010  0.95759  1.0000
  S   S500      1.0  0.57940  0.90163  0.88984  1.0000
  H   H2199     1.0  0.67748  0.88326  0.72977  1.0000
  S   S501      1.0  0.50735  0.94593  0.73750  1.0000
  S   S502      1.0  0.61348  0.73087  0.86096  1.0000
  S   S503      1.0  0.64000  0.85476  0.93851  1.0000
  C   C1840     1.0  0.51863  0.84122  0.78582  1.0000
  H   H2200     1.0  0.84928  0.79817  0.75481  1.0000
  H   H2201     1.0  0.65717  0.97766  0.93355  1.0000
  C   C1841     1.0  0.75130  0.75562  0.93088  1.0000
  H   H2202     1.0  0.82422  0.74370  0.76238  1.0000
  H   H2203     1.0  0.87139  0.91279  0.73661  1.0000
  C   C1842     1.0  0.81492  0.67639  0.73988  1.0000
  Fe  Fe249     1.0  0.48724  0.66651  0.77334  1.0000
  S   S504      1.0  0.67686  0.68693  0.81135  1.0000
  S   S505      1.0  0.70135  0.70127  0.86831  1.0000
  H   H2204     1.0  0.77007  0.73077  0.89646  1.0000
  S   S506      1.0  0.53220  0.69839  0.77154  1.0000
  H   H2205     1.0  0.54821  0.77927  0.75343  1.0000
  H   H2206     1.0  0.86535  0.66103  0.73166  1.0000
  H   H2207     1.0  0.74652  0.85607  0.77165  1.0000
  C   C1843     1.0  0.65986  0.94619  0.72414  1.0000
  C   C1844     1.0  0.49955  0.88459  0.87107  1.0000
  C   C1845     1.0  0.95455  0.84644  0.94796  1.0000
  C   C1846     1.0  0.55898  0.86073  0.74507  1.0000
  S   S507      1.0  0.49517  0.75308  0.73149  1.0000
  C   C1847     1.0  0.50071  0.67141  0.90876  1.0000
  H   H2208     1.0  0.81977  0.83005  0.71580  1.0000
  N   N123      1.0  0.90521  0.95119  0.71413  1.0000
  C   C1848     1.0  0.53682  0.86686  0.76809  1.0000
  H   H2209     1.0  0.71963  0.94965  0.88060  1.0000
  H   H2210     1.0  0.93521  0.82685  0.95404  1.0000
  H   H2211     1.0  0.48019  0.83934  0.86480  1.0000
  H   H2212     1.0  0.53427  0.89115  0.77262  1.0000
  C   C1849     1.0  0.56301  0.82912  0.74002  1.0000
  H   H2213     1.0  0.54530  0.72277  0.88596  1.0000
  S   S508      1.0  0.93487  0.70131  0.76454  1.0000
  H   H2214     1.0  0.50614  0.77849  0.90097  1.0000
  C   C1850     1.0  0.82371  0.89870  0.90101  1.0000
  C   C1851     1.0  0.81509  0.87882  0.92663  1.0000
  C   C1852     1.0  0.83376  0.85127  0.93358  1.0000
  C   C1853     1.0  0.86147  0.84404  0.91514  1.0000
  C   C1854     1.0  0.87138  0.86529  0.89054  1.0000
  C   C1855     1.0  0.85236  0.89226  0.88334  1.0000
  H   H2215     1.0  0.79323  0.88392  0.94065  1.0000
  S   S509      1.0  0.48717  0.67658  0.72793  1.0000
  H   H2216     1.0  0.89364  0.86066  0.87682  1.0000
  H   H2217     1.0  0.86016  0.90821  0.86417  1.0000
  C   C1856     1.0  0.66542  0.92648  0.81913  1.0000
  C   C1857     1.0  0.63257  0.93012  0.81445  1.0000
  C   C1858     1.0  0.60619  0.92211  0.83625  1.0000
  C   C1859     1.0  0.61267  0.91078  0.86279  1.0000
  C   C1860     1.0  0.64552  0.90725  0.86748  1.0000
  C   C1861     1.0  0.67194  0.91515  0.84564  1.0000
  H   H2218     1.0  0.58079  0.92492  0.83259  1.0000
  H   H2219     1.0  0.65063  0.89866  0.88793  1.0000
  H   H2220     1.0  0.69729  0.91231  0.84932  1.0000
  C   C1862     1.0  0.60815  0.76069  0.94574  1.0000
  C   C1863     1.0  0.83975  0.65353  0.73989  1.0000
  C   C1864     1.0  0.61151  0.74207  0.89366  1.0000
  C   C1865     1.0  0.62434  0.72215  0.91470  1.0000
  H   H2221     1.0  0.75955  0.83780  0.92633  1.0000
  H   H2222     1.0  0.94289  0.93235  0.73797  1.0000
  C   C1866     1.0  0.59537  0.78058  0.92466  1.0000
  C   C1867     1.0  0.59660  0.77105  0.89881  1.0000
  H   H2223     1.0  0.63578  0.69968  0.91085  1.0000
  S   S510      1.0  0.58347  0.89162  0.72307  1.0000
  H   H2224     1.0  0.58446  0.80332  0.92827  1.0000
  H   H2225     1.0  0.58659  0.78651  0.88266  1.0000
  C   C1868     1.0  0.78609  0.75221  0.79558  1.0000
  C   C1869     1.0  0.77265  0.77487  0.81190  1.0000
  C   C1870     1.0  0.78700  0.80626  0.80748  1.0000
  C   C1871     1.0  0.81470  0.81475  0.78680  1.0000
  C   C1872     1.0  0.82771  0.79204  0.77059  1.0000
  C   C1873     1.0  0.81345  0.76110  0.77488  1.0000
  H   H2226     1.0  0.75145  0.76816  0.82791  1.0000
  H   H2227     1.0  0.77687  0.82360  0.82022  1.0000
  N   N124      1.0  0.89256  0.78977  0.83469  1.0000
  C   C1874     1.0  0.86906  0.81466  0.84335  1.0000
  C   C1875     1.0  0.92018  0.78800  0.85091  1.0000
  C   C1876     1.0  0.90713  0.80064  0.80533  1.0000
  C   C1877     1.0  0.87472  0.75823  0.83979  1.0000
  C   C1878     1.0  0.86016  0.74431  0.86698  1.0000
  C   C1879     1.0  0.87014  0.74110  0.81826  1.0000
  H   H2228     1.0  0.51555  0.74515  0.92585  1.0000
  H   H2229     1.0  0.53240  0.75472  0.86213  1.0000
  C   C1880     1.0  0.50006  0.91816  0.86358  1.0000
  H   H2230     1.0  0.86043  0.81055  0.86598  1.0000
  H   H2231     1.0  0.88049  0.83934  0.83767  1.0000
  N   N125      1.0  0.49266  0.73157  0.89327  1.0000
  H   H2232     1.0  0.91146  0.78226  0.87345  1.0000
  H   H2233     1.0  0.93397  0.81149  0.84755  1.0000
  H   H2234     1.0  0.93815  0.76920  0.84517  1.0000
  H   H2235     1.0  0.88758  0.80454  0.79202  1.0000
  H   H2236     1.0  0.92087  0.82415  0.80228  1.0000
  H   H2237     1.0  0.92521  0.78298  0.79748  1.0000
  H   H2238     1.0  0.86227  0.75613  0.88440  1.0000
  H   H2239     1.0  0.88002  0.74975  0.79691  1.0000
  C   C1881     1.0  0.70756  0.95323  0.90154  1.0000
  H   H2240     1.0  0.84752  0.70004  0.80689  1.0000
  H   H2241     1.0  0.59436  0.74803  0.73253  1.0000
  C   C1882     1.0  0.62222  0.73126  0.94083  1.0000
  H   H2242     1.0  0.50161  0.84586  0.80361  1.0000
  C   C1883     1.0  0.80568  0.87877  0.71341  1.0000
  Fe  Fe250     1.0  0.72481  0.68946  0.82755  1.0000
  H   H2243     1.0  0.63270  0.79553  0.72673  1.0000
  H   H2244     1.0  0.84664  0.81486  0.83328  1.0000
  C   C1884     1.0  0.87741  0.93866  0.73629  1.0000
  H   H2245     1.0  0.80685  0.87877  0.73494  1.0000
  H   H2246     1.0  0.71528  0.76479  0.75561  1.0000
  C   C1885     1.0  0.93477  0.93117  0.71785  1.0000
  H   H2247     1.0  0.58010  0.82452  0.72226  1.0000
  H   H2248     1.0  0.72438  0.94297  0.91620  1.0000
  H   H2249     1.0  0.72499  0.69959  0.91941  1.0000
  H   H2250     1.0  0.70760  0.90727  0.74025  1.0000
  Fe  Fe251     1.0  0.65313  0.69433  0.85373  1.0000
  C   C1886     1.0  0.52214  0.80964  0.78028  1.0000
  C   C1887     1.0  0.61677  0.66063  0.75416  1.0000
  H   H2251     1.0  0.91733  0.70859  0.89099  1.0000
  C   C1888     1.0  0.54460  0.80365  0.75745  1.0000
  S   S511      1.0  0.88368  0.80833  0.92169  1.0000
  H   H2252     1.0  0.95357  0.69504  0.85099  1.0000
  H   H2253     1.0  0.68466  0.93783  0.90746  1.0000
  H   H2254     1.0  0.93018  0.90520  0.71767  1.0000
  H   H2255     1.0  0.63612  0.67916  0.74790  1.0000
  H   H2256     1.0  0.82131  0.70154  0.73192  1.0000
  H   H2257     1.0  0.52485  0.67149  0.89608  1.0000
  S   S512      1.0  0.49804  0.77777  0.80139  1.0000
  H   H2258     1.0  0.82262  0.67731  0.85441  1.0000
  H   H2259     1.0  0.69380  0.72646  0.93186  1.0000
  C   C1889     1.0  0.84209  0.71516  0.87223  1.0000
  H   H2260     1.0  0.62749  0.93909  0.79396  1.0000
  Fe  Fe252     1.0  0.52907  0.71144  0.72661  1.0000
  N   N126      1.0  0.63435  0.82702  0.80057  1.0000
  C   C1890     1.0  0.63435  0.83062  0.82970  1.0000
  C   C1891     1.0  0.62271  0.85735  0.78565  1.0000
  C   C1892     1.0  0.60970  0.80114  0.80043  1.0000
  C   C1893     1.0  0.66849  0.82053  0.78748  1.0000
  C   C1894     1.0  0.69466  0.84341  0.78553  1.0000
  C   C1895     1.0  0.67685  0.79192  0.77626  1.0000
  C   C1896     1.0  0.72687  0.83843  0.77254  1.0000
  C   C1897     1.0  0.70926  0.78705  0.76353  1.0000
  C   C1898     1.0  0.73409  0.81038  0.76140  1.0000
  H   H2261     1.0  0.65018  0.85131  0.83166  1.0000
  H   H2262     1.0  0.60895  0.83504  0.84038  1.0000
  H   H2263     1.0  0.64363  0.80842  0.84143  1.0000
  H   H2264     1.0  0.59690  0.86295  0.79458  1.0000
  H   H2265     1.0  0.62298  0.85567  0.76355  1.0000
  H   H2266     1.0  0.63844  0.87858  0.78631  1.0000
  H   H2267     1.0  0.60779  0.79766  0.77908  1.0000
  H   H2268     1.0  0.61613  0.77776  0.81223  1.0000
  H   H2269     1.0  0.58425  0.80688  0.81016  1.0000
  H   H2270     1.0  0.69042  0.86533  0.79421  1.0000
  H   H2271     1.0  0.65893  0.77276  0.77724  1.0000
  H   H2272     1.0  0.72518  0.96046  0.73461  1.0000
  C   C1899     1.0  0.97243  0.65049  0.87259  1.0000
  H   H2273     1.0  0.97800  0.83506  0.93970  1.0000
  H   H2274     1.0  0.53159  0.97186  0.81179  1.0000
  C   C1900     1.0  0.49713  0.75429  0.91233  1.0000
  H   H2275     1.0  0.79345  0.77891  0.86516  1.0000
  Fe  Fe253     1.0  0.81485  0.96882  0.78812  1.0000
  C   C1901     1.0  0.48212  0.93350  0.84306  1.0000
  C   C1902     1.0  0.78090  0.78115  0.88563  1.0000
  C   C1903     1.0  0.83744  0.69940  0.85057  1.0000
  C   C1904     1.0  0.78206  0.66695  0.75056  1.0000
  H   H2276     1.0  0.88340  0.94046  0.75702  1.0000
  C   C1905     1.0  0.76183  0.81423  0.92005  1.0000
  H   H2277     1.0  0.51398  0.87353  0.88647  1.0000
  C   C1906     1.0  0.76752  0.75367  0.90377  1.0000
  H   H2278     1.0  0.94786  0.86372  0.93039  1.0000
  H   H2279     1.0  0.76290  0.68496  0.75110  1.0000
  C   C1907     1.0  0.52470  0.73056  0.87440  1.0000
  H   H2280     1.0  0.83143  0.70493  0.89321  1.0000
  H   H2281     1.0  0.52309  0.71413  0.85922  1.0000
  C   C1908     1.0  0.85160  0.71222  0.82372  1.0000
  C   C1909     1.0  0.77819  0.81137  0.89380  1.0000
  Fe  Fe254     1.0  0.49544  0.73785  0.77662  1.0000
  Fe  Fe255     1.0  0.96248  0.65807  0.75265  1.0000
  C   C1910     1.0  0.76600  0.70364  0.95413  1.0000
  C   C1911     1.0  0.71347  0.70957  0.93791  1.0000
  H   H2282     1.0  0.91320  0.67381  0.93638  1.0000
  Fe  Fe256     1.0  0.93513  0.71596  0.71930  1.0000
  H   H2283     1.0  0.70128  0.68850  0.95255  1.0000
  H   H2284     1.0  0.82629  0.83541  0.95296  1.0000
  C   C1912     1.0  0.48127  0.69967  0.90948  1.0000
  H   H2285     1.0  0.63794  0.92979  0.73243  1.0000
  H   H2286     1.0  0.66928  0.95249  0.74234  1.0000
  H   H2287     1.0  0.85455  0.95272  0.73385  1.0000
  H   H2288     1.0  0.51468  0.93191  0.87412  1.0000
  H   H2289     1.0  0.77760  0.69508  0.93497  1.0000
  C   C1913     1.0  0.69768  0.90182  0.72197  1.0000
  C   C1914     1.0  0.74863  0.78689  0.93844  1.0000
  C   C1915     1.0  0.73161  0.96706  0.71250  1.0000
  N   N127      1.0  0.48248  0.96914  0.83583  1.0000
  C   C1916     1.0  0.48067  0.86534  0.85884  1.0000
  C   C1917     1.0  0.92985  0.66759  0.91879  1.0000
  C   C1918     1.0  0.60175  0.65374  0.78163  1.0000
  N   N128      1.0  0.73830  0.72597  0.94993  1.0000
  C   C1919     1.0  0.95307  0.67885  0.87025  1.0000
  H   H2290     1.0  0.88569  0.97479  0.90091  1.0000
  H   H2291     1.0  0.60330  0.66210  0.95292  1.0000
  H   H2292     1.0  0.61912  0.65025  0.71363  1.0000
  H   H2293     1.0  0.89653  0.86983  0.95332  1.0000
  H   H2294     1.0  0.97622  0.90774  0.94648  1.0000
  H   H2295     1.0  0.63218  0.71590  0.95707  1.0000
  H   H2296     1.0  0.65082  0.96878  0.71293  1.0000
  H   H2297     1.0  0.96907  0.66377  0.81660  1.0000
  H   H2298     1.0  0.64218  0.96462  0.89216  1.0000
  H   H2299     1.0  0.85549  0.97597  0.87879  1.0000
  H   H2300     1.0  0.53090  0.97737  0.84693  1.0000
  H   H2301     1.0  0.73669  0.79097  0.95851  1.0000
  C   C1920     1.0  0.57699  0.65393  0.95956  1.0000
  H   H2302     1.0  0.56206  0.67627  0.95835  1.0000
  H   H2303     1.0  0.48525  0.91942  0.96103  1.0000
  H   H2304     1.0  0.78607  0.71533  0.96195  1.0000
