data_image0
_chemical_formula_structural       SCHCH3CH2CSC2H2FeS2FeSCFeSFeS3FeS2FeS2FeSFeS3CH3SCNC2H2CH2CH3C2H2SHNHC6H4CH2C2H2C6H4CH2CH2CH4C2H2C2HCHSH2CH3CHC6H3C2HNSHCHCH2SC2HCHC2H2CHC2H8CH6CH4CH2C2HC5HC4NCH2C3HC3HC4HSH2CH2CH2C4H3CH2NC2HCFeH2C3HNFeCH2C3HCHC2HCHCFeS2FeS2FeSFeS3FeS2FeSFeSFeS3FeS2FeS2FeSHS2FeS2FeSCFeSFeCS2CNCH2FeH3NHC6H4C2HC6H4C4H3C6H4C3HC10H4C2NH10SCHCH3CH4C2NHSCH4CH2CH4CH2NC10H2C2H8C2H3C2H2C2HC2HCHCH3CH3CH7C2HCHCH3SHSHC6H7NC9H14CSC2H3C2H3FeH2SC2H2CHFeHC2H2CHSH2C2H2FeNC3HCHCNH2SFeC3HCHCHCNH2SH2SCHCHC2H2C2H2C4H5SH2SCHCH2C2HC2H3NC4HCH2NHCHFeS2FeNCS2FeS2FeS2FeSFeHS2FeSCFeS2FeSFeS3FeS2FeS2FeSFeS3C5HCH4CH3C2H3CH3CSC7H4C4H3C6H4C3HNC6H7CHSC3H2NC3H9CH4NH3C2H3SH3CH2C2NH2FeHCFeHCHSHNC4H2C3HCH2C2H2CH2C2H5C2HCNHCFeHCNCHC2HCH4C4H2CHCHSCHCHCH2CH4C2HC2HCHSNCHCH3CHNHC2SC2SH2C2H2CHCHCHSH3C3H2CHFeCHSC5H2FeCH3CH7CH3C2H2CHCHCHC3H2C3HC2HSH3CH2CH2CHC2H5CH3CH2CHCHSHC2H6FeS2FeS2FeSFeS3FeSFeSCFeSFeS3C2HSH6C2HC6H4C6H5SHCHCHSC2HCHC3HNC3H5C4HNCH3CHCH4SC3H5CH4CHC2S2HCHCHCHCH2SHC2HCHCNFeCHC2H2C3NC9H8CH5NC6HCH2CH7CH4CH2C2H2CHCHNC2FeHC2HCHCHC2H2SC2HC2H7CHCHFeS2FeS2Fe2S3FeS2FeS2FeS2FeS2FeS2Fe2S3NH2SH2FeS2FeHSFeH3S2H2SCH2C4H4FeH2NCH3CH2C2HC3HC7H4C3H2CHCH2C4HC6H4C5NH2C4HCH2C2H2CHCHSCHC5HC7H4CH2C2FeCHCFeHCSH2CH2CFeCHC4H4CH2C2H7CH5C2HCSH4SH2C2H2C2SFeCHC2SHCH2SHS2HC2HC2HCHNC9H7C2H5N2H4C2NCH4C2HNC8H14CH5SH2NC4HC2H4CH3C2HSH2NC2H5C2HCH3CHCHCH2CH3C2H2C2H2C3H2C6FeSCFeSCFeSFeS3H3C2H4CH2CFeS2FeS2FeSFeHS2FeH2S2CFeCSH2SCSHSC2H3NCH3SC2H2CH2C2SH5NHFeSHSCHC5H4FeCH2C5HFeC8H6CH2CH2CSC2NHC3HC2HCHCH2CFeH4CH2SHCH2CH3NC9H14S2HCSH4NCH5C2HFeH4CH3FeCHC6HCFeHC2H6C3H2NCNHCHC2H3C2HC2H2C2HCH2CHC2H3C3S2HNH2SCS2CHCH3FeSHCNCFeS2FeS2FeSFeS3C2H2C3H4C3HSH5CHCH2C7H3FeCSC6H5CSHNC5H2C6H3CFeSC4SHCSH3CHCH5SCH2CHC5HC2SH2C3NCNH2CNCH3C2FeC2HSCHCHCH3CH4C3H4C2H2CHC2HCH4CH3C2H2CH7CH2C2H4C2FeH2CHC11HCH3SCH2CHSCH3CSH2CFeC2H2C3FeC2SFeHCH2SC2H3C3N2CH3SC2H4C2HCHCH2C3H3N2HC2FeCH3SHCHC2HC2H3C3HSCH2CH7C2HCH3SCFe2SHSHCFeSFeSFeHSFeS4FeS2FeS2FeSFeCS2HC6H4C6H4CH2S2C2H4FeC9H4C2SC6H6CSH4FeHC2HSC3H2CH2C2SNCH2SH6SH3CNHCHNC9H14C3H2C2H7SCHC2SHC2HC6H3SCFeNHFeHFe2CH7CNH3CFeH3NCHC2H3CSCHCH2FeCH4SHC2H5CHCS2NCHC2HC2H6FeSH4CH3CH2C2H2CHCHC3HCNCH2FeS2FeS2FeSFeS3FeSFeS2FeS3CFeS2FeS2FeSFeS3FeS2FeSFeSNSHFeC2FeCSH4S2CHCHCH4C3HC6H9CSH3C6H4CH2CHCHC6H4C6H4C6H5C2FeCHCH6SH4CH5CSCHCH3CH2CHC4SCHNFeHNH4CHCH3C2FeHSH2CHC2NC8H8CHC2H2NC2HC2HC2H3NHC2H2C2H5C2H7CH5CH2NFeCHC6H2CH2SC2H2C2SH3CHCHC2HCH5C2HCH2C2HCHCH6CFeSCHCHCH3CFeS2H3C2HC2SCSCFeS2FeS2FeSFeS3FeSCHFeSHSCHC2H2CNC8H6CH3CHSC7H5CSH2CHC3HCH7C3H2CH2SHC3HFeCHSCHC6H7CHCH5C2H2C2H2CNCH2SCH3C4H3CHCHCHC2HC2HC2H4CHSCHSH8CH7CNC2NSCSNC3SC2H2FeH2C4HNCH4C2H2C2HCH2NC2HCHC3H3C2H2CSFeHCHCH4CH2SHCHSCHCHSCH3CFeS3FeHFeS2FeS2FeSFe2SFeS3HC2HCH2C2H3CHSC8H4CSHC2H10C2HCH2NHC6H4CHC3H2FeH2C3HFeHC2H2C3SCH2SH2CH2FeS2CH2C4H4CH3SCH3CN2H2C3HFeSNHC2HCH3CHC4H9FeHCH4CHC2FeCH5FeS2FeS2FeSFeS3FeS2FeS2FeSFeHS2FeCSFeS2CFeS3HSHC3FeHFeSHC2H5CHNHCH3CHCHFeHNC2HC6H4C6H4NC5H2C7H4C6H6SC2H2C4SCH3C6H5C3H3C2H4CH2C2NCH2CH4CH5CHNCNC6S2CH3CH8NC2HC6HCHC2HSCH4C2H3SC2H4CHCH3CHC4HC2H2CH2C2HSH2C3H2CSHC2H5FeH7C7HCH2SCHC3HCHCH2CH3FeNC2HCH4C2FeH8NH2SCSHCHCH3SCH3SFeSHFeSFeSHSC3FeS2FeSHSFeSHFeS2FeSFeS3CHSFeS2CH4CH5C6H4CH3SC7H4CFeC2H5C7H3CHC3SC2H4CH2SH2FeHCHCHSHC6H6C2HC4H2S2CHC2NC4H4CFeHCSHC2H3NHCS2FeH2FeH3CHNC9H13NH2C3HC2HC5SHCHCH3SCH2FeCHC2HSCHC2NCHCHCH3C2HCHCFeCH4FeHSHCH3NCH2C2H3C3HNH6SHCHNCH3C2H3C2SHCH2FeH7CHS2CHC3H2FeS2FeSHFeSFeS3FeS2FeSCFeSFeHS2CHC8H4C6H4CH3C3H6C4HC8HCHC2H4CH2CHCNH2FeCHCH2NC9H14SCH3SC2H3SH8C3HCHCH2C2HC3HCH4CHCH3CHCHC2SHC2SNCH2C2HCSCNCHCHC2H3C3H4SHC2HSH2C2HCHC3HFeSCFeS2FeSFeS3FeS2FeS2FeSFeS2C3H5CHNHCH4C7H5C5H5CHCHC4HCHCH2C2HCHC2HCH3C5H3CH2C3SHCHC2HC3NC9H13CH2CHC6H2CH5CNHNCHC2H2C2SHCH3CH5CH2CHCH2C3HC4H2CH2CHNC9HCH4CH9CNCH4CHCH3SCFeHC2H2CH2C2NH2CH2SC3H6FeS2FeSCSCHFeS2FeS2FeSFeS3FeS2FeS2FeSFeS3C2HFeSHFeSCFeSFeS3C3H6C7H4C4H2C6H3C6H4CHC4H4C2HC3HC6H4C5H2FeC10H4CHC2FeH5NC9H14NHC8HCH15NC9H13SH2C4HFeHCH7C3H3CH2C2HC2H2N2CH3C2SC2HFeH7CHSC4HNH2CH3C3H2CH3SCHSC2SHSC2H2NHCHCH3SNFeC2SCH3NH2SH3CNH2CSHC2H4CHCHCH2CNCFeS2FeS2FeSFeS3H2CH3C2HFeS2FeS2FeSFeS3CH2C3SCH2CH2C6HFeH3C2H5NCHC3HC8H4C3HC2H2CHNH3CHC3H3CH5SHCH2C2H3C4H2CHC2HCH3CFeH3C2HSHCHCHNHCH2CH2SC2H2CH2SC2H3CS2C2SHCH3C3HCNCHC2HCFeCH2CH2C2H3CH2C2SNC2HC3H2CH6FeCH3C3NC9HCH2C3H4C2HCH2CSHCH3C3H4CH5C2H2C2HSHCHSC2H6CNCHC3H3CHCSHCHCHC3S2HFeSCFeSFeHSHFeSCFeSCFeSFeS3H3FeSFeSCFeS2FeS2FeHFeHS4FeSFeSH2C6H2C6H4C6H4FeCHSHC2H2CH2CH3C2HSH2C6H4CHSC3HC6H2CH3CH2CH6C2H4C2SH2CHCSHC2HSCHC2HCH2CH2C6NC2H2C4HCH6CH3CHCH2CHC3HCH2CH2SH2CH4C2H3CH2FeSH2C2HC2N3H3NCHC2H2CNC9H14FeSH2CH2S2HC2H2NC3HCH2CSHCH2FeHCNFeCHCH3C2H2C2H2CH2CH2C2HSH6C4H4C2FeS2CSHFeCFeSCSFeHSHFeC3HC2HC2FeCFeS4Fe2S2FeS2FeS2HFeS6CFeS2FeS2FeSFeS2CFeC2H3CHCH2C6H4C6H3C3HFeH3C6H5NH8C2HC3HCHSH4CNFeNCH3C6H4C6H2CHCHCH3CNC9SH2CH7NH2CH3C2H3SHCH4CHCH3SCNC9H18SHC2H4SHC2HSH2SH2CH2C3HC2H5SHCFeH4NHCSCHC6HCSH5CHCH4CNC5H2C2HC2HFeCHCH2C2H2CFeCHCHCHCH3CNC2H2CH2C2SH7CHCHCH2C2H2C2HFeS2FeS2FeSFeCS2C2HSFeCSH3CH2FeSH3CH2FeSHFeS2FeSFeS2HC2SHC3SC4H2C8H4CHCSCSC6H5C6H4C6HCH2CHCSCH5NHSHCH2CHCH3CH3FeH3FeHCHSCHCH2S2H6C2H2CH2CH2NC4HCH2FeSH5CH3CH2NHFeCSH2FeCH4SH3C2H2CFeCH2NH3C3H2CH3C2H4CHCSH3C8NC3HSCNC9H4C3H2NSCH4CH2CHSHCHCSHCHCH3C2H2C2SCH3CHCHCHSCH2C2FeHSH2SHC2FeSHFeS2FeSFeHSFe2S2FeSHFeSFeS3FeS2FeSFeSHCFeNH4C7H3C6H4SC6H4CHCHCH2SCH5NCH6CHC2H2CHC7H4S2NH2CH2C4HCH2SHFeC2H6SFeHCH2C2HSHC2H3SC3NHNC4NH2CSH6C4NC9H14C2HCH7C2HSCSHCHCHSH4SC2H2C2HCH3CH3CHC2H4C3HCSCHCNFeH2C2H2CHCHFeS2FeS2FeSFeS3FeSHFeS2FeS2FeSFeS3FeS2NFeHFeS3H2SFeCSCHCH5NC3H2C2HFeCHCH3C9H6CHC2H3C6H4C6H4C6H4C6H4C2SC2H5C3H2CH5NCHC2HCSH5CHCHSHC3H2SC2HCH8NH3C2HCH2NH3CH2C2NC6HCH9CHC4HCHCHCHSC3H6CHCHCHC2H4CFeSHCHCSHCHCFeH3C3H4CH2C2FeSHC2NC2HC3H2C2H3CH3CNCHSHSC4HCH3CH2NH2CHC2SCNC3H4C2H3C2HSH4SH5SHCHC2HC2FeH5SHCH3C2HSFeS2FeS2FeS2FeH2CS3FeS2FeS2FeSFeS3FeS2FeSHFe2S3H2C2H2C2H2CHC3HC4HCHC6H4C4H2C6H2CHC6NH6CHCHC6H2FeH2CH2CH2NC9H12C2H2NCH2CHCH3FeHC3H2CH2FeS2CH3CSH4CSHFeCHCFeCHSCH3C2H2CHNC9H8SH2NC9H13CH7CHC2HCHSH2C2HSH2CSC2H3N2C2H2CHSH2CHC2HFeH4C3SCSC2NC2H6CHCH3CFeSNHC2H2CSHNCH2SH3CHC2SHCH4FeSHFeS2FeSFeS3FeS2FeS2FeSFeS3FeSHFeSHFeSFeCS2C2HCH2CH5CHSCH4CFeH2C6H4C6H4C4H2CSH3CH6CH2CHCH2C6H4CH3CHSCHC4SC2HNH2C4HNFeCHC2HCHCH2CHCNC9H14NC2HC3H2CHC2H3SCH6CHC2H2CH10SCH3NHNC4HC3H2CHC3H2CSHNC3H6CNHCH2SC3SC5H4C5H4C2HCH2C2H2C3H2CH6FeCH4
_chemical_formula_sum              "S768 C2880 H3456 Fe384 N192"
_cell_length_a       69.5615
_cell_length_b       69.5458
_cell_length_c       75.4271
_cell_angle_alpha    73.9828
_cell_angle_beta     73.9985
_cell_angle_gamma    74.4179

_space_group_name_H-M_alt    "P 1"
_space_group_IT_number       1

loop_
  _space_group_symop_operation_xyz
  'x, y, z'

loop_
  _atom_site_type_symbol
  _atom_site_label
  _atom_site_symmetry_multiplicity
  _atom_site_fract_x
  _atom_site_fract_y
  _atom_site_fract_z
  _atom_site_occupancy
  S   S1        1.0  0.06347  0.01473  0.11274  1.0000
  C   C1        1.0  0.05112  0.16315  0.13684  1.0000
  H   H1        1.0  0.14448  0.31566  0.01530  1.0000
  C   C2        1.0  0.44922  0.00652  0.13814  1.0000
  H   H2        1.0  0.21927  0.19825  0.11598  1.0000
  H   H3        1.0  0.10222  0.99837  0.12370  1.0000
  H   H4        1.0  0.43947  0.00780  0.22790  1.0000
  C   C3        1.0  0.02518  0.07750  0.16287  1.0000
  H   H5        1.0  0.38348  0.08568  0.19142  1.0000
  H   H6        1.0  0.01515  0.99489  0.13034  1.0000
  C   C4        1.0  0.39565  0.09200  0.18105  1.0000
  S   S2        1.0  0.28953  0.28853  0.04624  1.0000
  C   C5        1.0  0.44103  0.04698  0.17897  1.0000
  C   C6        1.0  0.28095  0.26672  0.98890  1.0000
  H   H7        1.0  0.44577  0.04778  0.16354  1.0000
  H   H8        1.0  0.21902  0.17188  0.11937  1.0000
  Fe  Fe1       1.0  0.15028  0.26238  0.05422  1.0000
  S   S3        1.0  0.16140  0.23946  0.07845  1.0000
  S   S4        1.0  0.12253  0.28746  0.05588  1.0000
  Fe  Fe2       1.0  0.18515  0.24636  0.02469  1.0000
  S   S5        1.0  0.20005  0.22189  0.04620  1.0000
  C   C7        1.0  0.42545  0.11008  0.15346  1.0000
  Fe  Fe3       1.0  0.16814  0.21682  0.06017  1.0000
  S   S6        1.0  0.16395  0.18398  0.07016  1.0000
  Fe  Fe4       1.0  0.19228  0.24622  0.06288  1.0000
  S   S7        1.0  0.21189  0.24855  0.08130  1.0000
  S   S8        1.0  0.15398  0.23940  0.03719  1.0000
  S   S9        1.0  0.18040  0.27122  0.04013  1.0000
  Fe  Fe5       1.0  0.09544  0.12380  0.15802  1.0000
  S   S10       1.0  0.11651  0.09493  0.16942  1.0000
  S   S11       1.0  0.10110  0.15601  0.14623  1.0000
  Fe  Fe6       1.0  0.05819  0.10425  0.17172  1.0000
  S   S12       1.0  0.07573  0.07395  0.18401  1.0000
  S   S13       1.0  0.02395  0.11109  0.17619  1.0000
  Fe  Fe7       1.0  0.09086  0.09149  0.19496  1.0000
  S   S14       1.0  0.09348  0.07751  0.22506  1.0000
  Fe  Fe8       1.0  0.09985  0.07938  0.15765  1.0000
  S   S15       1.0  0.11652  0.05228  0.14488  1.0000
  S   S16       1.0  0.07120  0.12159  0.18490  1.0000
  S   S17       1.0  0.08094  0.10840  0.14405  1.0000
  C   C8        1.0  0.10365  0.09032  0.23618  1.0000
  H   H9        1.0  0.47605  0.06862  0.23080  1.0000
  H   H10       1.0  0.20059  0.17996  0.09388  1.0000
  H   H11       1.0  0.03913  0.00600  0.20207  1.0000
  S   S18       1.0  0.46217  0.06252  0.12516  1.0000
  C   C9        1.0  0.01304  0.09402  0.17070  1.0000
  N   N1        1.0  0.41933  0.05735  0.18449  1.0000
  C   C10       1.0  0.45750  0.09637  0.19203  1.0000
  C   C11       1.0  0.05287  0.99769  0.19345  1.0000
  H   H12       1.0  0.13322  0.16898  0.16309  1.0000
  H   H13       1.0  0.01779  0.01957  0.13062  1.0000
  C   C12       1.0  0.14451  0.28764  0.99764  1.0000
  H   H14       1.0  0.29989  0.26437  0.00811  1.0000
  H   H15       1.0  0.07740  0.03626  0.16996  1.0000
  C   C13       1.0  0.02011  0.06398  0.22563  1.0000
  H   H16       1.0  0.25183  0.23098  0.03056  1.0000
  H   H17       1.0  0.03024  0.02684  0.09465  1.0000
  H   H18       1.0  0.09858  0.02900  0.18893  1.0000
  C   C14       1.0  0.44736  0.02775  0.13404  1.0000
  C   C15       1.0  0.46485  0.03611  0.12830  1.0000
  H   H19       1.0  0.45424  0.03587  0.22916  1.0000
  H   H20       1.0  0.44191  0.13447  0.22456  1.0000
  S   S19       1.0  0.19697  0.25383  0.99306  1.0000
  H   H21       1.0  0.43238  0.03769  0.13566  1.0000
  N   N2        1.0  0.05472  0.16167  0.11684  1.0000
  H   H22       1.0  0.10154  0.00310  0.17232  1.0000
  C   C16       1.0  0.11853  0.16338  0.12493  1.0000
  C   C17       1.0  0.13079  0.14927  0.11419  1.0000
  C   C18       1.0  0.14462  0.15580  0.09739  1.0000
  C   C19       1.0  0.14621  0.17642  0.09119  1.0000
  C   C20       1.0  0.13384  0.19052  0.10189  1.0000
  C   C21       1.0  0.12005  0.18401  0.11869  1.0000
  H   H23       1.0  0.12977  0.13334  0.11890  1.0000
  H   H24       1.0  0.15416  0.14482  0.08916  1.0000
  H   H25       1.0  0.13482  0.20646  0.09720  1.0000
  H   H26       1.0  0.11057  0.19500  0.12692  1.0000
  C   C22       1.0  0.04178  0.17974  0.10692  1.0000
  H   H27       1.0  0.17669  0.19767  0.09517  1.0000
  H   H28       1.0  0.00393  0.04978  0.11077  1.0000
  C   C23       1.0  0.04925  0.14284  0.11587  1.0000
  C   C24       1.0  0.48239  0.02708  0.20975  1.0000
  H   H29       1.0  0.17464  0.31054  0.08437  1.0000
  H   H30       1.0  0.02525  0.18076  0.11360  1.0000
  C   C25       1.0  0.26617  0.28044  0.05623  1.0000
  C   C26       1.0  0.25387  0.27985  0.04452  1.0000
  C   C27       1.0  0.23681  0.27059  0.05206  1.0000
  C   C28       1.0  0.23209  0.26175  0.07137  1.0000
  C   C29       1.0  0.24383  0.26321  0.08319  1.0000
  C   C30       1.0  0.26079  0.27255  0.07567  1.0000
  H   H31       1.0  0.25786  0.28612  0.02949  1.0000
  H   H32       1.0  0.22767  0.26981  0.04287  1.0000
  H   H33       1.0  0.24016  0.25658  0.09817  1.0000
  H   H34       1.0  0.27025  0.27284  0.08479  1.0000
  C   C31       1.0  0.19188  0.19416  0.09874  1.0000
  H   H35       1.0  0.19813  0.15186  0.11726  1.0000
  H   H36       1.0  0.01859  0.14851  0.13379  1.0000
  C   C32       1.0  0.15881  0.18068  0.14357  1.0000
  H   H37       1.0  0.20893  0.18416  0.13904  1.0000
  H   H38       1.0  0.05175  0.03835  0.18370  1.0000
  C   C33       1.0  0.46857  0.99366  0.13566  1.0000
  H   H39       1.0  0.37546  0.00619  0.13392  1.0000
  H   H40       1.0  0.05940  0.14919  0.14519  1.0000
  H   H41       1.0  0.39005  0.05300  0.18347  1.0000
  H   H42       1.0  0.15830  0.28412  0.00367  1.0000
  C   C34       1.0  0.05722  0.11073  0.10502  1.0000
  C   C35       1.0  0.13174  0.29736  0.08510  1.0000
  H   H43       1.0  0.19922  0.29472  0.07797  1.0000
  H   H44       1.0  0.17388  0.22188  0.00435  1.0000
  C   C36       1.0  0.21006  0.18635  0.12362  1.0000
  C   C37       1.0  0.38254  0.00402  0.21794  1.0000
  H   H45       1.0  0.13640  0.28111  0.09047  1.0000
  C   C38       1.0  0.40613  0.12187  0.15894  1.0000
  H   H46       1.0  0.39773  0.05996  0.21120  1.0000
  S   S20       1.0  0.38216  0.00321  0.19498  1.0000
  H   H47       1.0  0.02080  0.08011  0.21811  1.0000
  H   H48       1.0  0.22097  0.32162  0.00575  1.0000
  C   C39       1.0  0.06268  0.12866  0.10514  1.0000
  H   H49       1.0  0.04564  0.19426  0.10702  1.0000
  H   H50       1.0  0.01538  0.02211  0.08082  1.0000
  H   H51       1.0  0.10748  0.11598  0.21270  1.0000
  C   C40       1.0  0.03817  0.10666  0.11508  1.0000
  H   H52       1.0  0.20005  0.20655  0.09002  1.0000
  C   C41       1.0  0.07848  0.02552  0.12102  1.0000
  C   C42       1.0  0.07186  0.04579  0.12326  1.0000
  C   C43       1.0  0.08352  0.05429  0.13043  1.0000
  C   C44       1.0  0.10208  0.04267  0.13488  1.0000
  C   C45       1.0  0.10884  0.02258  0.13226  1.0000
  C   C46       1.0  0.09693  0.01392  0.12561  1.0000
  H   H53       1.0  0.05755  0.05477  0.11978  1.0000
  H   H54       1.0  0.07817  0.06977  0.13251  1.0000
  H   H55       1.0  0.12320  0.01358  0.13564  1.0000
  C   C47       1.0  0.41400  0.05366  0.20545  1.0000
  C   C48       1.0  0.07647  0.16265  0.10799  1.0000
  H   H56       1.0  0.19384  0.30737  0.09717  1.0000
  N   N3        1.0  0.13710  0.31006  0.99152  1.0000
  S   S21       1.0  0.28922  0.32299  0.08251  1.0000
  H   H57       1.0  0.03411  0.09260  0.11524  1.0000
  C   C49       1.0  0.09054  0.02238  0.20283  1.0000
  H   H58       1.0  0.37134  0.03662  0.21400  1.0000
  C   C50       1.0  0.39127  0.11286  0.17275  1.0000
  H   H59       1.0  0.02840  0.00141  0.09638  1.0000
  H   H60       1.0  0.22998  0.31014  0.06648  1.0000
  S   S22       1.0  0.40379  0.09791  0.23015  1.0000
  C   C51       1.0  0.47300  0.12800  0.21091  1.0000
  C   C52       1.0  0.12434  0.30442  0.06844  1.0000
  H   H61       1.0  0.40268  0.13801  0.15244  1.0000
  C   C53       1.0  0.09498  0.02616  0.21838  1.0000
  H   H62       1.0  0.48905  0.03905  0.21073  1.0000
  C   C54       1.0  0.28737  0.25929  0.00601  1.0000
  C   C55       1.0  0.43002  0.09346  0.21995  1.0000
  H   H63       1.0  0.11900  0.31202  0.01949  1.0000
  H   H64       1.0  0.02451  0.05504  0.21443  1.0000
  C   C56       1.0  0.07594  0.01051  0.20516  1.0000
  H   H65       1.0  0.43701  0.11703  0.14261  1.0000
  C   C57       1.0  0.47170  0.08451  0.20283  1.0000
  C   C58       1.0  0.48608  0.00204  0.12919  1.0000
  H   H66       1.0  0.18910  0.22452  0.11460  1.0000
  H   H67       1.0  0.07774  0.13070  0.09717  1.0000
  H   H68       1.0  0.15213  0.19569  0.14647  1.0000
  H   H69       1.0  0.03065  0.11770  0.20969  1.0000
  H   H70       1.0  0.03473  0.16524  0.14409  1.0000
  H   H71       1.0  0.05664  0.17626  0.13807  1.0000
  H   H72       1.0  0.04167  0.07494  0.16022  1.0000
  H   H73       1.0  0.02532  0.05217  0.15146  1.0000
  C   C59       1.0  0.02977  0.13842  0.12553  1.0000
  H   H74       1.0  0.08050  0.17636  0.10981  1.0000
  H   H75       1.0  0.08005  0.16359  0.09250  1.0000
  H   H76       1.0  0.04382  0.17910  0.09190  1.0000
  H   H77       1.0  0.16450  0.21858  0.11973  1.0000
  H   H78       1.0  0.14579  0.13412  0.15742  1.0000
  H   H79       1.0  0.08699  0.14914  0.11461  1.0000
  C   C60       1.0  0.46572  0.99545  0.20821  1.0000
  H   H80       1.0  0.40969  0.05056  0.16258  1.0000
  H   H81       1.0  0.17818  0.12578  0.13446  1.0000
  H   H82       1.0  0.17840  0.21301  0.13830  1.0000
  H   H83       1.0  0.44361  0.03039  0.18560  1.0000
  C   C61       1.0  0.15482  0.14567  0.15020  1.0000
  H   H84       1.0  0.42336  0.06067  0.21067  1.0000
  H   H85       1.0  0.08462  0.99277  0.16524  1.0000
  C   C62       1.0  0.19129  0.30915  0.08282  1.0000
  C   C63       1.0  0.46509  0.07753  0.22230  1.0000
  H   H86       1.0  0.33598  0.99342  0.19408  1.0000
  C   C64       1.0  0.48424  0.02326  0.12592  1.0000
  C   C65       1.0  0.18426  0.15615  0.12737  1.0000
  C   C66       1.0  0.01592  0.06470  0.15786  1.0000
  C   C67       1.0  0.17422  0.22885  0.98960  1.0000
  C   C68       1.0  0.21191  0.32388  0.03494  1.0000
  H   H87       1.0  0.43564  0.00016  0.14303  1.0000
  C   C69       1.0  0.13246  0.31138  0.09514  1.0000
  C   C70       1.0  0.00713  0.01119  0.12876  1.0000
  C   C71       1.0  0.46278  0.02535  0.22010  1.0000
  C   C72       1.0  0.17745  0.17650  0.13015  1.0000
  N   N4        1.0  0.18947  0.19229  0.11925  1.0000
  C   C73       1.0  0.40668  0.04747  0.17828  1.0000
  H   H88       1.0  0.45148  0.05376  0.18313  1.0000
  H   H89       1.0  0.04840  0.99688  0.18065  1.0000
  C   C74       1.0  0.17987  0.21293  0.12326  1.0000
  C   C75       1.0  0.45443  0.00963  0.21925  1.0000
  C   C76       1.0  0.43007  0.08928  0.16186  1.0000
  H   H90       1.0  0.00959  0.11735  0.13296  1.0000
  C   C77       1.0  0.20822  0.32483  0.01735  1.0000
  C   C78       1.0  0.14777  0.16540  0.15340  1.0000
  C   C79       1.0  0.02439  0.12061  0.12509  1.0000
  H   H91       1.0  0.23986  0.24392  0.00116  1.0000
  C   C80       1.0  0.17302  0.14105  0.13721  1.0000
  C   C81       1.0  0.49311  0.11934  0.21255  1.0000
  C   C82       1.0  0.45715  0.12810  0.22702  1.0000
  C   C83       1.0  0.27727  0.24597  0.02075  1.0000
  H   H92       1.0  0.37624  0.12206  0.17704  1.0000
  S   S23       1.0  0.48572  0.09830  0.14047  1.0000
  H   H93       1.0  0.46253  0.10230  0.17712  1.0000
  H   H94       1.0  0.29923  0.31428  0.98892  1.0000
  C   C84       1.0  0.00370  0.12926  0.22886  1.0000
  H   H95       1.0  0.28204  0.24069  0.03413  1.0000
  H   H96       1.0  0.42581  0.11053  0.19235  1.0000
  C   C85       1.0  0.02434  0.12044  0.22381  1.0000
  H   H97       1.0  0.11849  0.13492  0.23049  1.0000
  H   H98       1.0  0.06796  0.09974  0.09733  1.0000
  C   C86       1.0  0.41528  0.07956  0.17600  1.0000
  C   C87       1.0  0.49387  0.01291  0.19880  1.0000
  C   C88       1.0  0.43674  0.10114  0.20066  1.0000
  C   C89       1.0  0.01949  0.01741  0.09488  1.0000
  H   H99       1.0  0.13779  0.30594  0.10819  1.0000
  H   H100      1.0  0.41654  0.03704  0.21207  1.0000
  H   H101      1.0  0.40992  0.03056  0.18355  1.0000
  C   C90       1.0  0.08822  0.99551  0.17774  1.0000
  H   H102      1.0  0.44537  0.08117  0.15697  1.0000
  H   H103      1.0  0.13283  0.28042  0.00900  1.0000
  N   N5        1.0  0.00102  0.01975  0.11032  1.0000
  C   C91       1.0  0.26026  0.24053  0.01871  1.0000
  C   C92       1.0  0.44424  0.08180  0.23079  1.0000
  H   H104      1.0  0.22771  0.31989  0.03604  1.0000
  C   C93       1.0  0.36709  0.99393  0.13890  1.0000
  Fe  Fe9       1.0  0.29234  0.31657  0.05414  1.0000
  H   H105      1.0  0.46959  0.13398  0.19697  1.0000
  H   H106      1.0  0.10704  0.30471  0.99441  1.0000
  C   C94       1.0  0.10877  0.10933  0.22720  1.0000
  C   C95       1.0  0.13126  0.31881  0.00859  1.0000
  C   C96       1.0  0.48594  0.99656  0.19774  1.0000
  H   H107      1.0  0.05284  0.10849  0.23213  1.0000
  N   N6        1.0  0.07039  0.00794  0.18847  1.0000
  Fe  Fe10      1.0  0.48913  0.06948  0.13103  1.0000
  C   C97       1.0  0.06455  0.02817  0.17597  1.0000
  H   H108      1.0  0.10565  0.03591  0.21623  1.0000
  H   H109      1.0  0.36068  0.99664  0.16726  1.0000
  C   C98       1.0  0.37669  0.02271  0.22359  1.0000
  C   C99       1.0  0.25363  0.24794  0.00171  1.0000
  C   C100      1.0  0.06748  0.00114  0.22401  1.0000
  H   H110      1.0  0.05974  0.02672  0.16355  1.0000
  C   C101      1.0  0.11833  0.32537  0.06155  1.0000
  H   H111      1.0  0.22227  0.32510  0.08384  1.0000
  C   C102      1.0  0.22042  0.32488  0.06968  1.0000
  C   C103      1.0  0.08561  0.01766  0.23667  1.0000
  H   H112      1.0  0.03195  0.05889  0.23428  1.0000
  C   C104      1.0  0.03687  0.11521  0.23680  1.0000
  H   H113      1.0  0.37051  0.31016  0.40813  1.0000
  C   C105      1.0  0.33089  0.30225  0.44925  1.0000
  Fe  Fe11      1.0  0.36069  0.11209  0.43797  1.0000
  S   S24       1.0  0.36924  0.11372  0.40675  1.0000
  S   S25       1.0  0.38343  0.11800  0.45095  1.0000
  Fe  Fe12      1.0  0.31758  0.10773  0.44148  1.0000
  S   S26       1.0  0.32231  0.10919  0.41073  1.0000
  S   S27       1.0  0.28598  0.10777  0.45942  1.0000
  Fe  Fe13      1.0  0.35244  0.08838  0.41369  1.0000
  S   S28       1.0  0.36365  0.06275  0.39830  1.0000
  Fe  Fe14      1.0  0.33856  0.13428  0.40634  1.0000
  S   S29       1.0  0.33329  0.16245  0.38361  1.0000
  S   S30       1.0  0.34652  0.08458  0.44521  1.0000
  S   S31       1.0  0.33114  0.13492  0.43705  1.0000
  Fe  Fe15      1.0  0.18592  0.19133  0.37566  1.0000
  S   S32       1.0  0.18476  0.17294  0.40524  1.0000
  S   S33       1.0  0.16006  0.19384  0.36164  1.0000
  Fe  Fe16      1.0  0.22719  0.20134  0.37296  1.0000
  S   S34       1.0  0.22927  0.18311  0.40215  1.0000
  Fe  Fe17      1.0  0.21773  0.16002  0.39454  1.0000
  S   S35       1.0  0.23147  0.12643  0.40006  1.0000
  Fe  Fe18      1.0  0.19621  0.19776  0.41030  1.0000
  S   S36       1.0  0.18330  0.21105  0.43639  1.0000
  S   S37       1.0  0.21837  0.17678  0.36451  1.0000
  S   S38       1.0  0.19465  0.21778  0.38141  1.0000
  Fe  Fe19      1.0  0.11469  0.11072  0.33998  1.0000
  S   S39       1.0  0.09829  0.13598  0.32004  1.0000
  S   S40       1.0  0.13792  0.11319  0.35514  1.0000
  Fe  Fe20      1.0  0.09848  0.07783  0.33162  1.0000
  S   S41       1.0  0.08149  0.10043  0.31075  1.0000
  S   S42       1.0  0.09716  0.04429  0.33977  1.0000
  Fe  Fe21      1.0  0.10923  0.11422  0.30051  1.0000
  S   S43       1.0  0.12153  0.12587  0.26954  1.0000
  H   H114      1.0  0.38604  0.23013  0.45139  1.0000
  S   S44       1.0  0.12738  0.08983  0.31946  1.0000
  S   S45       1.0  0.08710  0.09649  0.35392  1.0000
  Fe  Fe22      1.0  0.36928  0.07268  0.29789  1.0000
  S   S46       1.0  0.39675  0.08652  0.28450  1.0000
  S   S47       1.0  0.34441  0.09069  0.31679  1.0000
  Fe  Fe23      1.0  0.38785  0.03608  0.28014  1.0000
  S   S48       1.0  0.41731  0.04627  0.26576  1.0000
  C   C106      1.0  0.28268  0.17483  0.40778  1.0000
  Fe  Fe24      1.0  0.41481  0.05500  0.29290  1.0000
  S   S49       1.0  0.43932  0.05413  0.30736  1.0000
  Fe  Fe25      1.0  0.39696  0.07697  0.25857  1.0000
  C   C107      1.0  0.26348  0.27278  0.36681  1.0000
  S   S50       1.0  0.38738  0.04158  0.30828  1.0000
  S   S51       1.0  0.36742  0.06622  0.27087  1.0000
  C   C108      1.0  0.46428  0.04869  0.29403  1.0000
  N   N7        1.0  0.23862  0.32333  0.47995  1.0000
  C   C109      1.0  0.26661  0.18831  0.44149  1.0000
  H   H115      1.0  0.28904  0.16965  0.39471  1.0000
  H   H116      1.0  0.17962  0.15856  0.46824  1.0000
  Fe  Fe26      1.0  0.07188  0.11994  0.33206  1.0000
  H   H117      1.0  0.45683  0.03374  0.27606  1.0000
  H   H118      1.0  0.43518  0.13596  0.28572  1.0000
  H   H119      1.0  0.06135  0.08653  0.25881  1.0000
  N   N8        1.0  0.00259  0.01754  0.33592  1.0000
  H   H120      1.0  0.29119  0.22875  0.35318  1.0000
  C   C110      1.0  0.15416  0.17143  0.35947  1.0000
  C   C111      1.0  0.13605  0.17277  0.35392  1.0000
  C   C112      1.0  0.13103  0.15518  0.35205  1.0000
  C   C113      1.0  0.14410  0.13608  0.35580  1.0000
  C   C114      1.0  0.16242  0.13484  0.36092  1.0000
  C   C115      1.0  0.16744  0.15240  0.36276  1.0000
  H   H121      1.0  0.12576  0.18747  0.35121  1.0000
  H   H122      1.0  0.11685  0.15634  0.34814  1.0000
  H   H123      1.0  0.17279  0.12018  0.36341  1.0000
  H   H124      1.0  0.18167  0.15128  0.36653  1.0000
  C   C116      1.0  0.21231  0.18434  0.45490  1.0000
  C   C117      1.0  0.19701  0.20211  0.45454  1.0000
  H   H125      1.0  0.21545  0.17555  0.44427  1.0000
  C   C118      1.0  0.35657  0.07041  0.37635  1.0000
  C   C119      1.0  0.35855  0.05578  0.36604  1.0000
  C   C120      1.0  0.35438  0.06191  0.34789  1.0000
  C   C121      1.0  0.34794  0.08264  0.34010  1.0000
  C   C122      1.0  0.34522  0.09717  0.35071  1.0000
  C   C123      1.0  0.34992  0.09112  0.36862  1.0000
  H   H126      1.0  0.36353  0.03972  0.37200  1.0000
  H   H127      1.0  0.35585  0.05054  0.34006  1.0000
  H   H128      1.0  0.34059  0.11322  0.34468  1.0000
  H   H129      1.0  0.34911  0.10258  0.37611  1.0000
  C   C124      1.0  0.33503  0.18274  0.39218  1.0000
  C   C125      1.0  0.34611  0.17874  0.40615  1.0000
  C   C126      1.0  0.34690  0.19462  0.41378  1.0000
  C   C127      1.0  0.32495  0.20275  0.38560  1.0000
  H   H130      1.0  0.35444  0.16344  0.41085  1.0000
  H   H131      1.0  0.35566  0.19145  0.42446  1.0000
  H   H132      1.0  0.31630  0.20583  0.37484  1.0000
  C   C128      1.0  0.26943  0.11123  0.44445  1.0000
  C   C129      1.0  0.27426  0.09921  0.43109  1.0000
  C   C130      1.0  0.26199  0.10334  0.41796  1.0000
  C   C131      1.0  0.24536  0.11996  0.41777  1.0000
  C   C132      1.0  0.24036  0.13178  0.43130  1.0000
  C   C133      1.0  0.25214  0.12713  0.44489  1.0000
  H   H133      1.0  0.28750  0.08674  0.43083  1.0000
  H   H134      1.0  0.26584  0.09408  0.40757  1.0000
  H   H135      1.0  0.22740  0.14450  0.43130  1.0000
  H   H136      1.0  0.24833  0.13637  0.45524  1.0000
  C   C134      1.0  0.00779  0.12755  0.26018  1.0000
  C   C135      1.0  0.14640  0.13421  0.41159  1.0000
  C   C136      1.0  0.46876  0.03853  0.27933  1.0000
  H   H137      1.0  0.02999  0.00058  0.34588  1.0000
  C   C137      1.0  0.42384  0.12641  0.25919  1.0000
  C   C138      1.0  0.33771  0.30677  0.47757  1.0000
  C   C139      1.0  0.07148  0.00932  0.32199  1.0000
  C   C140      1.0  0.27598  0.16777  0.44174  1.0000
  C   C141      1.0  0.34366  0.29767  0.46198  1.0000
  C   C142      1.0  0.07092  0.01963  0.30334  1.0000
  C   C143      1.0  0.07738  0.03823  0.29615  1.0000
  C   C144      1.0  0.08500  0.04624  0.30737  1.0000
  C   C145      1.0  0.08591  0.03576  0.32593  1.0000
  C   C146      1.0  0.07880  0.01749  0.33328  1.0000
  H   H138      1.0  0.01994  0.10961  0.29454  1.0000
  H   H139      1.0  0.07698  0.04620  0.28170  1.0000
  H   H140      1.0  0.09072  0.06017  0.30149  1.0000
  H   H141      1.0  0.01908  0.02315  0.30697  1.0000
  C   C147      1.0  0.44640  0.09966  0.27586  1.0000
  C   C148      1.0  0.24668  0.22992  0.44205  1.0000
  N   N9        1.0  0.44482  0.12013  0.26286  1.0000
  H   H142      1.0  0.22548  0.21947  0.42277  1.0000
  H   H143      1.0  0.23501  0.22105  0.45115  1.0000
  H   H144      1.0  0.23898  0.24635  0.44076  1.0000
  H   H145      1.0  0.25923  0.22722  0.44950  1.0000
  H   H146      1.0  0.22598  0.24903  0.36775  1.0000
  H   H147      1.0  0.30936  0.11765  0.37314  1.0000
  H   H148      1.0  0.26643  0.12065  0.36900  1.0000
  H   H149      1.0  0.28271  0.23453  0.41790  1.0000
  H   H150      1.0  0.13137  0.13610  0.42172  1.0000
  H   H151      1.0  0.02238  0.07263  0.33624  1.0000
  S   S52       1.0  0.25554  0.21361  0.35661  1.0000
  C   C149      1.0  0.15849  0.18232  0.30510  1.0000
  H   H152      1.0  0.27462  0.23559  0.39712  1.0000
  C   C150      1.0  0.36776  0.09465  0.48499  1.0000
  H   H153      1.0  0.27089  0.13109  0.34408  1.0000
  H   H154      1.0  0.26037  0.19236  0.45503  1.0000
  H   H155      1.0  0.24134  0.22586  0.40000  1.0000
  C   C151      1.0  0.29741  0.13157  0.37536  1.0000
  H   H156      1.0  0.42073  0.14240  0.25089  1.0000
  H   H157      1.0  0.35881  0.09047  0.47756  1.0000
  H   H158      1.0  0.30800  0.12097  0.47789  1.0000
  H   H159      1.0  0.14946  0.14963  0.40382  1.0000
  C   C152      1.0  0.28386  0.16105  0.42492  1.0000
  C   C153      1.0  0.19660  0.16037  0.31224  1.0000
  N   N10       1.0  0.28795  0.14072  0.35879  1.0000
  H   H160      1.0  0.14348  0.12670  0.29734  1.0000
  S   S53       1.0  0.29686  0.32350  0.43503  1.0000
  C   C154      1.0  0.32579  0.21872  0.39321  1.0000
  H   H161      1.0  0.19299  0.13763  0.30022  1.0000
  H   H162      1.0  0.16267  0.20455  0.31806  1.0000
  H   H163      1.0  0.49246  0.02506  0.25848  1.0000
  H   H164      1.0  0.36539  0.15235  0.47075  1.0000
  C   C155      1.0  0.01174  0.00434  0.25646  1.0000
  H   H165      1.0  0.12199  0.99542  0.33315  1.0000
  H   H166      1.0  0.44630  0.15048  0.26322  1.0000
  C   C156      1.0  0.22359  0.17790  0.46908  1.0000
  H   H167      1.0  0.17906  0.11179  0.39516  1.0000
  H   H168      1.0  0.21119  0.15174  0.31541  1.0000
  H   H169      1.0  0.06218  0.08686  0.28210  1.0000
  H   H170      1.0  0.22874  0.24536  0.41293  1.0000
  C   C157      1.0  0.33679  0.21459  0.40732  1.0000
  H   H171      1.0  0.25876  0.15356  0.37491  1.0000
  H   H172      1.0  0.26175  0.25433  0.41064  1.0000
  N   N11       1.0  0.16325  0.12181  0.42113  1.0000
  C   C158      1.0  0.15782  0.10190  0.43150  1.0000
  C   C159      1.0  0.01702  0.08899  0.33481  1.0000
  C   C160      1.0  0.18187  0.11811  0.40603  1.0000
  C   C161      1.0  0.16708  0.13170  0.43455  1.0000
  C   C162      1.0  0.15368  0.14949  0.44016  1.0000
  C   C163      1.0  0.18451  0.12341  0.44271  1.0000
  C   C164      1.0  0.15829  0.15899  0.45215  1.0000
  C   C165      1.0  0.18880  0.13291  0.45487  1.0000
  C   C166      1.0  0.17589  0.15083  0.45934  1.0000
  C   C167      1.0  0.33631  0.23232  0.47465  1.0000
  H   H173      1.0  0.00028  0.13063  0.27399  1.0000
  H   H174      1.0  0.17043  0.09132  0.43795  1.0000
  C   C168      1.0  0.99806  0.09850  0.33009  1.0000
  C   C169      1.0  0.44723  0.13490  0.27257  1.0000
  H   H175      1.0  0.19483  0.10693  0.41140  1.0000
  H   H176      1.0  0.23055  0.28097  0.37326  1.0000
  H   H177      1.0  0.18733  0.13251  0.39867  1.0000
  H   H178      1.0  0.14000  0.15691  0.43485  1.0000
  H   H179      1.0  0.19523  0.10971  0.43952  1.0000
  H   H180      1.0  0.30610  0.19080  0.45267  1.0000
  H   H181      1.0  0.20249  0.12656  0.46052  1.0000
  H   H182      1.0  0.42132  0.11609  0.25144  1.0000
  C   C170      1.0  0.02903  0.11877  0.25537  1.0000
  C   C171      1.0  0.19291  0.21325  0.46859  1.0000
  H   H183      1.0  0.12696  0.15947  0.28235  1.0000
  H   H184      1.0  0.07919  0.00951  0.34773  1.0000
  H   H185      1.0  0.29577  0.26040  0.35920  1.0000
  C   C172      1.0  0.15187  0.13393  0.30342  1.0000
  C   C173      1.0  0.18599  0.15241  0.30363  1.0000
  H   H186      1.0  0.18223  0.13956  0.27333  1.0000
  H   H187      1.0  0.37348  0.03790  0.24594  1.0000
  C   C174      1.0  0.01388  0.03043  0.31939  1.0000
  C   C175      1.0  0.48900  0.03355  0.26940  1.0000
  H   H188      1.0  0.06532  0.99789  0.25373  1.0000
  C   C176      1.0  0.29053  0.18973  0.48178  1.0000
  C   C177      1.0  0.13503  0.16683  0.28870  1.0000
  H   H189      1.0  0.15919  0.14458  0.26531  1.0000
  C   C178      1.0  0.03220  0.11838  0.28742  1.0000
  H   H190      1.0  0.33546  0.29467  0.43769  1.0000
  C   C179      1.0  0.28055  0.25802  0.36108  1.0000
  H   H191      1.0  0.08890  0.02084  0.24870  1.0000
  H   H192      1.0  0.17117  0.16537  0.26304  1.0000
  H   H193      1.0  0.43337  0.09912  0.28837  1.0000
  C   C180      1.0  0.16757  0.15076  0.27243  1.0000
  H   H194      1.0  0.00946  0.02951  0.35654  1.0000
  H   H195      1.0  0.14273  0.13572  0.31770  1.0000
  H   H196      1.0  0.29079  0.14509  0.42515  1.0000
  C   C181      1.0  0.35441  0.22807  0.46126  1.0000
  H   H197      1.0  0.04402  0.09314  0.34079  1.0000
  H   H198      1.0  0.47651  0.06237  0.30976  1.0000
  H   H199      1.0  0.03985  0.08208  0.27792  1.0000
  H   H200      1.0  0.11629  0.00380  0.30258  1.0000
  H   H201      1.0  0.43925  0.07618  0.24572  1.0000
  H   H202      1.0  0.35809  0.28688  0.45984  1.0000
  H   H203      1.0  0.15450  0.09405  0.42197  1.0000
  C   C182      1.0  0.05937  0.12514  0.26068  1.0000
  C   C183      1.0  0.25827  0.23665  0.36025  1.0000
  H   H204      1.0  0.33978  0.17722  0.45933  1.0000
  C   C184      1.0  0.18826  0.17922  0.31722  1.0000
  H   H205      1.0  0.11266  0.08574  0.27945  1.0000
  C   C185      1.0  0.20448  0.20698  0.48260  1.0000
  H   H206      1.0  0.41188  0.12585  0.27252  1.0000
  H   H207      1.0  0.30488  0.14224  0.37828  1.0000
  H   H208      1.0  0.06645  0.99501  0.32770  1.0000
  S   S54       1.0  0.29406  0.28047  0.41261  1.0000
  H   H209      1.0  0.06907  0.12128  0.24725  1.0000
  S   S55       1.0  0.06262  0.00950  0.28853  1.0000
  H   H210      1.0  0.32313  0.22815  0.47302  1.0000
  C   C186      1.0  0.30362  0.14761  0.34210  1.0000
  C   C187      1.0  0.31042  0.13857  0.32609  1.0000
  C   C188      1.0  0.31296  0.16358  0.34174  1.0000
  C   C189      1.0  0.32543  0.14534  0.31068  1.0000
  C   C190      1.0  0.32781  0.17036  0.32620  1.0000
  C   C191      1.0  0.33399  0.16130  0.31066  1.0000
  H   H211      1.0  0.27654  0.16980  0.36737  1.0000
  H   H212      1.0  0.26465  0.16663  0.35047  1.0000
  H   H213      1.0  0.30484  0.12584  0.32526  1.0000
  H   H214      1.0  0.30898  0.17087  0.35359  1.0000
  H   H215      1.0  0.33065  0.13782  0.29884  1.0000
  H   H216      1.0  0.33460  0.18262  0.32637  1.0000
  H   H217      1.0  0.34557  0.16649  0.29865  1.0000
  N   N12       1.0  0.41942  0.07399  0.36034  1.0000
  C   C192      1.0  0.44048  0.07438  0.34910  1.0000
  C   C193      1.0  0.41924  0.07263  0.38043  1.0000
  C   C194      1.0  0.41390  0.05500  0.35969  1.0000
  C   C195      1.0  0.40538  0.09251  0.35228  1.0000
  C   C196      1.0  0.39991  0.09421  0.33500  1.0000
  C   C197      1.0  0.39776  0.10985  0.36063  1.0000
  C   C198      1.0  0.38671  0.11163  0.32727  1.0000
  C   C199      1.0  0.38442  0.12711  0.35289  1.0000
  C   C200      1.0  0.37882  0.12794  0.33631  1.0000
  H   H218      1.0  0.44545  0.08815  0.34951  1.0000
  H   H219      1.0  0.45162  0.06058  0.35439  1.0000
  H   H220      1.0  0.44162  0.07474  0.33402  1.0000
  H   H221      1.0  0.42600  0.08465  0.38207  1.0000
  H   H222      1.0  0.42833  0.05779  0.38680  1.0000
  H   H223      1.0  0.40334  0.07386  0.38922  1.0000
  H   H224      1.0  0.41606  0.05305  0.34513  1.0000
  H   H225      1.0  0.42344  0.04099  0.36678  1.0000
  H   H226      1.0  0.39774  0.05477  0.36694  1.0000
  H   H227      1.0  0.40542  0.08201  0.32743  1.0000
  H   H228      1.0  0.40160  0.11035  0.37337  1.0000
  H   H229      1.0  0.38176  0.11204  0.31471  1.0000
  H   H230      1.0  0.37798  0.13974  0.36006  1.0000
  H   H231      1.0  0.36795  0.14104  0.33075  1.0000
  C   C201      1.0  0.10538  0.08177  0.25492  1.0000
  S   S56       1.0  0.26622  0.29547  0.37116  1.0000
  C   C202      1.0  0.27342  0.19535  0.40732  1.0000
  C   C203      1.0  0.47991  0.05458  0.29833  1.0000
  H   H232      1.0  0.34683  0.29891  0.32603  1.0000
  H   H233      1.0  0.44664  0.08765  0.26860  1.0000
  H   H234      1.0  0.02548  0.13499  0.28631  1.0000
  C   C204      1.0  0.05189  0.09133  0.27197  1.0000
  C   C205      1.0  0.16934  0.19020  0.31354  1.0000
  H   H235      1.0  0.18102  0.22699  0.46839  1.0000
  H   H236      1.0  0.06987  0.12183  0.27047  1.0000
  H   H237      1.0  0.00434  0.04577  0.31501  1.0000
  Fe  Fe27      1.0  0.29383  0.29382  0.38201  1.0000
  H   H238      1.0  0.41872  0.00193  0.29717  1.0000
  H   H239      1.0  0.16625  0.12270  0.30542  1.0000
  S   S57       1.0  0.34003  0.29074  0.40214  1.0000
  C   C206      1.0  0.30656  0.32580  0.46711  1.0000
  C   C207      1.0  0.37786  0.02344  0.24169  1.0000
  H   H240      1.0  0.27545  0.19566  0.47872  1.0000
  H   H241      1.0  0.14849  0.17316  0.45544  1.0000
  C   C208      1.0  0.01705  0.99804  0.34143  1.0000
  H   H242      1.0  0.14446  0.12689  0.40094  1.0000
  Fe  Fe28      1.0  0.32624  0.26543  0.40164  1.0000
  H   H243      1.0  0.34569  0.29725  0.30279  1.0000
  C   C209      1.0  0.31897  0.32061  0.48032  1.0000
  C   C210      1.0  0.11593  0.11173  0.25628  1.0000
  H   H244      1.0  0.19615  0.18513  0.32445  1.0000
  H   H245      1.0  0.27276  0.20531  0.39358  1.0000
  C   C211      1.0  0.11498  0.12002  0.23727  1.0000
  H   H246      1.0  0.28984  0.11077  0.35440  1.0000
  S   S58       1.0  0.33813  0.23401  0.41724  1.0000
  H   H247      1.0  0.10174  0.06694  0.26180  1.0000
  H   H248      1.0  0.14285  0.99471  0.30410  1.0000
  C   C212      1.0  0.27793  0.24011  0.35763  1.0000
  C   C213      1.0  0.02936  0.10061  0.33725  1.0000
  H   H249      1.0  0.46227  0.13046  0.27669  1.0000
  H   H250      1.0  0.31786  0.23412  0.38826  1.0000
  Fe  Fe29      1.0  0.30763  0.30676  0.41117  1.0000
  N   N13       1.0  0.25452  0.22445  0.42329  1.0000
  C   C214      1.0  0.37215  0.23322  0.46198  1.0000
  C   C215      1.0  0.11143  0.09246  0.26496  1.0000
  C   C216      1.0  0.23681  0.22903  0.41437  1.0000
  H   H251      1.0  0.40460  0.12162  0.47706  1.0000
  C   C217      1.0  0.27131  0.15840  0.36302  1.0000
  H   H252      1.0  0.12475  0.16923  0.30248  1.0000
  C   C218      1.0  0.26899  0.23779  0.41181  1.0000
  N   N14       1.0  0.04274  0.11355  0.26871  1.0000
  H   H253      1.0  0.36874  0.17792  0.46859  1.0000
  H   H254      1.0  0.28592  0.12705  0.38842  1.0000
  S   S59       1.0  0.32519  0.27665  0.37098  1.0000
  Fe  Fe30      1.0  0.33570  0.30394  0.37256  1.0000
  C   C219      1.0  0.26491  0.20273  0.42419  1.0000
  C   C220      1.0  0.27842  0.12516  0.35632  1.0000
  C   C221      1.0  0.16650  0.16305  0.29993  1.0000
  H   H255      1.0  0.04286  0.11428  0.29714  1.0000
  C   C222      1.0  0.24382  0.26954  0.36900  1.0000
  H   H256      1.0  0.38560  0.24705  0.47650  1.0000
  C   C223      1.0  0.24120  0.25145  0.36589  1.0000
  H   H257      1.0  0.35462  0.22104  0.45002  1.0000
  C   C224      1.0  0.33636  0.30042  0.31665  1.0000
  N   N15       1.0  0.15534  0.15398  0.29127  1.0000
  H   H258      1.0  0.14368  0.19143  0.30323  1.0000
  H   H259      1.0  0.13643  0.18194  0.27906  1.0000
  S   S60       1.0  0.03898  0.13671  0.33641  1.0000
  H   H260      1.0  0.23544  0.16420  0.46927  1.0000
  H   H261      1.0  0.14404  0.10395  0.44311  1.0000
  S   S61       1.0  0.38514  0.00574  0.27731  1.0000
  C   C225      1.0  0.02279  0.12183  0.33506  1.0000
  H   H262      1.0  0.27678  0.15684  0.45505  1.0000
  C   C226      1.0  0.38162  0.10725  0.47511  1.0000
  H   H263      1.0  0.26700  0.30242  0.47187  1.0000
  C   C227      1.0  0.37190  0.24269  0.47610  1.0000
  C   C228      1.0  0.25060  0.30235  0.47870  1.0000
  H   H264      1.0  0.05310  0.14192  0.25776  1.0000
  H   H265      1.0  0.30039  0.30813  0.30866  1.0000
  C   C229      1.0  0.38407  0.00537  0.25442  1.0000
  C   C230      1.0  0.32717  0.17915  0.47129  1.0000
  H   H266      1.0  0.46032  0.09487  0.28177  1.0000
  H   H267      1.0  0.36501  0.32001  0.30226  1.0000
  C   C231      1.0  0.30774  0.18698  0.46723  1.0000
  C   C232      1.0  0.00357  0.13129  0.33081  1.0000
  C   C233      1.0  0.36724  0.16299  0.47855  1.0000
  C   C234      1.0  0.39357  0.11219  0.48476  1.0000
  H   H268      1.0  0.44608  0.99351  0.29271  1.0000
  H   H269      1.0  0.24491  0.29549  0.46994  1.0000
  H   H270      1.0  0.32768  0.28796  0.32336  1.0000
  H   H271      1.0  0.30262  0.31038  0.34096  1.0000
  H   H272      1.0  0.02764  0.03304  0.32244  1.0000
  S   S62       1.0  0.30409  0.32213  0.38151  1.0000
  H   H273      1.0  0.99843  0.14769  0.32912  1.0000
  H   H274      1.0  0.21171  0.31326  0.48003  1.0000
  S   S63       1.0  0.36238  0.31454  0.35040  1.0000
  C   C235      1.0  0.22003  0.18939  0.48269  1.0000
  H   H275      1.0  0.48619  0.10468  0.26005  1.0000
  C   C236      1.0  0.99730  0.04106  0.24718  1.0000
  H   H276      1.0  0.13502  0.99527  0.28329  1.0000
  H   H277      1.0  0.39213  0.32113  0.39454  1.0000
  C   C237      1.0  0.01414  0.02410  0.24662  1.0000
  C   C238      1.0  0.31248  0.31657  0.45156  1.0000
  H   H278      1.0  0.00525  0.06824  0.26183  1.0000
  C   C239      1.0  0.46112  0.11958  0.24544  1.0000
  C   C240      1.0  0.30845  0.32114  0.30266  1.0000
  H   H279      1.0  0.31691  0.32008  0.28798  1.0000
  H   H280      1.0  0.38217  0.15631  0.48282  1.0000
  H   H281      1.0  0.37406  0.31925  0.38291  1.0000
  N   N16       1.0  0.32253  0.32094  0.31437  1.0000
  C   C241      1.0  0.37550  0.32253  0.39609  1.0000
  C   C242      1.0  0.48187  0.11120  0.24659  1.0000
  C   C243      1.0  0.99611  0.02785  0.35206  1.0000
  C   C244      1.0  0.07218  0.00489  0.23946  1.0000
  H   H282      1.0  0.32052  0.32429  0.34218  1.0000
  C   C245      1.0  0.31041  0.32339  0.33343  1.0000
  H   H283      1.0  0.02936  0.02578  0.23895  1.0000
  H   H284      1.0  0.99620  0.09075  0.24521  1.0000
  N   N17       1.0  0.99937  0.06228  0.23746  1.0000
  H   H285      1.0  0.30820  0.27674  0.48715  1.0000
  C   C246      1.0  0.99544  0.13272  0.24702  1.0000
  H   H286      1.0  0.36463  0.13872  0.51292  1.0000
  Fe  Fe31      1.0  0.44645  0.10886  0.68064  1.0000
  S   S64       1.0  0.44582  0.07570  0.69280  1.0000
  S   S65       1.0  0.42108  0.12824  0.66634  1.0000
  Fe  Fe32      1.0  0.45455  0.08044  0.71746  1.0000
  N   N18       1.0  0.35007  0.16543  0.49517  1.0000
  C   C247      1.0  0.11703  0.16990  0.57161  1.0000
  S   S66       1.0  0.45212  0.11421  0.70664  1.0000
  S   S67       1.0  0.35386  0.30018  0.49348  1.0000
  Fe  Fe33      1.0  0.35532  0.12668  0.58746  1.0000
  S   S68       1.0  0.35484  0.13618  0.55666  1.0000
  S   S69       1.0  0.32454  0.13389  0.60674  1.0000
  Fe  Fe34      1.0  0.40152  0.11289  0.57916  1.0000
  S   S70       1.0  0.40447  0.12190  0.54767  1.0000
  S   S71       1.0  0.42990  0.10117  0.59083  1.0000
  Fe  Fe35      1.0  0.38127  0.15017  0.55377  1.0000
  S   S72       1.0  0.38160  0.18225  0.53608  1.0000
  Fe  Fe36      1.0  0.37763  0.10705  0.55405  1.0000
  H   H287      1.0  0.18474  0.08606  0.64467  1.0000
  S   S73       1.0  0.38062  0.14219  0.58476  1.0000
  S   S74       1.0  0.37611  0.09619  0.58527  1.0000
  Fe  Fe37      1.0  0.22994  0.19969  0.52133  1.0000
  S   S75       1.0  0.20096  0.21852  0.53536  1.0000
  C   C248      1.0  0.39098  0.10531  0.50442  1.0000
  Fe  Fe38      1.0  0.25521  0.20594  0.54540  1.0000
  S   S76       1.0  0.22866  0.22437  0.56199  1.0000
  S   S77       1.0  0.28747  0.20425  0.54618  1.0000
  Fe  Fe39      1.0  0.21121  0.20123  0.56233  1.0000
  S   S78       1.0  0.18914  0.19044  0.58942  1.0000
  Fe  Fe40      1.0  0.22102  0.23988  0.53395  1.0000
  S   S79       1.0  0.21558  0.27420  0.52612  1.0000
  S   S80       1.0  0.23898  0.18107  0.54839  1.0000
  S   S81       1.0  0.24863  0.22282  0.51723  1.0000
  Fe  Fe41      1.0  0.11977  0.09019  0.67112  1.0000
  S   S82       1.0  0.14350  0.06945  0.65421  1.0000
  S   S83       1.0  0.12583  0.08723  0.69964  1.0000
  Fe  Fe42      1.0  0.09370  0.10371  0.64194  1.0000
  S   S84       1.0  0.11513  0.08352  0.62308  1.0000
  S   S85       1.0  0.06480  0.12331  0.63388  1.0000
  Fe  Fe43      1.0  0.11698  0.05990  0.65006  1.0000
  S   S86       1.0  0.11658  0.02618  0.65866  1.0000
  Fe  Fe44      1.0  0.13930  0.09525  0.62917  1.0000
  S   S87       1.0  0.16563  0.10412  0.60553  1.0000
  S   S88       1.0  0.09347  0.07932  0.66848  1.0000
  S   S89       1.0  0.11764  0.11697  0.64642  1.0000
  C   C249      1.0  0.18636  0.10060  0.64615  1.0000
  C   C250      1.0  0.04829  0.10706  0.63644  1.0000
  C   C251      1.0  0.05564  0.08588  0.63982  1.0000
  C   C252      1.0  0.04257  0.07274  0.64228  1.0000
  C   C253      1.0  0.02207  0.08068  0.64133  1.0000
  H   H288      1.0  0.04375  0.02254  0.70225  1.0000
  C   C254      1.0  0.02780  0.11508  0.63528  1.0000
  H   H289      1.0  0.07145  0.07952  0.64045  1.0000
  H   H290      1.0  0.04843  0.05637  0.64488  1.0000
  H   H291      1.0  0.02195  0.04260  0.67967  1.0000
  H   H292      1.0  0.02205  0.13145  0.63268  1.0000
  C   C255      1.0  0.11318  0.10649  0.71219  1.0000
  H   H293      1.0  0.99695  0.02520  0.64629  1.0000
  H   H294      1.0  0.13162  0.13070  0.58976  1.0000
  H   H295      1.0  0.40682  0.21444  0.60935  1.0000
  C   C256      1.0  0.09064  0.13940  0.71461  1.0000
  C   C257      1.0  0.09918  0.12341  0.70496  1.0000
  H   H296      1.0  0.38029  0.17196  0.63276  1.0000
  H   H297      1.0  0.08001  0.15265  0.70891  1.0000
  H   H298      1.0  0.09518  0.12435  0.69182  1.0000
  C   C258      1.0  0.23562  0.26573  0.59140  1.0000
  H   H299      1.0  0.39993  0.10948  0.51190  1.0000
  H   H300      1.0  0.42925  0.18455  0.53539  1.0000
  H   H301      1.0  0.11266  0.00159  0.69874  1.0000
  C   C259      1.0  0.40945  0.05899  0.63189  1.0000
  S   S90       1.0  0.49273  0.04387  0.66552  1.0000
  C   C260      1.0  0.09944  0.99595  0.65682  1.0000
  C   C261      1.0  0.18283  0.16638  0.59376  1.0000
  C   C262      1.0  0.19244  0.15299  0.58160  1.0000
  C   C263      1.0  0.18710  0.13390  0.58546  1.0000
  C   C264      1.0  0.17210  0.12808  0.60143  1.0000
  C   C265      1.0  0.16248  0.14149  0.61360  1.0000
  C   C266      1.0  0.16783  0.16058  0.60976  1.0000
  H   H302      1.0  0.20398  0.15733  0.56922  1.0000
  H   H303      1.0  0.19460  0.12361  0.57598  1.0000
  H   H304      1.0  0.15115  0.13706  0.62607  1.0000
  H   H305      1.0  0.16040  0.17086  0.61924  1.0000
  C   C267      1.0  0.37188  0.20204  0.54858  1.0000
  C   C268      1.0  0.37080  0.22249  0.53881  1.0000
  C   C269      1.0  0.35848  0.21333  0.57819  1.0000
  C   C270      1.0  0.36558  0.19764  0.56825  1.0000
  H   H306      1.0  0.37581  0.22605  0.52359  1.0000
  H   H307      1.0  0.35353  0.20973  0.59340  1.0000
  H   H308      1.0  0.36644  0.18215  0.57593  1.0000
  C   C271      1.0  0.31230  0.15638  0.59345  1.0000
  C   C272      1.0  0.32439  0.16920  0.58027  1.0000
  C   C273      1.0  0.31635  0.18445  0.56627  1.0000
  C   C274      1.0  0.29594  0.18721  0.56562  1.0000
  C   C275      1.0  0.28312  0.17577  0.57986  1.0000
  C   C276      1.0  0.29137  0.16018  0.59382  1.0000
  H   H309      1.0  0.34037  0.16650  0.58019  1.0000
  H   H310      1.0  0.32629  0.19344  0.55551  1.0000
  H   H311      1.0  0.26716  0.17819  0.57957  1.0000
  H   H312      1.0  0.28193  0.15028  0.60404  1.0000
  C   C277      1.0  0.30461  0.12932  0.55701  1.0000
  C   C278      1.0  0.01550  0.04001  0.69477  1.0000
  C   C279      1.0  0.10428  0.01511  0.64768  1.0000
  H   H313      1.0  0.15080  0.16668  0.68801  1.0000
  N   N19       1.0  0.44435  0.04580  0.64060  1.0000
  C   C280      1.0  0.42344  0.12133  0.64510  1.0000
  C   C281      1.0  0.44274  0.11611  0.63365  1.0000
  C   C282      1.0  0.44457  0.11060  0.61666  1.0000
  C   C283      1.0  0.42716  0.10968  0.61135  1.0000
  C   C284      1.0  0.40781  0.11535  0.62256  1.0000
  C   C285      1.0  0.40594  0.12141  0.63934  1.0000
  H   H314      1.0  0.45626  0.11672  0.63766  1.0000
  H   H315      1.0  0.45954  0.10676  0.60775  1.0000
  H   H316      1.0  0.39430  0.11455  0.61859  1.0000
  H   H317      1.0  0.39097  0.12552  0.64815  1.0000
  H   H318      1.0  0.28574  0.09594  0.49845  1.0000
  H   H319      1.0  0.08913  0.02140  0.60680  1.0000
  H   H320      1.0  0.38937  0.20403  0.62978  1.0000
  C   C286      1.0  0.38149  0.07872  0.65107  1.0000
  H   H321      1.0  0.27929  0.18661  0.51176  1.0000
  S   S91       1.0  0.47953  0.10318  0.66583  1.0000
  C   C287      1.0  0.44892  0.03182  0.65847  1.0000
  C   C288      1.0  0.29268  0.18474  0.50042  1.0000
  C   C289      1.0  0.04790  0.08491  0.71605  1.0000
  H   H322      1.0  0.11867  0.13098  0.57216  1.0000
  H   H323      1.0  0.28864  0.21000  0.62106  1.0000
  N   N20       1.0  0.10551  0.15577  0.58662  1.0000
  C   C290      1.0  0.08432  0.15787  0.58463  1.0000
  C   C291      1.0  0.11632  0.13431  0.58631  1.0000
  C   C292      1.0  0.10411  0.15964  0.60538  1.0000
  H   H324      1.0  0.08420  0.15433  0.57116  1.0000
  H   H325      1.0  0.07612  0.14703  0.59617  1.0000
  H   H326      1.0  0.07500  0.17346  0.58551  1.0000
  H   H327      1.0  0.10758  0.12326  0.59688  1.0000
  H   H328      1.0  0.09463  0.14998  0.61694  1.0000
  H   H329      1.0  0.11931  0.15608  0.60899  1.0000
  H   H330      1.0  0.09706  0.17591  0.60590  1.0000
  H   H331      1.0  0.14486  0.15944  0.58253  1.0000
  H   H332      1.0  0.35487  0.07752  0.51221  1.0000
  C   C293      1.0  0.29451  0.24845  0.60556  1.0000
  H   H333      1.0  0.29254  0.26462  0.59754  1.0000
  H   H334      1.0  0.31093  0.24377  0.60633  1.0000
  H   H335      1.0  0.28521  0.24821  0.62019  1.0000
  H   H336      1.0  0.26039  0.20900  0.60874  1.0000
  N   N21       1.0  0.31679  0.24658  0.50386  1.0000
  H   H337      1.0  0.30765  0.13136  0.56966  1.0000
  H   H338      1.0  0.32331  0.09859  0.52583  1.0000
  H   H339      1.0  0.37368  0.18007  0.60993  1.0000
  C   C294      1.0  0.23325  0.23044  0.60426  1.0000
  C   C295      1.0  0.28827  0.14217  0.54952  1.0000
  H   H340      1.0  0.17800  0.00547  0.73453  1.0000
  H   H341      1.0  0.44825  0.04292  0.61195  1.0000
  H   H342      1.0  0.22419  0.21873  0.60888  1.0000
  S   S92       1.0  0.35901  0.30281  0.54261  1.0000
  H   H343      1.0  0.34397  0.17939  0.51914  1.0000
  H   H344      1.0  0.25669  0.26016  0.53383  1.0000
  H   H345      1.0  0.02919  0.02816  0.62993  1.0000
  C   C296      1.0  0.42473  0.18471  0.55031  1.0000
  H   H346      1.0  0.12625  0.15124  0.68340  1.0000
  H   H347      1.0  0.29430  0.20231  0.59881  1.0000
  C   C297      1.0  0.15952  0.12630  0.69560  1.0000
  C   C298      1.0  0.12940  0.02321  0.72635  1.0000
  N   N22       1.0  0.00940  0.01706  0.61906  1.0000
  H   H348      1.0  0.28574  0.24207  0.51401  1.0000
  H   H349      1.0  0.30402  0.08722  0.51283  1.0000
  Fe  Fe45      1.0  0.29994  0.31087  0.55258  1.0000
  H   H350      1.0  0.00137  0.04988  0.61412  1.0000
  C   C299      1.0  0.35440  0.17900  0.50504  1.0000
  Fe  Fe46      1.0  0.48523  0.10555  0.69298  1.0000
  H   H351      1.0  0.44886  0.04021  0.66909  1.0000
  C   C300      1.0  0.11809  0.10525  0.72932  1.0000
  H   H352      1.0  0.27548  0.15031  0.49708  1.0000
  S   S93       1.0  0.48814  0.07221  0.70589  1.0000
  H   H353      1.0  0.44792  0.03870  0.72385  1.0000
  N   N23       1.0  0.29264  0.12009  0.50704  1.0000
  C   C301      1.0  0.17399  0.12954  0.66197  1.0000
  C   C302      1.0  0.14961  0.01130  0.72571  1.0000
  C   C303      1.0  0.20155  0.11010  0.63345  1.0000
  C   C304      1.0  0.31041  0.12315  0.49112  1.0000
  H   H354      1.0  0.24940  0.29188  0.49295  1.0000
  H   H355      1.0  0.46526  0.02409  0.62480  1.0000
  C   C305      1.0  0.99870  0.03419  0.73428  1.0000
  C   C306      1.0  0.26644  0.24008  0.59769  1.0000
  C   C307      1.0  0.16231  0.15973  0.67671  1.0000
  H   H356      1.0  0.29498  0.22856  0.56903  1.0000
  C   C308      1.0  0.08727  0.99505  0.62991  1.0000
  H   H357      1.0  0.14829  0.13344  0.70694  1.0000
  H   H358      1.0  0.00019  0.99862  0.64665  1.0000
  C   C309      1.0  0.28413  0.13940  0.53337  1.0000
  C   C310      1.0  0.42621  0.16637  0.56374  1.0000
  H   H359      1.0  0.31317  0.21019  0.60517  1.0000
  H   H360      1.0  0.10278  0.05289  0.70843  1.0000
  C   C311      1.0  0.37664  0.09323  0.51438  1.0000
  H   H361      1.0  0.47453  0.05251  0.63224  1.0000
  H   H362      1.0  0.42079  0.15176  0.59275  1.0000
  C   C312      1.0  0.41990  0.17403  0.62006  1.0000
  C   C313      1.0  0.13995  0.19678  0.54352  1.0000
  H   H363      1.0  0.33222  0.24386  0.52612  1.0000
  H   H364      1.0  0.42425  0.06792  0.66794  1.0000
  H   H365      1.0  0.20159  0.21593  0.49308  1.0000
  H   H366      1.0  0.14874  0.20704  0.53284  1.0000
  H   H367      1.0  0.08583  0.01238  0.72266  1.0000
  C   C314      1.0  0.25009  0.27486  0.53751  1.0000
  C   C315      1.0  0.01464  0.10187  0.63775  1.0000
  H   H368      1.0  0.04043  0.02198  0.60771  1.0000
  C   C316      1.0  0.25418  0.22506  0.60408  1.0000
  N   N24       1.0  0.15887  0.13960  0.67654  1.0000
  H   H369      1.0  0.45605  0.07039  0.61997  1.0000
  C   C317      1.0  0.31700  0.11370  0.54830  1.0000
  Fe  Fe47      1.0  0.47938  0.07036  0.68000  1.0000
  H   H370      1.0  0.43212  0.15194  0.55926  1.0000
  C   C318      1.0  0.11024  0.03945  0.70195  1.0000
  N   N25       1.0  0.28878  0.23492  0.59654  1.0000
  C   C319      1.0  0.41097  0.18495  0.58938  1.0000
  H   H371      1.0  0.09327  0.18524  0.55528  1.0000
  C   C320      1.0  0.23004  0.28460  0.53561  1.0000
  C   C321      1.0  0.38649  0.17291  0.61733  1.0000
  H   H372      1.0  0.13354  0.12847  0.67461  1.0000
  C   C322      1.0  0.39434  0.07777  0.66270  1.0000
  H   H373      1.0  0.31634  0.23369  0.57470  1.0000
  H   H374      1.0  0.38867  0.08566  0.67428  1.0000
  H   H375      1.0  0.11336  0.20786  0.53151  1.0000
  H   H376      1.0  0.13756  0.00618  0.69468  1.0000
  C   C323      1.0  0.13809  0.14306  0.67312  1.0000
  C   C324      1.0  0.39492  0.20502  0.61428  1.0000
  C   C325      1.0  0.42282  0.05722  0.64380  1.0000
  C   C326      1.0  0.17279  0.11009  0.66022  1.0000
  H   H377      1.0  0.41462  0.17311  0.63558  1.0000
  H   H378      1.0  0.38164  0.21345  0.60771  1.0000
  C   C327      1.0  0.35769  0.23364  0.56852  1.0000
  H   H379      1.0  0.29572  0.25418  0.56885  1.0000
  C   C328      1.0  0.29944  0.23798  0.57639  1.0000
  H   H380      1.0  0.27749  0.09552  0.52327  1.0000
  S   S94       1.0  0.37154  0.08615  0.53909  1.0000
  C   C329      1.0  0.13741  0.16983  0.57173  1.0000
  H   H381      1.0  0.27862  0.15423  0.55641  1.0000
  C   C330      1.0  0.09588  0.13832  0.73158  1.0000
  H   H382      1.0  0.41440  0.05276  0.61937  1.0000
  C   C331      1.0  0.27412  0.13402  0.50104  1.0000
  H   H383      1.0  0.31282  0.17383  0.51933  1.0000
  H   H384      1.0  0.17761  0.15823  0.67949  1.0000
  C   C332      1.0  0.22148  0.30347  0.54066  1.0000
  H   H385      1.0  0.09958  0.03796  0.69401  1.0000
  H   H386      1.0  0.37921  0.07084  0.62626  1.0000
  H   H387      1.0  0.45539  0.07054  0.64395  1.0000
  H   H388      1.0  0.12426  0.04317  0.69149  1.0000
  C   C333      1.0  0.36364  0.23832  0.54877  1.0000
  C   C334      1.0  0.10861  0.18403  0.55665  1.0000
  H   H389      1.0  0.22851  0.28146  0.58610  1.0000
  C   C335      1.0  0.44929  0.03320  0.62627  1.0000
  C   C336      1.0  0.14861  0.18314  0.55797  1.0000
  H   H390      1.0  0.16411  0.18288  0.55857  1.0000
  C   C337      1.0  0.45815  0.06045  0.63393  1.0000
  H   H391      1.0  0.43890  0.02229  0.63016  1.0000
  S   S95       1.0  0.34879  0.25282  0.58152  1.0000
  N   N26       1.0  0.11530  0.02045  0.71612  1.0000
  C   C338      1.0  0.12001  0.19721  0.54283  1.0000
  H   H392      1.0  0.05248  0.07772  0.70405  1.0000
  C   C339      1.0  0.41474  0.06744  0.65901  1.0000
  H   H393      1.0  0.26003  0.13242  0.51229  1.0000
  H   H394      1.0  0.32171  0.27567  0.50456  1.0000
  H   H395      1.0  0.36314  0.25405  0.54119  1.0000
  C   C340      1.0  0.29643  0.21343  0.60588  1.0000
  H   H396      1.0  0.16093  0.17092  0.66310  1.0000
  N   N27       1.0  0.40318  0.18444  0.60984  1.0000
  H   H397      1.0  0.43288  0.18209  0.61476  1.0000
  C   C341      1.0  0.25651  0.26057  0.59126  1.0000
  C   C342      1.0  0.12314  0.03848  0.73717  1.0000
  S   S96       1.0  0.32049  0.28353  0.54253  1.0000
  C   C343      1.0  0.23259  0.31240  0.54792  1.0000
  C   C344      1.0  0.38908  0.06950  0.63563  1.0000
  S   S97       1.0  0.00627  0.06355  0.64476  1.0000
  H   H398      1.0  0.20603  0.31106  0.53932  1.0000
  H   H399      1.0  0.32468  0.11212  0.49384  1.0000
  C   C345      1.0  0.41957  0.16644  0.58297  1.0000
  C   C346      1.0  0.02774  0.02879  0.70752  1.0000
  H   H400      1.0  0.39165  0.15694  0.61544  1.0000
  H   H401      1.0  0.33785  0.14535  0.52110  1.0000
  C   C347      1.0  0.00147  0.03723  0.60771  1.0000
  H   H402      1.0  0.26487  0.27278  0.58563  1.0000
  C   C348      1.0  0.00977  0.00106  0.60935  1.0000
  H   H403      1.0  0.07841  0.08727  0.71498  1.0000
  C   C349      1.0  0.26269  0.32328  0.50007  1.0000
  H   H404      1.0  0.36580  0.08714  0.65370  1.0000
  S   S98       1.0  0.23637  0.18206  0.49861  1.0000
  H   H405      1.0  0.30680  0.23988  0.53423  1.0000
  H   H406      1.0  0.27108  0.14978  0.52849  1.0000
  H   H407      1.0  0.42615  0.15801  0.61846  1.0000
  C   C350      1.0  0.22401  0.25071  0.59789  1.0000
  C   C351      1.0  0.09611  0.01623  0.72956  1.0000
  C   C352      1.0  0.06245  0.09036  0.72216  1.0000
  H   H408      1.0  0.27698  0.27680  0.54555  1.0000
  H   H409      1.0  0.29565  0.27341  0.51183  1.0000
  C   C353      1.0  0.36550  0.08740  0.50458  1.0000
  H   H410      1.0  0.21428  0.31400  0.50278  1.0000
  Fe  Fe48      1.0  0.33916  0.30560  0.52272  1.0000
  C   C354      1.0  0.29649  0.12357  0.52414  1.0000
  H   H411      1.0  0.16106  0.10220  0.66951  1.0000
  S   S99       1.0  0.31627  0.30898  0.57513  1.0000
  C   C355      1.0  0.40990  0.20344  0.57529  1.0000
  C   C356      1.0  0.18975  0.13879  0.64881  1.0000
  C   C357      1.0  0.31026  0.26905  0.50175  1.0000
  C   C358      1.0  0.20327  0.12911  0.63480  1.0000
  C   C359      1.0  0.31315  0.11090  0.53205  1.0000
  H   H412      1.0  0.17500  0.12302  0.69861  1.0000
  H   H413      1.0  0.46454  0.02196  0.65620  1.0000
  Fe  Fe49      1.0  0.33832  0.28316  0.56320  1.0000
  C   C360      1.0  0.35003  0.14500  0.50803  1.0000
  H   H414      1.0  0.37014  0.17368  0.50769  1.0000
  H   H415      1.0  0.13720  0.15223  0.65860  1.0000
  H   H416      1.0  0.40327  0.21828  0.57864  1.0000
  C   C361      1.0  0.26157  0.28425  0.54414  1.0000
  H   H417      1.0  0.19171  0.15370  0.64868  1.0000
  H   H418      1.0  0.43767  0.02173  0.66496  1.0000
  H   H419      1.0  0.21159  0.10297  0.62217  1.0000
  H   H420      1.0  0.99880  0.10806  0.63698  1.0000
  H   H421      1.0  0.32680  0.22050  0.52492  1.0000
  H   H422      1.0  0.08717  0.02948  0.73585  1.0000
  H   H423      1.0  0.10383  0.03923  0.62266  1.0000
  C   C362      1.0  0.25269  0.30299  0.54957  1.0000
  H   H424      1.0  0.41513  0.21738  0.54553  1.0000
  H   H425      1.0  0.30330  0.22196  0.50416  1.0000
  H   H426      1.0  0.01102  0.03986  0.59312  1.0000
  C   C363      1.0  0.10012  0.02447  0.62979  1.0000
  C   C364      1.0  0.33560  0.24180  0.48939  1.0000
  H   H427      1.0  0.32967  0.10364  0.55422  1.0000
  H   H428      1.0  0.35329  0.19491  0.49653  1.0000
  C   C365      1.0  0.31201  0.17721  0.50461  1.0000
  H   H429      1.0  0.15578  0.99943  0.71778  1.0000
  C   C366      1.0  0.28989  0.09880  0.51061  1.0000
  H   H430      1.0  0.20790  0.25472  0.59762  1.0000
  C   C367      1.0  0.02993  0.01713  0.62137  1.0000
  H   H431      1.0  0.35440  0.25493  0.49989  1.0000
  C   C368      1.0  0.29940  0.23886  0.50254  1.0000
  C   C369      1.0  0.32089  0.23733  0.52305  1.0000
  C   C370      1.0  0.09185  0.01433  0.62082  1.0000
  H   H432      1.0  0.15560  0.11135  0.69723  1.0000
  H   H433      1.0  0.01600  0.08496  0.72034  1.0000
  C   C371      1.0  0.41675  0.20319  0.55607  1.0000
  C   C372      1.0  0.02739  0.08897  0.72523  1.0000
  C   C373      1.0  0.16260  0.01463  0.73531  1.0000
  H   H434      1.0  0.21475  0.13671  0.62451  1.0000
  C   C374      1.0  0.01953  0.02590  0.72699  1.0000
  C   C375      1.0  0.45212  0.02980  0.73694  1.0000
  H   H435      1.0  0.04229  0.99659  0.59520  1.0000
  S   S100      1.0  0.26559  0.31506  0.55911  1.0000
  H   H436      1.0  0.45896  0.00093  0.72870  1.0000
  H   H437      1.0  0.03711  0.00180  0.62872  1.0000
  H   H438      1.0  0.34796  0.13386  0.50095  1.0000
  C   C376      1.0  0.99593  0.01438  0.63829  1.0000
  H   H439      1.0  0.40647  0.32377  0.60712  1.0000
  H   H440      1.0  0.12891  0.09216  0.73496  1.0000
  C   C377      1.0  0.12381  0.00340  0.70601  1.0000
  H   H441      1.0  0.31318  0.13885  0.48820  1.0000
  H   H442      1.0  0.38883  0.31006  0.59148  1.0000
  C   C378      1.0  0.32986  0.17398  0.49021  1.0000
  H   H443      1.0  0.27141  0.13074  0.48839  1.0000
  C   C379      1.0  0.35391  0.24703  0.48955  1.0000
  C   C380      1.0  0.39701  0.32206  0.58340  1.0000
  H   H444      1.0  0.29447  0.24621  0.48897  1.0000
  H   H445      1.0  0.27173  0.30841  0.49836  1.0000
  H   H446      1.0  0.02972  0.01734  0.73632  1.0000
  H   H447      1.0  0.38740  0.32441  0.55798  1.0000
  H   H448      1.0  0.28196  0.32528  0.51721  1.0000
  C   C381      1.0  0.21683  0.32196  0.48762  1.0000
  H   H449      1.0  0.00519  0.10136  0.74685  1.0000
  H   H450      1.0  0.07410  0.32434  0.89372  1.0000
  H   H451      1.0  0.02867  0.08952  0.83289  1.0000
  C   C382      1.0  0.11997  0.00617  0.82947  1.0000
  H   H452      1.0  0.03840  0.08685  0.78244  1.0000
  H   H453      1.0  0.17716  0.29353  0.97348  1.0000
  C   C383      1.0  0.08905  0.05483  0.81300  1.0000
  H   H454      1.0  0.44132  0.07367  0.78404  1.0000
  C   C384      1.0  0.47899  0.06482  0.81886  1.0000
  H   H455      1.0  0.16601  0.03227  0.75322  1.0000
  S   S101      1.0  0.44379  0.06622  0.74791  1.0000
  H   H456      1.0  0.15206  0.16606  0.93069  1.0000
  C   C385      1.0  0.48886  0.06549  0.83244  1.0000
  C   C386      1.0  0.23850  0.28485  0.97087  1.0000
  H   H457      1.0  0.47800  0.05989  0.76604  1.0000
  H   H458      1.0  0.00809  0.01832  0.81459  1.0000
  H   H459      1.0  0.16808  0.31069  0.92595  1.0000
  H   H460      1.0  0.11126  0.01642  0.83931  1.0000
  H   H461      1.0  0.23788  0.24676  0.97221  1.0000
  H   H462      1.0  0.01016  0.00195  0.76322  1.0000
  Fe  Fe50      1.0  0.14999  0.21915  0.88331  1.0000
  S   S102      1.0  0.12660  0.22878  0.90812  1.0000
  S   S103      1.0  0.14863  0.18896  0.87804  1.0000
  Fe  Fe51      1.0  0.17175  0.25379  0.87804  1.0000
  S   S104      1.0  0.15016  0.26595  0.90244  1.0000
  S   S105      1.0  0.19721  0.27033  0.86195  1.0000
  Fe  Fe52      1.0  0.15272  0.23313  0.91754  1.0000
  S   S106      1.0  0.15292  0.22008  0.94837  1.0000
  Fe  Fe53      1.0  0.12602  0.26059  0.89091  1.0000
  S   S107      1.0  0.09675  0.28387  0.88965  1.0000
  S   S108      1.0  0.17644  0.22118  0.89400  1.0000
  S   S109      1.0  0.14733  0.25100  0.86506  1.0000
  Fe  Fe54      1.0  0.09749  0.11832  0.80772  1.0000
  S   S110      1.0  0.08628  0.13996  0.82755  1.0000
  Fe  Fe55      1.0  0.08894  0.15133  0.77332  1.0000
  S   S111      1.0  0.07705  0.17571  0.79009  1.0000
  C   C387      1.0  0.45611  0.02789  0.76828  1.0000
  Fe  Fe56      1.0  0.10374  0.16087  0.80404  1.0000
  S   S112      1.0  0.11996  0.18411  0.80642  1.0000
  Fe  Fe57      1.0  0.06082  0.15305  0.81199  1.0000
  S   S113      1.0  0.02736  0.16187  0.82472  1.0000
  S   S114      1.0  0.11716  0.13806  0.78524  1.0000
  S   S115      1.0  0.07051  0.12982  0.79417  1.0000
  C   C388      1.0  0.99751  0.14496  0.82105  1.0000
  C   C389      1.0  0.02784  0.12142  0.82961  1.0000
  H   H463      1.0  0.22613  0.27927  0.98253  1.0000
  S   S116      1.0  0.05679  0.99659  0.76709  1.0000
  H   H464      1.0  0.05756  0.10211  0.77342  1.0000
  H   H465      1.0  0.23095  0.21571  0.92661  1.0000
  H   H466      1.0  0.04264  0.11859  0.83300  1.0000
  H   H467      1.0  0.10813  0.04838  0.73806  1.0000
  H   H468      1.0  0.12239  0.30764  0.97080  1.0000
  H   H469      1.0  0.20651  0.20305  0.95551  1.0000
  C   C390      1.0  0.16498  0.23021  0.96033  1.0000
  C   C391      1.0  0.17560  0.24596  0.95110  1.0000
  H   H470      1.0  0.17622  0.25252  0.93623  1.0000
  C   C392      1.0  0.14022  0.18794  0.85825  1.0000
  C   C393      1.0  0.13827  0.20481  0.84315  1.0000
  C   C394      1.0  0.13209  0.20333  0.82740  1.0000
  C   C395      1.0  0.12747  0.18512  0.82670  1.0000
  C   C396      1.0  0.12896  0.16837  0.84199  1.0000
  C   C397      1.0  0.13549  0.16974  0.85762  1.0000
  H   H471      1.0  0.14184  0.21890  0.84347  1.0000
  H   H472      1.0  0.13098  0.21636  0.81564  1.0000
  H   H473      1.0  0.12552  0.15424  0.84158  1.0000
  H   H474      1.0  0.13696  0.15661  0.86924  1.0000
  C   C398      1.0  0.22648  0.28646  0.90177  1.0000
  C   C399      1.0  0.21535  0.27086  0.90832  1.0000
  C   C400      1.0  0.20640  0.26586  0.89612  1.0000
  C   C401      1.0  0.20890  0.27614  0.87716  1.0000
  C   C402      1.0  0.22053  0.29136  0.87042  1.0000
  C   C403      1.0  0.22923  0.29661  0.88275  1.0000
  H   H475      1.0  0.21351  0.26270  0.92292  1.0000
  H   H476      1.0  0.19770  0.25390  0.90137  1.0000
  H   H477      1.0  0.22257  0.29926  0.85572  1.0000
  H   H478      1.0  0.15508  0.03445  0.80283  1.0000
  H   H479      1.0  0.08800  0.04843  0.82794  1.0000
  S   S117      1.0  0.07251  0.04463  0.76949  1.0000
  H   H480      1.0  0.20074  0.31174  0.94886  1.0000
  C   C404      1.0  0.09793  0.08108  0.78538  1.0000
  H   H481      1.0  0.12154  0.31525  0.86899  1.0000
  C   C405      1.0  0.46439  0.99695  0.75639  1.0000
  H   H482      1.0  0.48266  0.10019  0.76327  1.0000
  S   S118      1.0  0.23623  0.29296  0.91798  1.0000
  C   C406      1.0  0.04085  0.10283  0.77797  1.0000
  C   C407      1.0  0.26421  0.26070  0.98603  1.0000
  H   H483      1.0  0.19372  0.26528  0.95406  1.0000
  C   C408      1.0  0.20855  0.19779  0.94272  1.0000
  H   H484      1.0  0.27491  0.29144  0.95362  1.0000
  C   C409      1.0  0.25164  0.25192  0.96258  1.0000
  C   C410      1.0  0.08264  0.05460  0.78302  1.0000
  C   C411      1.0  0.05308  0.01115  0.85492  1.0000
  H   H485      1.0  0.21541  0.18097  0.89615  1.0000
  N   N28       1.0  0.14096  0.00982  0.82094  1.0000
  C   C412      1.0  0.09277  0.29728  0.90735  1.0000
  C   C413      1.0  0.10197  0.28834  0.92283  1.0000
  C   C414      1.0  0.10169  0.30009  0.93533  1.0000
  H   H486      1.0  0.10418  0.09464  0.77885  1.0000
  H   H487      1.0  0.99838  0.12809  0.76106  1.0000
  H   H488      1.0  0.10954  0.27239  0.92507  1.0000
  H   H489      1.0  0.10949  0.29326  0.94686  1.0000
  H   H490      1.0  0.99902  0.04399  0.81804  1.0000
  C   C415      1.0  0.18555  0.25309  0.96118  1.0000
  C   C416      1.0  0.09687  0.07260  0.80462  1.0000
  C   C417      1.0  0.22470  0.19839  0.90997  1.0000
  C   C418      1.0  0.02332  0.03357  0.84428  1.0000
  H   H491      1.0  0.11083  0.00873  0.81873  1.0000
  N   N29       1.0  0.46983  0.07812  0.78698  1.0000
  C   C419      1.0  0.45092  0.03953  0.75129  1.0000
  H   H492      1.0  0.00248  0.10378  0.77780  1.0000
  H   H493      1.0  0.24772  0.25713  0.94840  1.0000
  H   H494      1.0  0.09162  0.31991  0.86152  1.0000
  C   C420      1.0  0.14155  0.32321  0.90415  1.0000
  H   H495      1.0  0.01842  0.03530  0.76008  1.0000
  C   C421      1.0  0.03577  0.10454  0.74700  1.0000
  H   H496      1.0  0.43923  0.08465  0.80362  1.0000
  H   H497      1.0  0.23799  0.30851  0.87756  1.0000
  H   H498      1.0  0.03577  0.10955  0.79071  1.0000
  H   H499      1.0  0.23221  0.29086  0.95789  1.0000
  S   S119      1.0  0.29146  0.32388  0.95204  1.0000
  C   C422      1.0  0.18478  0.24459  0.98048  1.0000
  C   C423      1.0  0.15589  0.02971  0.74586  1.0000
  C   C424      1.0  0.08200  0.04577  0.80219  1.0000
  H   H500      1.0  0.45862  0.11049  0.77767  1.0000
  H   H501      1.0  0.14818  0.27969  0.98579  1.0000
  H   H502      1.0  0.28731  0.26585  0.95039  1.0000
  H   H503      1.0  0.44961  0.05780  0.80437  1.0000
  H   H504      1.0  0.09949  0.00302  0.74127  1.0000
  C   C425      1.0  0.09239  0.32086  0.93222  1.0000
  H   H505      1.0  0.45496  0.03522  0.77953  1.0000
  H   H506      1.0  0.47245  0.05159  0.82138  1.0000
  H   H507      1.0  0.99643  0.03913  0.77852  1.0000
  H   H508      1.0  0.18678  0.32496  0.91172  1.0000
  C   C426      1.0  0.22231  0.20492  0.92647  1.0000
  H   H509      1.0  0.07552  0.03235  0.80879  1.0000
  C   C427      1.0  0.17431  0.31809  0.91111  1.0000
  C   C428      1.0  0.09093  0.07204  0.77458  1.0000
  S   S120      1.0  0.28267  0.32133  0.90545  1.0000
  S   S121      1.0  0.08570  0.15874  0.74309  1.0000
  H   H510      1.0  0.02832  0.14497  0.74431  1.0000
  C   C429      1.0  0.11854  0.31313  0.98416  1.0000
  H   H511      1.0  0.26455  0.23841  0.96216  1.0000
  C   C430      1.0  0.08194  0.31758  0.90521  1.0000
  H   H512      1.0  0.26752  0.28102  0.93837  1.0000
  C   C431      1.0  0.48957  0.09579  0.79920  1.0000
  H   H513      1.0  0.06836  0.10418  0.74145  1.0000
  C   C432      1.0  0.46761  0.09694  0.77177  1.0000
  H   H514      1.0  0.13097  0.05348  0.75483  1.0000
  H   H515      1.0  0.13221  0.04242  0.81948  1.0000
  S   S122      1.0  0.10548  0.08412  0.81809  1.0000
  H   H516      1.0  0.03112  0.14401  0.76763  1.0000
  C   C433      1.0  0.48331  0.06124  0.77820  1.0000
  C   C434      1.0  0.15191  0.99574  0.80808  1.0000
  H   H517      1.0  0.99692  0.11603  0.86906  1.0000
  C   C435      1.0  0.27243  0.27697  0.95202  1.0000
  H   H518      1.0  0.99912  0.05826  0.75682  1.0000
  C   C436      1.0  0.13964  0.03132  0.81014  1.0000
  N   N30       1.0  0.02991  0.11512  0.76287  1.0000
  Fe  Fe58      1.0  0.07138  0.01156  0.78107  1.0000
  C   C437      1.0  0.44916  0.07338  0.79519  1.0000
  H   H519      1.0  0.03434  0.21077  0.85960  1.0000
  C   C438      1.0  0.15275  0.31101  0.85461  1.0000
  C   C439      1.0  0.13618  0.04158  0.74681  1.0000
  H   H520      1.0  0.09176  0.07871  0.75970  1.0000
  H   H521      1.0  0.04999  0.04365  0.84437  1.0000
  C   C440      1.0  0.46333  0.00674  0.77062  1.0000
  C   C441      1.0  0.17209  0.30985  0.96902  1.0000
  C   C442      1.0  0.10944  0.12115  0.73901  1.0000
  N   N31       1.0  0.06365  0.21052  0.84040  1.0000
  C   C443      1.0  0.07181  0.21918  0.82024  1.0000
  C   C444      1.0  0.06940  0.18786  0.84338  1.0000
  C   C445      1.0  0.04097  0.21620  0.84434  1.0000
  C   C446      1.0  0.07156  0.21885  0.85243  1.0000
  C   C447      1.0  0.08475  0.20643  0.86455  1.0000
  C   C448      1.0  0.06659  0.24020  0.85179  1.0000
  C   C449      1.0  0.09219  0.21494  0.87545  1.0000
  C   C450      1.0  0.07414  0.24852  0.86274  1.0000
  C   C451      1.0  0.08691  0.23591  0.87454  1.0000
  H   H522      1.0  0.08880  0.21659  0.81712  1.0000
  H   H523      1.0  0.06780  0.21202  0.81058  1.0000
  H   H524      1.0  0.06598  0.23593  0.81618  1.0000
  H   H525      1.0  0.08623  0.18242  0.83938  1.0000
  H   H526      1.0  0.06279  0.18207  0.83447  1.0000
  H   H527      1.0  0.06382  0.18030  0.85831  1.0000
  H   H528      1.0  0.03514  0.23297  0.84055  1.0000
  H   H529      1.0  0.03458  0.20930  0.83609  1.0000
  C   C452      1.0  0.04277  0.03068  0.84769  1.0000
  H   H530      1.0  0.08996  0.19015  0.86561  1.0000
  H   H531      1.0  0.05706  0.25066  0.84259  1.0000
  H   H532      1.0  0.10250  0.20524  0.88438  1.0000
  H   H533      1.0  0.07029  0.26487  0.86202  1.0000
  H   H534      1.0  0.09290  0.24246  0.88286  1.0000
  N   N32       1.0  0.18452  0.16516  0.92540  1.0000
  C   C453      1.0  0.16274  0.17489  0.93175  1.0000
  C   C454      1.0  0.18681  0.16131  0.90641  1.0000
  C   C455      1.0  0.18914  0.14511  0.93848  1.0000
  C   C456      1.0  0.19809  0.17826  0.92563  1.0000
  C   C457      1.0  0.21303  0.18504  0.90952  1.0000
  C   C458      1.0  0.19668  0.18459  0.94239  1.0000
  H   H535      1.0  0.48921  0.05332  0.84503  1.0000
  C   C459      1.0  0.03566  0.13541  0.75613  1.0000
  H   H536      1.0  0.15759  0.29846  0.86574  1.0000
  H   H537      1.0  0.15887  0.19051  0.92298  1.0000
  C   C460      1.0  0.00164  0.04145  0.76289  1.0000
  H   H538      1.0  0.15888  0.17648  0.94665  1.0000
  H   H539      1.0  0.18360  0.17590  0.89587  1.0000
  H   H540      1.0  0.17577  0.15227  0.90643  1.0000
  H   H541      1.0  0.20236  0.15262  0.90118  1.0000
  H   H542      1.0  0.18610  0.14667  0.95334  1.0000
  H   H543      1.0  0.17961  0.13460  0.93836  1.0000
  H   H544      1.0  0.20550  0.13753  0.93453  1.0000
  C   C461      1.0  0.01989  0.10496  0.82962  1.0000
  H   H545      1.0  0.18579  0.18005  0.95524  1.0000
  H   H546      1.0  0.01622  0.04893  0.83820  1.0000
  H   H547      1.0  0.28910  0.27745  0.97828  1.0000
  H   H548      1.0  0.18111  0.30564  0.90318  1.0000
  C   C462      1.0  0.15100  0.00732  0.83670  1.0000
  H   H549      1.0  0.18318  0.30964  0.83749  1.0000
  H   H550      1.0  0.14644  0.31207  0.89486  1.0000
  C   C463      1.0  0.18592  0.32018  0.95489  1.0000
  C   C464      1.0  0.01671  0.14144  0.82534  1.0000
  H   H551      1.0  0.13040  0.03520  0.79925  1.0000
  H   H552      1.0  0.11365  0.12039  0.75200  1.0000
  C   C465      1.0  0.02437  0.99723  0.85564  1.0000
  H   H553      1.0  0.13047  0.00716  0.78927  1.0000
  C   C466      1.0  0.13213  0.32062  0.85620  1.0000
  H   H554      1.0  0.23530  0.20414  0.89729  1.0000
  N   N33       1.0  0.25696  0.26845  0.96813  1.0000
  C   C467      1.0  0.45835  0.00844  0.73969  1.0000
  C   C468      1.0  0.47890  0.08005  0.80185  1.0000
  Fe  Fe59      1.0  0.24942  0.32121  0.91048  1.0000
  H   H555      1.0  0.46799  0.99809  0.78352  1.0000
  C   C469      1.0  0.16438  0.22169  0.97957  1.0000
  C   C470      1.0  0.01350  0.01695  0.84808  1.0000
  H   H556      1.0  0.13675  0.31464  0.91887  1.0000
  C   C471      1.0  0.15235  0.32046  0.97683  1.0000
  H   H557      1.0  0.24198  0.29787  0.97446  1.0000
  C   C472      1.0  0.04389  0.99449  0.85892  1.0000
  H   H558      1.0  0.14244  0.01824  0.84599  1.0000
  C   C473      1.0  0.16722  0.31724  0.83861  1.0000
  C   C474      1.0  0.00089  0.10842  0.82507  1.0000
  H   H559      1.0  0.45963  0.09547  0.76138  1.0000
  H   H560      1.0  0.06835  0.00883  0.85715  1.0000
  S   S123      1.0  0.05619  0.99789  0.81022  1.0000
  C   C475      1.0  0.00766  0.11852  0.77151  1.0000
  C   C476      1.0  0.14433  0.99650  0.79219  1.0000
  H   H561      1.0  0.15631  0.20942  0.98675  1.0000
  C   C477      1.0  0.99552  0.02843  0.82261  1.0000
  C   C478      1.0  0.02133  0.09858  0.74052  1.0000
  H   H562      1.0  0.49107  0.10764  0.78647  1.0000
  H   H563      1.0  0.09663  0.32090  0.83675  1.0000
  H   H564      1.0  0.05246  0.13420  0.75096  1.0000
  H   H565      1.0  0.16676  0.01030  0.83134  1.0000
  H   H566      1.0  0.48400  0.04618  0.78844  1.0000
  H   H567      1.0  0.00377  0.12674  0.78318  1.0000
  H   H568      1.0  0.34480  0.32397  0.93892  1.0000
  C   C479      1.0  0.05654  0.10007  0.73736  1.0000
  H   H569      1.0  0.46873  0.59238  0.10811  1.0000
  C   C480      1.0  0.01444  0.64974  0.21635  1.0000
  H   H570      1.0  0.44799  0.47374  0.15632  1.0000
  Fe  Fe60      1.0  0.41572  0.59396  0.17495  1.0000
  S   S124      1.0  0.43320  0.60872  0.14712  1.0000
  S   S125      1.0  0.40086  0.60935  0.19909  1.0000
  Fe  Fe61      1.0  0.42135  0.55403  0.16389  1.0000
  S   S126      1.0  0.43875  0.56522  0.13470  1.0000
  S   S127      1.0  0.41721  0.52162  0.17602  1.0000
  Fe  Fe62      1.0  0.45504  0.57831  0.14894  1.0000
  Fe  Fe63      1.0  0.41548  0.59468  0.13511  1.0000
  S   S128      1.0  0.40160  0.61058  0.10977  1.0000
  S   S129      1.0  0.43938  0.56491  0.17813  1.0000
  S   S130      1.0  0.39627  0.58210  0.16303  1.0000
  Fe  Fe64      1.0  0.12139  0.39579  0.03917  1.0000
  S   S131      1.0  0.09800  0.39367  0.06645  1.0000
  S   S132      1.0  0.12301  0.37956  0.01671  1.0000
  Fe  Fe65      1.0  0.14777  0.41358  0.05360  1.0000
  S   S133      1.0  0.12750  0.41159  0.08271  1.0000
  S   S134      1.0  0.17814  0.42246  0.04248  1.0000
  Fe  Fe66      1.0  0.10237  0.42439  0.06655  1.0000
  S   S135      1.0  0.07400  0.44782  0.07475  1.0000
  S   S136      1.0  0.12294  0.42805  0.03750  1.0000
  Fe  Fe67      1.0  0.37766  0.41959  0.11817  1.0000
  S   S137      1.0  0.39987  0.39565  0.13376  1.0000
  S   S138      1.0  0.35605  0.41669  0.10160  1.0000
  Fe  Fe68      1.0  0.39083  0.45508  0.12533  1.0000
  S   S139      1.0  0.41428  0.43433  0.14078  1.0000
  S   S140      1.0  0.38656  0.48927  0.12033  1.0000
  Fe  Fe69      1.0  0.42215  0.41621  0.11848  1.0000
  Fe  Fe70      1.0  0.39027  0.41571  0.15494  1.0000
  S   S141      1.0  0.38261  0.40467  0.18666  1.0000
  S   S142      1.0  0.40075  0.43881  0.10147  1.0000
  S   S143      1.0  0.36597  0.43788  0.14084  1.0000
  N   N34       1.0  0.04736  0.43528  0.02990  1.0000
  H   H571      1.0  0.44832  0.45321  0.14628  1.0000
  H   H572      1.0  0.11597  0.35525  0.06511  1.0000
  S   S144      1.0  0.01857  0.48344  0.21222  1.0000
  H   H573      1.0  0.47761  0.60419  0.16075  1.0000
  H   H574      1.0  0.42620  0.53289  0.21129  1.0000
  Fe  Fe71      1.0  0.05700  0.51105  0.14693  1.0000
  S   S145      1.0  0.02857  0.49827  0.15668  1.0000
  S   S146      1.0  0.08595  0.49634  0.12928  1.0000
  Fe  Fe72      1.0  0.03828  0.54624  0.16668  1.0000
  H   H575      1.0  0.41789  0.51803  0.23450  1.0000
  S   S147      1.0  0.04060  0.57578  0.17172  1.0000
  Fe  Fe73      1.0  0.02668  0.50512  0.18446  1.0000
  H   H576      1.0  0.07080  0.43195  0.04502  1.0000
  H   H577      1.0  0.32238  0.38360  0.07274  1.0000
  H   H578      1.0  0.99791  0.64898  0.13523  1.0000
  S   S148      1.0  0.05675  0.51494  0.17561  1.0000
  S   S149      1.0  0.04105  0.54332  0.13713  1.0000
  H   H579      1.0  0.17122  0.40123  0.08154  1.0000
  H   H580      1.0  0.36384  0.44702  0.19048  1.0000
  S   S150      1.0  0.45511  0.40586  0.10429  1.0000
  C   C481      1.0  0.06132  0.37755  0.04758  1.0000
  H   H581      1.0  0.35094  0.47687  0.16694  1.0000
  H   H582      1.0  0.15280  0.41601  0.99578  1.0000
  C   C482      1.0  0.40838  0.64817  0.10893  1.0000
  C   C483      1.0  0.04385  0.59163  0.19980  1.0000
  C   C484      1.0  0.05012  0.57476  0.19134  1.0000
  C   C485      1.0  0.06391  0.55757  0.19851  1.0000
  H   H583      1.0  0.25522  0.37231  0.14291  1.0000
  H   H584      1.0  0.01072  0.61100  0.16102  1.0000
  H   H585      1.0  0.03317  0.60489  0.19426  1.0000
  H   H586      1.0  0.06913  0.54465  0.19181  1.0000
  Fe  Fe74      1.0  0.12497  0.38107  0.07994  1.0000
  H   H587      1.0  0.38280  0.63896  0.08074  1.0000
  H   H588      1.0  0.36076  0.51836  0.22489  1.0000
  N   N35       1.0  0.41554  0.39326  0.06715  1.0000
  C   C486      1.0  0.36911  0.64549  0.15798  1.0000
  H   H589      1.0  0.02936  0.64549  0.21973  1.0000
  H   H590      1.0  0.44273  0.64341  0.19634  1.0000
  H   H591      1.0  0.47375  0.39302  0.21452  1.0000
  C   C487      1.0  0.38640  0.39316  0.05274  1.0000
  H   H592      1.0  0.11248  0.42324  0.00285  1.0000
  H   H593      1.0  0.03892  0.46497  0.01197  1.0000
  C   C488      1.0  0.40313  0.38260  0.06149  1.0000
  C   C489      1.0  0.35662  0.35814  0.10024  1.0000
  H   H594      1.0  0.25255  0.35244  0.00501  1.0000
  C   C490      1.0  0.35128  0.39487  0.09711  1.0000
  C   C491      1.0  0.33719  0.39780  0.08586  1.0000
  C   C492      1.0  0.43742  0.38748  0.05794  1.0000
  H   H595      1.0  0.32963  0.41317  0.08021  1.0000
  C   C493      1.0  0.40753  0.36090  0.06490  1.0000
  C   C494      1.0  0.07742  0.46258  0.08879  1.0000
  C   C495      1.0  0.06041  0.47473  0.09838  1.0000
  C   C496      1.0  0.06292  0.48559  0.11050  1.0000
  C   C497      1.0  0.08245  0.48428  0.11308  1.0000
  C   C498      1.0  0.09944  0.47252  0.10316  1.0000
  C   C499      1.0  0.09695  0.46180  0.09097  1.0000
  H   H596      1.0  0.04528  0.47555  0.09662  1.0000
  H   H597      1.0  0.04975  0.49495  0.11783  1.0000
  H   H598      1.0  0.11459  0.47162  0.10495  1.0000
  H   H599      1.0  0.11022  0.45305  0.08319  1.0000
  C   C500      1.0  0.19496  0.40684  0.05665  1.0000
  C   C501      1.0  0.22933  0.38878  0.05979  1.0000
  C   C502      1.0  0.21597  0.40259  0.04892  1.0000
  H   H600      1.0  0.24550  0.38528  0.05363  1.0000
  H   H601      1.0  0.22186  0.40959  0.03438  1.0000
  C   C503      1.0  0.38954  0.64740  0.08666  1.0000
  H   H602      1.0  0.43697  0.47803  0.11849  1.0000
  C   C504      1.0  0.10602  0.41582  0.99573  1.0000
  H   H603      1.0  0.08714  0.45213  0.16259  1.0000
  H   H604      1.0  0.01651  0.43517  0.04581  1.0000
  C   C505      1.0  0.39212  0.40882  0.21820  1.0000
  C   C506      1.0  0.39877  0.40904  0.19882  1.0000
  C   C507      1.0  0.41817  0.41282  0.18941  1.0000
  C   C508      1.0  0.35328  0.65503  0.13106  1.0000
  H   H605      1.0  0.42380  0.41217  0.17474  1.0000
  C   C509      1.0  0.40766  0.51293  0.16107  1.0000
  C   C510      1.0  0.40119  0.52639  0.14526  1.0000
  C   C511      1.0  0.39429  0.51908  0.13304  1.0000
  C   C512      1.0  0.39399  0.49828  0.13650  1.0000
  C   C513      1.0  0.40030  0.48492  0.15244  1.0000
  C   C514      1.0  0.40708  0.49223  0.16471  1.0000
  H   H606      1.0  0.40155  0.54243  0.14236  1.0000
  H   H607      1.0  0.38942  0.52951  0.12073  1.0000
  H   H608      1.0  0.39957  0.46902  0.15558  1.0000
  H   H609      1.0  0.41191  0.48173  0.17696  1.0000
  C   C515      1.0  0.41826  0.60355  0.21353  1.0000
  C   C516      1.0  0.43926  0.60020  0.20566  1.0000
  C   C517      1.0  0.45319  0.59604  0.21721  1.0000
  C   C518      1.0  0.04176  0.44840  0.01208  1.0000
  C   C519      1.0  0.45765  0.46389  0.14648  1.0000
  N   N36       1.0  0.46471  0.47595  0.12728  1.0000
  H   H610      1.0  0.44472  0.60142  0.19058  1.0000
  H   H611      1.0  0.46733  0.40686  0.16449  1.0000
  C   C520      1.0  0.33290  0.38105  0.08174  1.0000
  C   C521      1.0  0.05150  0.41308  0.03053  1.0000
  C   C522      1.0  0.09254  0.39580  0.13378  1.0000
  C   C523      1.0  0.36324  0.46236  0.19174  1.0000
  H   H612      1.0  0.03514  0.59034  0.12901  1.0000
  C   C524      1.0  0.39965  0.63717  0.10142  1.0000
  H   H613      1.0  0.17326  0.41731  0.00511  1.0000
  H   H614      1.0  0.43653  0.49872  0.12821  1.0000
  C   C525      1.0  0.20486  0.38282  0.00937  1.0000
  C   C526      1.0  0.46148  0.63978  0.07787  1.0000
  H   H615      1.0  0.07887  0.43768  0.01992  1.0000
  H   H616      1.0  0.16806  0.37150  0.99115  1.0000
  C   C527      1.0  0.47545  0.54183  0.20569  1.0000
  H   H617      1.0  0.36214  0.39082  0.04126  1.0000
  C   C528      1.0  0.35581  0.47915  0.17856  1.0000
  H   H618      1.0  0.05729  0.40344  0.05900  1.0000
  S   S151      1.0  0.33813  0.33963  0.08354  1.0000
  C   C529      1.0  0.47697  0.48986  0.12838  1.0000
  H   H619      1.0  0.40100  0.45967  0.22455  1.0000
  C   C530      1.0  0.39604  0.35047  0.05973  1.0000
  C   C531      1.0  0.46794  0.50532  0.13895  1.0000
  C   C532      1.0  0.11985  0.33927  0.07113  1.0000
  C   C533      1.0  0.49411  0.60026  0.15658  1.0000
  C   C534      1.0  0.01224  0.64699  0.19935  1.0000
  H   H620      1.0  0.47047  0.55412  0.21315  1.0000
  C   C535      1.0  0.43120  0.51948  0.22232  1.0000
  C   C536      1.0  0.37517  0.38255  0.04746  1.0000
  C   C537      1.0  0.05086  0.59120  0.21571  1.0000
  C   C538      1.0  0.05659  0.39858  0.04681  1.0000
  C   C539      1.0  0.36092  0.37491  0.10439  1.0000
  C   C540      1.0  0.06450  0.57395  0.22298  1.0000
  C   C541      1.0  0.05498  0.38407  0.01641  1.0000
  H   H621      1.0  0.45210  0.50720  0.14639  1.0000
  H   H622      1.0  0.37066  0.35311  0.04752  1.0000
  H   H623      1.0  0.44500  0.60879  0.10390  1.0000
  H   H624      1.0  0.48696  0.41334  0.20175  1.0000
  C   C542      1.0  0.44667  0.48801  0.11942  1.0000
  H   H625      1.0  0.24374  0.37613  0.12321  1.0000
  H   H626      1.0  0.36984  0.62472  0.14125  1.0000
  C   C543      1.0  0.10922  0.39449  0.99977  1.0000
  C   C544      1.0  0.99740  0.65844  0.22869  1.0000
  Fe  Fe75      1.0  0.26781  0.35183  0.07241  1.0000
  C   C545      1.0  0.16696  0.40678  0.00054  1.0000
  H   H627      1.0  0.44703  0.39581  0.06148  1.0000
  C   C546      1.0  0.39906  0.47640  0.22308  1.0000
  Fe  Fe76      1.0  0.31348  0.34164  0.06809  1.0000
  H   H628      1.0  0.04562  0.60419  0.22233  1.0000
  C   C547      1.0  0.18704  0.34584  0.07609  1.0000
  S   S152      1.0  0.12835  0.35033  0.09989  1.0000
  H   H629      1.0  0.19418  0.39051  0.01992  1.0000
  H   H630      1.0  0.47658  0.65241  0.18911  1.0000
  C   C548      1.0  0.34264  0.36112  0.08886  1.0000
  H   H631      1.0  0.43441  0.50567  0.21644  1.0000
  H   H632      1.0  0.40508  0.47811  0.23469  1.0000
  C   C549      1.0  0.48818  0.39651  0.20479  1.0000
  Fe  Fe77      1.0  0.01250  0.53097  0.14922  1.0000
  C   C550      1.0  0.40940  0.41592  0.06201  1.0000
  H   H633      1.0  0.37589  0.45165  0.21615  1.0000
  C   C551      1.0  0.37016  0.48503  0.20811  1.0000
  C   C552      1.0  0.36250  0.50187  0.19438  1.0000
  C   C553      1.0  0.37025  0.46519  0.20633  1.0000
  C   C554      1.0  0.35542  0.49885  0.17989  1.0000
  H   H634      1.0  0.22686  0.33774  0.05951  1.0000
  H   H635      1.0  0.39733  0.39163  0.09532  1.0000
  H   H636      1.0  0.38644  0.51644  0.21043  1.0000
  H   H637      1.0  0.05461  0.37840  0.00449  1.0000
  C   C555      1.0  0.47913  0.51870  0.14015  1.0000
  H   H638      1.0  0.41907  0.64600  0.22649  1.0000
  H   H639      1.0  0.42280  0.39487  0.09265  1.0000
  C   C556      1.0  0.47404  0.50957  0.20019  1.0000
  C   C557      1.0  0.01337  0.63983  0.13037  1.0000
  H   H640      1.0  0.39922  0.33388  0.06295  1.0000
  H   H641      1.0  0.37720  0.40567  0.22560  1.0000
  H   H642      1.0  0.36232  0.51750  0.19416  1.0000
  H   H643      1.0  0.38128  0.40957  0.05026  1.0000
  H   H644      1.0  0.35029  0.51180  0.16917  1.0000
  H   H645      1.0  0.35074  0.64990  0.11978  1.0000
  H   H646      1.0  0.08212  0.42059  0.11203  1.0000
  C   C558      1.0  0.46971  0.62974  0.10891  1.0000
  H   H647      1.0  0.38229  0.51045  0.23566  1.0000
  H   H648      1.0  0.45133  0.49735  0.10501  1.0000
  H   H649      1.0  0.16206  0.39489  0.01304  1.0000
  H   H650      1.0  0.36421  0.34276  0.10582  1.0000
  H   H651      1.0  0.40912  0.48221  0.20940  1.0000
  C   C559      1.0  0.00071  0.61721  0.11791  1.0000
  C   C560      1.0  0.48980  0.51203  0.18409  1.0000
  H   H652      1.0  0.41964  0.35179  0.07192  1.0000
  C   C561      1.0  0.03399  0.60708  0.12636  1.0000
  S   S153      1.0  0.23803  0.36139  0.09182  1.0000
  H   H653      1.0  0.02590  0.45720  0.04512  1.0000
  H   H654      1.0  0.10042  0.38564  0.12417  1.0000
  H   H655      1.0  0.02263  0.64028  0.14014  1.0000
  H   H656      1.0  0.08181  0.54388  0.21979  1.0000
  S   S154      1.0  0.29596  0.37917  0.00396  1.0000
  H   H657      1.0  0.06310  0.45719  0.03210  1.0000
  H   H658      1.0  0.01269  0.52469  0.21896  1.0000
  C   C562      1.0  0.46158  0.60467  0.09744  1.0000
  C   C563      1.0  0.05067  0.40516  0.01532  1.0000
  H   H659      1.0  0.18553  0.33100  0.00091  1.0000
  H   H660      1.0  0.19074  0.35975  0.06543  1.0000
  C   C564      1.0  0.29702  0.34293  0.99579  1.0000
  C   C565      1.0  0.47413  0.40720  0.14971  1.0000
  S   S155      1.0  0.48927  0.57233  0.13906  1.0000
  Fe  Fe78      1.0  0.29502  0.35992  0.03336  1.0000
  C   C566      1.0  0.44611  0.59473  0.23666  1.0000
  H   H661      1.0  0.37149  0.37236  0.11336  1.0000
  C   C567      1.0  0.37996  0.36128  0.05095  1.0000
  C   C568      1.0  0.22170  0.37962  0.07853  1.0000
  S   S156      1.0  0.14796  0.38183  0.05274  1.0000
  H   H662      1.0  0.41064  0.42162  0.04652  1.0000
  C   C569      1.0  0.07117  0.55721  0.21425  1.0000
  H   H663      1.0  0.03439  0.43337  0.05979  1.0000
  H   H664      1.0  0.37794  0.63399  0.16734  1.0000
  S   S157      1.0  0.26884  0.34399  0.04538  1.0000
  H   H665      1.0  0.02763  0.44553  0.01000  1.0000
  S   S158      1.0  0.31907  0.33202  0.04053  1.0000
  S   S159      1.0  0.29156  0.37096  0.05963  1.0000
  H   H666      1.0  0.44389  0.37096  0.06260  1.0000
  C   C570      1.0  0.46283  0.40437  0.13826  1.0000
  C   C571      1.0  0.47095  0.40570  0.11896  1.0000
  H   H667      1.0  0.43954  0.39099  0.04229  1.0000
  C   C572      1.0  0.44711  0.64860  0.20669  1.0000
  C   C573      1.0  0.03027  0.44042  0.04582  1.0000
  H   H668      1.0  0.44770  0.40127  0.14439  1.0000
  C   C574      1.0  0.42395  0.41680  0.21840  1.0000
  H   H669      1.0  0.46941  0.59411  0.21101  1.0000
  N   N37       1.0  0.27399  0.38253  0.11578  1.0000
  C   C575      1.0  0.27104  0.39625  0.09735  1.0000
  C   C576      1.0  0.28295  0.36154  0.11247  1.0000
  C   C577      1.0  0.25368  0.38218  0.12878  1.0000
  C   C578      1.0  0.28682  0.39018  0.12393  1.0000
  C   C579      1.0  0.30509  0.37792  0.12941  1.0000
  C   C580      1.0  0.28108  0.41053  0.12669  1.0000
  C   C581      1.0  0.31694  0.38581  0.13680  1.0000
  C   C582      1.0  0.29327  0.41834  0.13378  1.0000
  C   C583      1.0  0.31123  0.40603  0.13871  1.0000
  H   H670      1.0  0.28601  0.39790  0.08752  1.0000
  H   H671      1.0  0.26233  0.39033  0.09037  1.0000
  H   H672      1.0  0.26214  0.41180  0.09871  1.0000
  H   H673      1.0  0.29815  0.36076  0.10252  1.0000
  H   H674      1.0  0.46783  0.49599  0.20365  1.0000
  H   H675      1.0  0.06587  0.36682  0.05994  1.0000
  H   H676      1.0  0.24523  0.39769  0.13085  1.0000
  C   C584      1.0  0.23818  0.36108  0.00134  1.0000
  C   C585      1.0  0.06056  0.37031  0.03238  1.0000
  H   H677      1.0  0.31093  0.36236  0.12768  1.0000
  H   H678      1.0  0.26726  0.42066  0.12313  1.0000
  H   H679      1.0  0.33110  0.37640  0.14042  1.0000
  H   H680      1.0  0.28895  0.43411  0.13522  1.0000
  H   H681      1.0  0.32098  0.41227  0.14369  1.0000
  N   N38       1.0  0.37750  0.48753  0.22385  1.0000
  N   N39       1.0  0.47116  0.62279  0.09155  1.0000
  H   H682      1.0  0.10091  0.37390  0.15809  1.0000
  H   H683      1.0  0.49481  0.61081  0.06983  1.0000
  H   H684      1.0  0.47189  0.53043  0.14825  1.0000
  H   H685      1.0  0.14943  0.58936  0.23042  1.0000
  C   C586      1.0  0.41351  0.38725  0.08790  1.0000
  C   C587      1.0  0.44629  0.63785  0.06948  1.0000
  N   N40       1.0  0.44908  0.52180  0.22809  1.0000
  C   C588      1.0  0.47615  0.46122  0.11512  1.0000
  H   H686      1.0  0.43641  0.55380  0.22807  1.0000
  H   H687      1.0  0.27315  0.35633  0.10609  1.0000
  H   H688      1.0  0.04135  0.61247  0.11133  1.0000
  H   H689      1.0  0.04339  0.60877  0.13545  1.0000
  C   C589      1.0  0.49304  0.61606  0.08298  1.0000
  C   C590      1.0  0.43067  0.41680  0.19914  1.0000
  H   H690      1.0  0.04716  0.41486  0.00222  1.0000
  N   N41       1.0  0.06165  0.43701  0.17144  1.0000
  C   C591      1.0  0.06362  0.42865  0.19138  1.0000
  C   C592      1.0  0.07020  0.45577  0.16449  1.0000
  C   C593      1.0  0.03950  0.44276  0.17141  1.0000
  C   C594      1.0  0.07223  0.42257  0.15883  1.0000
  C   C595      1.0  0.08283  0.40233  0.16537  1.0000
  C   C596      1.0  0.07220  0.42866  0.13924  1.0000
  C   C597      1.0  0.09281  0.38924  0.15293  1.0000
  C   C598      1.0  0.08223  0.41546  0.12697  1.0000
  H   H691      1.0  0.00831  0.58385  0.12289  1.0000
  H   H692      1.0  0.07992  0.42466  0.19250  1.0000
  H   H693      1.0  0.05551  0.44004  0.20035  1.0000
  H   H694      1.0  0.05670  0.41495  0.19785  1.0000
  H   H695      1.0  0.22627  0.37066  0.02768  1.0000
  H   H696      1.0  0.47937  0.64100  0.10644  1.0000
  H   H697      1.0  0.06678  0.46451  0.15063  1.0000
  H   H698      1.0  0.03094  0.45326  0.18114  1.0000
  H   H699      1.0  0.03656  0.45093  0.15718  1.0000
  H   H700      1.0  0.03259  0.42902  0.17593  1.0000
  H   H701      1.0  0.08375  0.39627  0.17997  1.0000
  H   H702      1.0  0.06456  0.44380  0.13318  1.0000
  H   H703      1.0  0.17024  0.34717  0.07923  1.0000
  H   H704      1.0  0.00396  0.59274  0.15268  1.0000
  C   C599      1.0  0.40466  0.41278  0.22799  1.0000
  H   H705      1.0  0.30085  0.33570  0.00935  1.0000
  H   H706      1.0  0.02549  0.64074  0.18957  1.0000
  H   H707      1.0  0.41863  0.37055  0.09305  1.0000
  H   H708      1.0  0.06373  0.46652  0.17423  1.0000
  H   H709      1.0  0.39342  0.42147  0.06949  1.0000
  S   S160      1.0  0.44013  0.42177  0.23006  1.0000
  H   H710      1.0  0.44561  0.41981  0.19172  1.0000
  H   H711      1.0  0.19490  0.37752  0.10103  1.0000
  N   N42       1.0  0.19869  0.32698  0.06935  1.0000
  C   C600      1.0  0.46617  0.52453  0.21139  1.0000
  C   C601      1.0  0.20081  0.38448  0.08649  1.0000
  C   C602      1.0  0.46616  0.65364  0.20260  1.0000
  C   C603      1.0  0.18740  0.39785  0.07546  1.0000
  H   H712      1.0  0.28459  0.35008  0.12584  1.0000
  C   C604      1.0  0.36445  0.64027  0.14334  1.0000
  C   C605      1.0  0.06578  0.44075  0.03179  1.0000
  H   H713      1.0  0.48847  0.39252  0.19139  1.0000
  H   H714      1.0  0.41584  0.64058  0.12049  1.0000
  H   H715      1.0  0.41927  0.42346  0.06612  1.0000
  H   H716      1.0  0.46655  0.45084  0.11480  1.0000
  C   C606      1.0  0.22333  0.37135  0.01410  1.0000
  H   H717      1.0  0.03408  0.53591  0.21566  1.0000
  H   H718      1.0  0.02023  0.64767  0.11594  1.0000
  H   H719      1.0  0.06446  0.35402  0.03293  1.0000
  C   C607      1.0  0.37668  0.50918  0.22361  1.0000
  C   C608      1.0  0.43367  0.65008  0.22409  1.0000
  H   H720      1.0  0.47551  0.44067  0.22666  1.0000
  S   S161      1.0  0.00805  0.53683  0.17797  1.0000
  H   H721      1.0  0.47085  0.45448  0.15276  1.0000
  H   H722      1.0  0.01057  0.56867  0.06031  1.0000
  N   N43       1.0  0.01255  0.61852  0.13097  1.0000
  C   C609      1.0  0.43720  0.65437  0.05693  1.0000
  C   C610      1.0  0.00469  0.57866  0.23583  1.0000
  H   H723      1.0  0.46331  0.59762  0.08537  1.0000
  H   H724      1.0  0.05427  0.44580  0.99952  1.0000
  H   H725      1.0  0.45367  0.63703  0.11461  1.0000
  H   H726      1.0  0.44062  0.62397  0.07277  1.0000
  H   H727      1.0  0.49237  0.35977  0.22841  1.0000
  C   C611      1.0  0.41121  0.60208  0.23299  1.0000
  C   C612      1.0  0.00300  0.60938  0.15054  1.0000
  H   H728      1.0  0.11536  0.61478  0.23360  1.0000
  C   C613      1.0  0.48775  0.44854  0.22456  1.0000
  H   H729      1.0  0.19043  0.34628  0.08954  1.0000
  H   H730      1.0  0.47498  0.61683  0.12024  1.0000
  H   H731      1.0  0.10339  0.36843  0.99361  1.0000
  C   C614      1.0  0.49116  0.40835  0.11139  1.0000
  H   H732      1.0  0.99860  0.61165  0.22954  1.0000
  C   C615      1.0  0.20084  0.38447  0.99143  1.0000
  H   H733      1.0  0.48139  0.46916  0.10025  1.0000
  C   C616      1.0  0.99586  0.59819  0.22683  1.0000
  H   H734      1.0  0.45903  0.48897  0.23660  1.0000
  H   H735      1.0  0.00624  0.53887  0.08695  1.0000
  C   C617      1.0  0.49115  0.54414  0.18950  1.0000
  H   H736      1.0  0.48964  0.45124  0.12052  1.0000
  H   H737      1.0  0.42520  0.65277  0.05115  1.0000
  H   H738      1.0  0.49448  0.45338  0.19429  1.0000
  C   C618      1.0  0.00015  0.59789  0.11541  1.0000
  C   C619      1.0  0.02278  0.52777  0.22649  1.0000
  H   H739      1.0  0.12529  0.33560  0.00561  1.0000
  H   H740      1.0  0.49523  0.50067  0.17546  1.0000
  C   C620      1.0  0.29345  0.36421  0.98971  1.0000
  C   C621      1.0  0.49383  0.41099  0.14207  1.0000
  H   H741      1.0  0.16225  0.33519  0.05855  1.0000
  H   H742      1.0  0.15634  0.33831  0.02757  1.0000
  C   C622      1.0  0.17545  0.33266  0.04727  1.0000
  C   C623      1.0  0.12654  0.33245  0.08811  1.0000
  C   C624      1.0  0.17192  0.33411  0.02954  1.0000
  H   H743      1.0  0.11284  0.33096  0.04858  1.0000
  H   H744      1.0  0.03115  0.51243  0.23275  1.0000
  C   C625      1.0  0.00211  0.56079  0.23182  1.0000
  C   C626      1.0  0.19552  0.32802  0.05044  1.0000
  C   C627      1.0  0.99538  0.56576  0.06700  1.0000
  C   C628      1.0  0.18829  0.33011  0.01460  1.0000
  C   C629      1.0  0.10137  0.38488  0.99019  1.0000
  C   C630      1.0  0.46728  0.65902  0.07247  1.0000
  Fe  Fe79      1.0  0.46920  0.57890  0.31590  1.0000
  S   S162      1.0  0.43882  0.57920  0.33651  1.0000
  C   C631      1.0  0.13040  0.63098  0.44480  1.0000
  Fe  Fe80      1.0  0.45074  0.58759  0.28170  1.0000
  S   S163      1.0  0.41873  0.58844  0.29888  1.0000
  C   C632      1.0  0.14240  0.57997  0.24399  1.0000
  Fe  Fe81      1.0  0.42715  0.60656  0.31506  1.0000
  S   S164      1.0  0.40481  0.63618  0.31893  1.0000
  Fe  Fe82      1.0  0.43268  0.56132  0.31877  1.0000
  S   S165      1.0  0.42258  0.53154  0.33097  1.0000
  S   S166      1.0  0.45830  0.60785  0.29603  1.0000
  S   S167      1.0  0.46377  0.55882  0.30010  1.0000
  H   H745      1.0  0.45430  0.54142  0.24338  1.0000
  H   H746      1.0  0.99819  0.47747  0.25146  1.0000
  H   H747      1.0  0.48961  0.50319  0.30727  1.0000
  C   C633      1.0  0.48605  0.47188  0.28475  1.0000
  C   C634      1.0  0.13179  0.62484  0.46377  1.0000
  H   H748      1.0  0.37214  0.35758  0.36969  1.0000
  H   H749      1.0  0.40856  0.63459  0.25748  1.0000
  H   H750      1.0  0.48248  0.61024  0.32366  1.0000
  H   H751      1.0  0.21693  0.62033  0.44246  1.0000
  C   C635      1.0  0.33345  0.33802  0.30558  1.0000
  H   H752      1.0  0.47911  0.48743  0.27894  1.0000
  H   H753      1.0  0.47195  0.48635  0.31751  1.0000
  C   C636      1.0  0.33223  0.37500  0.29487  1.0000
  Fe  Fe83      1.0  0.39753  0.41885  0.29827  1.0000
  S   S168      1.0  0.39451  0.44104  0.27054  1.0000
  S   S169      1.0  0.36883  0.40740  0.31559  1.0000
  Fe  Fe84      1.0  0.44035  0.42473  0.29484  1.0000
  S   S170      1.0  0.44051  0.44684  0.26708  1.0000
  S   S171      1.0  0.46892  0.41719  0.30620  1.0000
  Fe  Fe85      1.0  0.40875  0.46060  0.28012  1.0000
  S   S172      1.0  0.40078  0.49508  0.27259  1.0000
  Fe  Fe86      1.0  0.42657  0.42545  0.25986  1.0000
  H   H754      1.0  0.00365  0.52474  0.35029  1.0000
  S   S173      1.0  0.40923  0.43992  0.30879  1.0000
  S   S174      1.0  0.42894  0.40163  0.28668  1.0000
  Fe  Fe87      1.0  0.06349  0.62981  0.27549  1.0000
  H   H755      1.0  0.36596  0.46228  0.24428  1.0000
  H   H756      1.0  0.39495  0.60436  0.23908  1.0000
  S   S175      1.0  0.03029  0.63932  0.28841  1.0000
  S   S176      1.0  0.02264  0.60518  0.26933  1.0000
  C   C637      1.0  0.38861  0.63740  0.34134  1.0000
  Fe  Fe88      1.0  0.03020  0.60592  0.29608  1.0000
  C   C638      1.0  0.49291  0.45141  0.24008  1.0000
  S   S177      1.0  0.06396  0.59622  0.28595  1.0000
  H   H757      1.0  0.49078  0.55111  0.25963  1.0000
  H   H758      1.0  0.18834  0.62816  0.41425  1.0000
  S   S178      1.0  0.01070  0.59232  0.32313  1.0000
  C   C639      1.0  0.21293  0.63404  0.36754  1.0000
  S   S179      1.0  0.05854  0.63142  0.24684  1.0000
  H   H759      1.0  0.15123  0.60066  0.26504  1.0000
  S   S180      1.0  0.14422  0.61530  0.42900  1.0000
  C   C640      1.0  0.08640  0.62111  0.31313  1.0000
  C   C641      1.0  0.34233  0.34440  0.39671  1.0000
  H   H760      1.0  0.47638  0.39617  0.27337  1.0000
  H   H761      1.0  0.38125  0.61131  0.38726  1.0000
  H   H762      1.0  0.29815  0.33744  0.33304  1.0000
  N   N44       1.0  0.12756  0.59294  0.25651  1.0000
  C   C642      1.0  0.46434  0.48999  0.35277  1.0000
  H   H763      1.0  0.34823  0.48642  0.24290  1.0000
  H   H764      1.0  0.39947  0.41252  0.24293  1.0000
  H   H765      1.0  0.44689  0.65143  0.27326  1.0000
  S   S181      1.0  0.07280  0.57265  0.24336  1.0000
  C   C643      1.0  0.24223  0.63645  0.37776  1.0000
  C   C644      1.0  0.32230  0.35858  0.30262  1.0000
  H   H766      1.0  0.03431  0.56089  0.30322  1.0000
  H   H767      1.0  0.08587  0.60250  0.34124  1.0000
  C   C645      1.0  0.48310  0.43660  0.29877  1.0000
  H   H768      1.0  0.45841  0.46073  0.29038  1.0000
  H   H769      1.0  0.30580  0.36213  0.30658  1.0000
  C   C646      1.0  0.09285  0.61388  0.33026  1.0000
  C   C647      1.0  0.11079  0.64325  0.30187  1.0000
  S   S182      1.0  0.26096  0.62543  0.39107  1.0000
  H   H770      1.0  0.11786  0.65452  0.29084  1.0000
  H   H771      1.0  0.39686  0.33796  0.41363  1.0000
  H   H772      1.0  0.14391  0.61759  0.24418  1.0000
  H   H773      1.0  0.33038  0.35489  0.42833  1.0000
  H   H774      1.0  0.48778  0.62238  0.24476  1.0000
  N   N45       1.0  0.01126  0.53984  0.24098  1.0000
  H   H775      1.0  0.13509  0.56982  0.24005  1.0000
  Fe  Fe89      1.0  0.14112  0.63304  0.39981  1.0000
  S   S183      1.0  0.15881  0.62200  0.37356  1.0000
  H   H776      1.0  0.38837  0.35809  0.38417  1.0000
  S   S184      1.0  0.08759  0.64487  0.27737  1.0000
  C   C648      1.0  0.22888  0.62487  0.37712  1.0000
  H   H777      1.0  0.36116  0.38427  0.28417  1.0000
  C   C649      1.0  0.48937  0.39170  0.24492  1.0000
  C   C650      1.0  0.38481  0.36571  0.32349  1.0000
  C   C651      1.0  0.36762  0.38152  0.32574  1.0000
  C   C652      1.0  0.34870  0.37673  0.33603  1.0000
  C   C653      1.0  0.34687  0.35629  0.34381  1.0000
  H   H778      1.0  0.47580  0.38728  0.24441  1.0000
  H   H779      1.0  0.39944  0.36923  0.31557  1.0000
  H   H780      1.0  0.33532  0.38892  0.33772  1.0000
  H   H781      1.0  0.33213  0.35282  0.35136  1.0000
  Fe  Fe90      1.0  0.12878  0.63304  0.36451  1.0000
  C   C654      1.0  0.18642  0.59246  0.47430  1.0000
  H   H782      1.0  0.23021  0.63746  0.47810  1.0000
  H   H783      1.0  0.09867  0.61386  0.25649  1.0000
  C   C655      1.0  0.48952  0.39670  0.26161  1.0000
  C   C656      1.0  0.02555  0.53933  0.25263  1.0000
  C   C657      1.0  0.01328  0.54253  0.30433  1.0000
  C   C658      1.0  0.37852  0.62317  0.37492  1.0000
  C   C659      1.0  0.21758  0.63165  0.42878  1.0000
  H   H784      1.0  0.40474  0.60927  0.35609  1.0000
  Fe  Fe91      1.0  0.05650  0.59842  0.25825  1.0000
  C   C660      1.0  0.09542  0.63574  0.29889  1.0000
  C   C661      1.0  0.36510  0.34894  0.45403  1.0000
  C   C662      1.0  0.41741  0.52183  0.31401  1.0000
  C   C663      1.0  0.40851  0.53487  0.29928  1.0000
  C   C664      1.0  0.40337  0.52665  0.28655  1.0000
  C   C665      1.0  0.40762  0.50543  0.28825  1.0000
  C   C666      1.0  0.41731  0.49255  0.30249  1.0000
  C   C667      1.0  0.42185  0.50068  0.31553  1.0000
  H   H785      1.0  0.40485  0.55123  0.29813  1.0000
  H   H786      1.0  0.39579  0.53672  0.27562  1.0000
  H   H787      1.0  0.42111  0.47626  0.30367  1.0000
  H   H788      1.0  0.42879  0.49052  0.32684  1.0000
  H   H789      1.0  0.07442  0.61537  0.31101  1.0000
  H   H790      1.0  0.44343  0.50093  0.25523  1.0000
  C   C668      1.0  0.37222  0.35896  0.38405  1.0000
  H   H791      1.0  0.11752  0.65502  0.42371  1.0000
  H   H792      1.0  0.25482  0.60481  0.47758  1.0000
  C   C669      1.0  0.36488  0.35152  0.29220  1.0000
  H   H793      1.0  0.11363  0.57313  0.32290  1.0000
  H   H794      1.0  0.33450  0.33320  0.40804  1.0000
  C   C670      1.0  0.43898  0.65654  0.23808  1.0000
  S   S185      1.0  0.11526  0.61255  0.35513  1.0000
  C   C671      1.0  0.38298  0.34524  0.33127  1.0000
  C   C672      1.0  0.36402  0.34046  0.34139  1.0000
  N   N46       1.0  0.19771  0.64631  0.42832  1.0000
  H   H795      1.0  0.13988  0.60960  0.46905  1.0000
  C   C673      1.0  0.01874  0.55865  0.30826  1.0000
  C   C674      1.0  0.23986  0.65708  0.36860  1.0000
  C   C675      1.0  0.34548  0.35171  0.43110  1.0000
  H   H796      1.0  0.33270  0.36001  0.39683  1.0000
  C   C676      1.0  0.00416  0.57167  0.31893  1.0000
  C   C677      1.0  0.11032  0.60434  0.24728  1.0000
  H   H797      1.0  0.23076  0.35164  0.45996  1.0000
  C   C678      1.0  0.45560  0.50308  0.24209  1.0000
  H   H798      1.0  0.22196  0.62292  0.41741  1.0000
  C   C679      1.0  0.35514  0.33497  0.30011  1.0000
  H   H799      1.0  0.16797  0.64548  0.42536  1.0000
  H   H800      1.0  0.42903  0.53682  0.25004  1.0000
  C   C680      1.0  0.39184  0.62197  0.35728  1.0000
  Fe  Fe92      1.0  0.16234  0.65457  0.36162  1.0000
  H   H801      1.0  0.41969  0.59581  0.25965  1.0000
  H   H802      1.0  0.12866  0.64231  0.32151  1.0000
  H   H803      1.0  0.44991  0.50184  0.35268  1.0000
  H   H804      1.0  0.23068  0.60890  0.38423  1.0000
  C   C681      1.0  0.10799  0.62159  0.33336  1.0000
  H   H805      1.0  0.09202  0.65441  0.35201  1.0000
  H   H806      1.0  0.23044  0.63931  0.42658  1.0000
  S   S186      1.0  0.11083  0.64180  0.39180  1.0000
  H   H807      1.0  0.29259  0.65214  0.45708  1.0000
  C   C682      1.0  0.47432  0.45675  0.29114  1.0000
  H   H808      1.0  0.48473  0.44568  0.25425  1.0000
  H   H809      1.0  0.18042  0.62235  0.43937  1.0000
  C   C683      1.0  0.22079  0.59009  0.47746  1.0000
  H   H810      1.0  0.38144  0.34892  0.28856  1.0000
  H   H811      1.0  0.10817  0.56125  0.26280  1.0000
  H   H812      1.0  0.39767  0.34011  0.44519  1.0000
  N   N47       1.0  0.32777  0.60596  0.35942  1.0000
  C   C684      1.0  0.33649  0.62338  0.34655  1.0000
  C   C685      1.0  0.30619  0.60967  0.35785  1.0000
  C   C686      1.0  0.32756  0.60587  0.37918  1.0000
  C   C687      1.0  0.34056  0.58659  0.35450  1.0000
  C   C688      1.0  0.33289  0.57289  0.34863  1.0000
  C   C689      1.0  0.36158  0.58110  0.35523  1.0000
  C   C690      1.0  0.34568  0.55504  0.34353  1.0000
  C   C691      1.0  0.37417  0.56325  0.35012  1.0000
  C   C692      1.0  0.36628  0.55028  0.34421  1.0000
  H   H813      1.0  0.33705  0.62392  0.33154  1.0000
  H   H814      1.0  0.32749  0.63831  0.34984  1.0000
  H   H815      1.0  0.35231  0.62241  0.34760  1.0000
  H   H816      1.0  0.30505  0.61042  0.34324  1.0000
  H   H817      1.0  0.29722  0.62456  0.36133  1.0000
  H   H818      1.0  0.29819  0.59775  0.36792  1.0000
  H   H819      1.0  0.32170  0.59261  0.38925  1.0000
  H   H820      1.0  0.34296  0.60514  0.38127  1.0000
  H   H821      1.0  0.31770  0.62000  0.38359  1.0000
  H   H822      1.0  0.31710  0.57561  0.34782  1.0000
  H   H823      1.0  0.36852  0.59067  0.35964  1.0000
  H   H824      1.0  0.33963  0.54482  0.33896  1.0000
  H   H825      1.0  0.39021  0.55947  0.35067  1.0000
  H   H826      1.0  0.37619  0.53649  0.34015  1.0000
  S   S187      1.0  0.46373  0.59033  0.25064  1.0000
  S   S188      1.0  0.28877  0.64037  0.42008  1.0000
  H   H827      1.0  0.36914  0.48134  0.25436  1.0000
  C   C693      1.0  0.42518  0.59729  0.24461  1.0000
  S   S189      1.0  0.34481  0.63996  0.39890  1.0000
  H   H828      1.0  0.04618  0.65770  0.35296  1.0000
  H   H829      1.0  0.49518  0.52334  0.32834  1.0000
  H   H830      1.0  0.10245  0.59406  0.24422  1.0000
  H   H831      1.0  0.39631  0.33305  0.32929  1.0000
  N   N48       1.0  0.36325  0.34293  0.39904  1.0000
  C   C694      1.0  0.38312  0.34347  0.44114  1.0000
  H   H832      1.0  0.17608  0.58808  0.46837  1.0000
  H   H833      1.0  0.20261  0.62510  0.36708  1.0000
  H   H834      1.0  0.02472  0.53219  0.29647  1.0000
  H   H835      1.0  0.46846  0.52850  0.33870  1.0000
  H   H836      1.0  0.06973  0.65567  0.37082  1.0000
  C   C695      1.0  0.12326  0.63868  0.47573  1.0000
  C   C696      1.0  0.13801  0.60819  0.25821  1.0000
  H   H837      1.0  0.34262  0.34107  0.38302  1.0000
  Fe  Fe93      1.0  0.27334  0.64969  0.39584  1.0000
  H   H838      1.0  0.40841  0.63805  0.27991  1.0000
  H   H839      1.0  0.46085  0.47593  0.35119  1.0000
  H   H840      1.0  0.48865  0.45709  0.33378  1.0000
  H   H841      1.0  0.09467  0.53997  0.29280  1.0000
  C   C697      1.0  0.19120  0.65546  0.44515  1.0000
  H   H842      1.0  0.43153  0.62536  0.26643  1.0000
  H   H843      1.0  0.48599  0.51598  0.35368  1.0000
  H   H844      1.0  0.00081  0.51371  0.26065  1.0000
  Fe  Fe94      1.0  0.31225  0.65743  0.40002  1.0000
  C   C698      1.0  0.11970  0.57993  0.27490  1.0000
  H   H845      1.0  0.29252  0.33720  0.46878  1.0000
  C   C699      1.0  0.11021  0.56396  0.27555  1.0000
  C   C700      1.0  0.11689  0.63639  0.31920  1.0000
  C   C701      1.0  0.10232  0.55170  0.29272  1.0000
  C   C702      1.0  0.10365  0.55494  0.30972  1.0000
  C   C703      1.0  0.48299  0.51694  0.33968  1.0000
  C   C704      1.0  0.41799  0.63816  0.26538  1.0000
  H   H846      1.0  0.12718  0.59489  0.29364  1.0000
  C   C705      1.0  0.20739  0.58463  0.46975  1.0000
  Fe  Fe95      1.0  0.02527  0.63801  0.26078  1.0000
  H   H847      1.0  0.16129  0.64700  0.45635  1.0000
  C   C706      1.0  0.44202  0.53925  0.23773  1.0000
  C   C707      1.0  0.36357  0.34555  0.41779  1.0000
  H   H848      1.0  0.29627  0.33527  0.30174  1.0000
  H   H849      1.0  0.46953  0.50375  0.24623  1.0000
  H   H850      1.0  0.33241  0.35774  0.45897  1.0000
  H   H851      1.0  0.03836  0.54692  0.24404  1.0000
  H   H852      1.0  0.01396  0.57803  0.24541  1.0000
  H   H853      1.0  0.09719  0.54566  0.32302  1.0000
  C   C708      1.0  0.36162  0.63950  0.37667  1.0000
  C   C709      1.0  0.21065  0.65465  0.35823  1.0000
  C   C710      1.0  0.18297  0.63512  0.42691  1.0000
  H   H854      1.0  0.15492  0.57010  0.25098  1.0000
  H   H855      1.0  0.23698  0.32912  0.45069  1.0000
  N   N49       1.0  0.42442  0.65796  0.25642  1.0000
  C   C711      1.0  0.28404  0.65422  0.47101  1.0000
  N   N50       1.0  0.48148  0.49676  0.33763  1.0000
  H   H856      1.0  0.25682  0.33838  0.45466  1.0000
  C   C712      1.0  0.36467  0.47902  0.24211  1.0000
  H   H857      1.0  0.03248  0.52339  0.25903  1.0000
  C   C713      1.0  0.12076  0.58285  0.29254  1.0000
  C   C714      1.0  0.34638  0.35343  0.44888  1.0000
  H   H858      1.0  0.36349  0.37455  0.38574  1.0000
  H   H859      1.0  0.20630  0.33717  0.48663  1.0000
  H   H860      1.0  0.46320  0.51283  0.31694  1.0000
  C   C715      1.0  0.11931  0.65041  0.43814  1.0000
  C   C716      1.0  0.17218  0.65434  0.45818  1.0000
  H   H861      1.0  0.06694  0.65343  0.33346  1.0000
  C   C717      1.0  0.37192  0.65395  0.34314  1.0000
  C   C718      1.0  0.11322  0.65852  0.46869  1.0000
  H   H862      1.0  0.01760  0.54691  0.26466  1.0000
  H   H863      1.0  0.20377  0.65642  0.39803  1.0000
  C   C719      1.0  0.38245  0.34205  0.42319  1.0000
  C   C720      1.0  0.11289  0.57043  0.30962  1.0000
  H   H864      1.0  0.12729  0.61926  0.26653  1.0000
  C   C721      1.0  0.35831  0.65489  0.36071  1.0000
  H   H865      1.0  0.46786  0.48672  0.36697  1.0000
  H   H866      1.0  0.32347  0.39060  0.29316  1.0000
  C   C722      1.0  0.24082  0.33618  0.46051  1.0000
  H   H867      1.0  0.23681  0.58335  0.47341  1.0000
  C   C723      1.0  0.35348  0.37148  0.28970  1.0000
  C   C724      1.0  0.47640  0.49990  0.31905  1.0000
  H   H868      1.0  0.21326  0.57414  0.46026  1.0000
  H   H869      1.0  0.30909  0.63776  0.48458  1.0000
  H   H870      1.0  0.36559  0.34956  0.46812  1.0000
  C   C725      1.0  0.17874  0.60581  0.48656  1.0000
  C   C726      1.0  0.29335  0.64607  0.48656  1.0000
  C   C727      1.0  0.48424  0.42581  0.60585  1.0000
  S   S190      1.0  0.29448  0.63974  0.52374  1.0000
  S   S191      1.0  0.03143  0.53208  0.66920  1.0000
  H   H871      1.0  0.36841  0.54803  0.71532  1.0000
  N   N51       1.0  0.44680  0.53939  0.73431  1.0000
  H   H872      1.0  0.20922  0.64039  0.49792  1.0000
  H   H873      1.0  0.43584  0.61003  0.69717  1.0000
  S   S192      1.0  0.09336  0.61336  0.56932  1.0000
  C   C728      1.0  0.49347  0.62741  0.71848  1.0000
  S   S193      1.0  0.12990  0.63665  0.52491  1.0000
  S   S194      1.0  0.39679  0.50795  0.67519  1.0000
  C   C729      1.0  0.49509  0.43117  0.61643  1.0000
  H   H874      1.0  0.34297  0.33270  0.59332  1.0000
  C   C730      1.0  0.21342  0.60367  0.49007  1.0000
  H   H875      1.0  0.42348  0.56137  0.72107  1.0000
  H   H876      1.0  0.41215  0.34772  0.61982  1.0000
  H   H877      1.0  0.36048  0.59606  0.55360  1.0000
  Fe  Fe96      1.0  0.10538  0.64081  0.55091  1.0000
  S   S195      1.0  0.34577  0.35685  0.55452  1.0000
  H   H878      1.0  0.43515  0.32913  0.61321  1.0000
  C   C731      1.0  0.47657  0.47921  0.66526  1.0000
  N   N52       1.0  0.03177  0.45104  0.67371  1.0000
  C   C732      1.0  0.41950  0.37754  0.58967  1.0000
  Fe  Fe97      1.0  0.37736  0.43872  0.63064  1.0000
  S   S196      1.0  0.39124  0.42135  0.60739  1.0000
  S   S197      1.0  0.36171  0.47212  0.62567  1.0000
  Fe  Fe98      1.0  0.39553  0.40465  0.66013  1.0000
  S   S198      1.0  0.41085  0.38434  0.63960  1.0000
  S   S199      1.0  0.40244  0.39561  0.68913  1.0000
  Fe  Fe99      1.0  0.41946  0.41246  0.61933  1.0000
  S   S200      1.0  0.45137  0.41355  0.60168  1.0000
  Fe  Fe100     1.0  0.38135  0.39445  0.62949  1.0000
  S   S201      1.0  0.36908  0.36853  0.62644  1.0000
  S   S202      1.0  0.40642  0.43197  0.64058  1.0000
  S   S203      1.0  0.36518  0.41264  0.65199  1.0000
  C   C733      1.0  0.44230  0.47740  0.70072  1.0000
  C   C734      1.0  0.46627  0.41838  0.61486  1.0000
  H   H879      1.0  0.35636  0.36817  0.70804  1.0000
  H   H880      1.0  0.48304  0.48987  0.70885  1.0000
  C   C735      1.0  0.49426  0.60635  0.72011  1.0000
  C   C736      1.0  0.47033  0.42111  0.64492  1.0000
  C   C737      1.0  0.45965  0.41570  0.63444  1.0000
  H   H881      1.0  0.40441  0.35286  0.53973  1.0000
  H   H882      1.0  0.21921  0.64482  0.53411  1.0000
  H   H883      1.0  0.46489  0.41904  0.66008  1.0000
  H   H884      1.0  0.44638  0.40916  0.64167  1.0000
  C   C738      1.0  0.38877  0.41241  0.70411  1.0000
  C   C739      1.0  0.37042  0.42568  0.70090  1.0000
  C   C740      1.0  0.49370  0.42660  0.70588  1.0000
  H   H885      1.0  0.36481  0.42610  0.68876  1.0000
  S   S204      1.0  0.40916  0.55324  0.68413  1.0000
  H   H886      1.0  0.20523  0.61107  0.52554  1.0000
  H   H887      1.0  0.44591  0.41782  0.71360  1.0000
  H   H888      1.0  0.44383  0.52193  0.67664  1.0000
  H   H889      1.0  0.41980  0.47258  0.58383  1.0000
  H   H890      1.0  0.42737  0.38469  0.59639  1.0000
  C   C741      1.0  0.34676  0.50202  0.70757  1.0000
  H   H891      1.0  0.25187  0.58313  0.49737  1.0000
  C   C742      1.0  0.01436  0.45630  0.68927  1.0000
  H   H892      1.0  0.42468  0.55256  0.59897  1.0000
  H   H893      1.0  0.35065  0.57676  0.61864  1.0000
  C   C743      1.0  0.35110  0.36039  0.57496  1.0000
  C   C744      1.0  0.34870  0.34609  0.59216  1.0000
  C   C745      1.0  0.35403  0.34901  0.60782  1.0000
  C   C746      1.0  0.36167  0.36625  0.60651  1.0000
  C   C747      1.0  0.36372  0.38074  0.58942  1.0000
  C   C748      1.0  0.35851  0.37776  0.57372  1.0000
  C   C749      1.0  0.45987  0.48604  0.69606  1.0000
  H   H894      1.0  0.40990  0.40127  0.72266  1.0000
  H   H895      1.0  0.36928  0.39422  0.58826  1.0000
  H   H896      1.0  0.36030  0.38893  0.56050  1.0000
  Fe  Fe101     1.0  0.14450  0.65609  0.53422  1.0000
  C   C750      1.0  0.34856  0.52053  0.71088  1.0000
  S   S205      1.0  0.17870  0.64962  0.52927  1.0000
  C   C751      1.0  0.38471  0.49920  0.66234  1.0000
  C   C752      1.0  0.37818  0.51185  0.64619  1.0000
  C   C753      1.0  0.36981  0.50389  0.63547  1.0000
  C   C754      1.0  0.36828  0.48330  0.64079  1.0000
  C   C755      1.0  0.37383  0.47110  0.65744  1.0000
  C   C756      1.0  0.38219  0.47896  0.66811  1.0000
  H   H897      1.0  0.38009  0.52753  0.64171  1.0000
  H   H898      1.0  0.36536  0.51337  0.62267  1.0000
  H   H899      1.0  0.37202  0.45541  0.66196  1.0000
  H   H900      1.0  0.38691  0.46921  0.68076  1.0000
  H   H901      1.0  0.45860  0.46352  0.59580  1.0000
  C   C757      1.0  0.45092  0.48000  0.59347  1.0000
  S   S206      1.0  0.37213  0.56795  0.66156  1.0000
  H   H902      1.0  0.34210  0.55380  0.69979  1.0000
  N   N53       1.0  0.07354  0.61444  0.65218  1.0000
  C   C758      1.0  0.03392  0.62912  0.61171  1.0000
  C   C759      1.0  0.03610  0.61112  0.56490  1.0000
  C   C760      1.0  0.07066  0.61962  0.58567  1.0000
  C   C761      1.0  0.06110  0.60400  0.59773  1.0000
  C   C762      1.0  0.04277  0.60875  0.61077  1.0000
  H   H903      1.0  0.06782  0.58823  0.59691  1.0000
  H   H904      1.0  0.03558  0.59661  0.62006  1.0000
  C   C763      1.0  0.03526  0.52367  0.69233  1.0000
  C   C764      1.0  0.03648  0.50305  0.70127  1.0000
  C   C765      1.0  0.04005  0.49602  0.71959  1.0000
  C   C766      1.0  0.43476  0.46756  0.71921  1.0000
  C   C767      1.0  0.33892  0.63408  0.58979  1.0000
  C   C768      1.0  0.03711  0.53743  0.70194  1.0000
  H   H905      1.0  0.03435  0.49256  0.69414  1.0000
  H   H906      1.0  0.47427  0.42794  0.68749  1.0000
  H   H907      1.0  0.36786  0.61689  0.57725  1.0000
  C   C769      1.0  0.35820  0.62095  0.59016  1.0000
  Fe  Fe102     1.0  0.39805  0.54106  0.66536  1.0000
  S   S207      1.0  0.44033  0.60895  0.73372  1.0000
  C   C770      1.0  0.47571  0.42503  0.70200  1.0000
  C   C771      1.0  0.32503  0.58257  0.59418  1.0000
  C   C772      1.0  0.35890  0.43786  0.71382  1.0000
  C   C773      1.0  0.45975  0.41924  0.71668  1.0000
  S   S208      1.0  0.01327  0.59076  0.67374  1.0000
  H   H908      1.0  0.44018  0.50353  0.66585  1.0000
  C   C774      1.0  0.20864  0.65281  0.54451  1.0000
  S   S209      1.0  0.38763  0.59407  0.60781  1.0000
  H   H909      1.0  0.48387  0.48525  0.65034  1.0000
  H   H910      1.0  0.09169  0.55699  0.69947  1.0000
  H   H911      1.0  0.42040  0.38645  0.57489  1.0000
  C   C775      1.0  0.26891  0.33291  0.51088  1.0000
  H   H912      1.0  0.43670  0.35272  0.61732  1.0000
  C   C776      1.0  0.04359  0.64473  0.59979  1.0000
  H   H913      1.0  0.32628  0.51985  0.66865  1.0000
  H   H914      1.0  0.03684  0.45554  0.64344  1.0000
  H   H915      1.0  0.06499  0.58375  0.64094  1.0000
  H   H916      1.0  0.45214  0.36168  0.56577  1.0000
  H   H917      1.0  0.08267  0.45643  0.70047  1.0000
  S   S210      1.0  0.40648  0.59676  0.65276  1.0000
  C   C777      1.0  0.33212  0.52015  0.68045  1.0000
  H   H918      1.0  0.01856  0.45055  0.70330  1.0000
  H   H919      1.0  0.37910  0.53703  0.58040  1.0000
  C   C778      1.0  0.04244  0.50966  0.72902  1.0000
  H   H920      1.0  0.08235  0.53387  0.68506  1.0000
  C   C779      1.0  0.47385  0.61748  0.64308  1.0000
  C   C780      1.0  0.41908  0.50480  0.59916  1.0000
  C   C781      1.0  0.42877  0.47658  0.62451  1.0000
  C   C782      1.0  0.40111  0.54698  0.58903  1.0000
  C   C783      1.0  0.36391  0.37559  0.73078  1.0000
  H   H921      1.0  0.04269  0.62150  0.66825  1.0000
  C   C784      1.0  0.02494  0.63048  0.56717  1.0000
  C   C785      1.0  0.49176  0.61512  0.64926  1.0000
  S   S211      1.0  0.31709  0.33340  0.53091  1.0000
  H   H922      1.0  0.45756  0.33680  0.58083  1.0000
  H   H923      1.0  0.04100  0.48003  0.72636  1.0000
  C   C786      1.0  0.41632  0.35428  0.56283  1.0000
  C   C787      1.0  0.34268  0.56422  0.62051  1.0000
  C   C788      1.0  0.07984  0.47896  0.67476  1.0000
  N   N54       1.0  0.32288  0.57222  0.61442  1.0000
  C   C789      1.0  0.46948  0.48405  0.71106  1.0000
  N   N55       1.0  0.42857  0.35546  0.59090  1.0000
  H   H924      1.0  0.05205  0.60915  0.55751  1.0000
  H   H925      1.0  0.07896  0.64305  0.65370  1.0000
  C   C790      1.0  0.48471  0.50624  0.67399  1.0000
  N   N56       1.0  0.46816  0.49545  0.67617  1.0000
  C   C791      1.0  0.41738  0.34655  0.58213  1.0000
  H   H926      1.0  0.34312  0.55116  0.73043  1.0000
  H   H927      1.0  0.23445  0.63677  0.50075  1.0000
  H   H928      1.0  0.29404  0.59196  0.62420  1.0000
  C   C792      1.0  0.32808  0.60318  0.55563  1.0000
  C   C793      1.0  0.34568  0.59444  0.56274  1.0000
  Fe  Fe103     1.0  0.33551  0.32911  0.55268  1.0000
  C   C794      1.0  0.07661  0.59233  0.66119  1.0000
  C   C795      1.0  0.08412  0.58396  0.67807  1.0000
  H   H929      1.0  0.46464  0.47146  0.66491  1.0000
  S   S212      1.0  0.01122  0.63527  0.62820  1.0000
  C   C796      1.0  0.07363  0.55769  0.66186  1.0000
  H   H930      1.0  0.35232  0.33776  0.62100  1.0000
  C   C797      1.0  0.31295  0.55465  0.61828  1.0000
  H   H931      1.0  0.04588  0.48509  0.64822  1.0000
  C   C798      1.0  0.30999  0.58682  0.62626  1.0000
  H   H932      1.0  0.32914  0.61144  0.54102  1.0000
  H   H933      1.0  0.44035  0.51631  0.60811  1.0000
  H   H934      1.0  0.43546  0.51489  0.73110  1.0000
  C   C799      1.0  0.24901  0.60013  0.49311  1.0000
  H   H935      1.0  0.46787  0.63189  0.63438  1.0000
  H   H936      1.0  0.33371  0.63996  0.57669  1.0000
  H   H937      1.0  0.03598  0.57913  0.57137  1.0000
  H   H938      1.0  0.00071  0.58282  0.58870  1.0000
  C   C800      1.0  0.32945  0.37810  0.72841  1.0000
  C   C801      1.0  0.08437  0.61741  0.63198  1.0000
  C   C802      1.0  0.44004  0.55416  0.71765  1.0000
  H   H939      1.0  0.48825  0.60115  0.71092  1.0000
  H   H940      1.0  0.03597  0.55343  0.69520  1.0000
  H   H941      1.0  0.40873  0.60343  0.68601  1.0000
  H   H942      1.0  0.47720  0.54599  0.70093  1.0000
  C   C803      1.0  0.30741  0.59150  0.58638  1.0000
  C   C804      1.0  0.22510  0.63197  0.49363  1.0000
  H   H943      1.0  0.16239  0.61173  0.49027  1.0000
  H   H944      1.0  0.09777  0.62099  0.66079  1.0000
  C   C805      1.0  0.36476  0.61268  0.60722  1.0000
  H   H945      1.0  0.43641  0.48576  0.62926  1.0000
  C   C806      1.0  0.02703  0.59423  0.57280  1.0000
  C   C807      1.0  0.02426  0.45820  0.65587  1.0000
  H   H946      1.0  0.01673  0.47470  0.65358  1.0000
  C   C808      1.0  0.22093  0.60309  0.51976  1.0000
  H   H947      1.0  0.32372  0.63593  0.63627  1.0000
  H   H948      1.0  0.06915  0.54752  0.65584  1.0000
  H   H949      1.0  0.35182  0.48739  0.71642  1.0000
  H   H950      1.0  0.29536  0.60867  0.56176  1.0000
  C   C809      1.0  0.45033  0.35318  0.58075  1.0000
  H   H951      1.0  0.44826  0.56705  0.71251  1.0000
  H   H952      1.0  0.34451  0.44780  0.71147  1.0000
  H   H953      1.0  0.33792  0.48746  0.69017  1.0000
  C   C810      1.0  0.42001  0.60517  0.72642  1.0000
  C   C811      1.0  0.39257  0.53230  0.58639  1.0000
  H   H954      1.0  0.35305  0.55270  0.61257  1.0000
  H   H955      1.0  0.35848  0.57852  0.58640  1.0000
  C   C812      1.0  0.07133  0.57852  0.65343  1.0000
  H   H956      1.0  0.08824  0.59321  0.68523  1.0000
  H   H957      1.0  0.07827  0.61054  0.62364  1.0000
  H   H958      1.0  0.25871  0.60512  0.49986  1.0000
  H   H959      1.0  0.04464  0.61484  0.64657  1.0000
  H   H960      1.0  0.40353  0.46955  0.60732  1.0000
  H   H961      1.0  0.31904  0.37631  0.72089  1.0000
  H   H962      1.0  0.44233  0.54666  0.70575  1.0000
  C   C813      1.0  0.06200  0.63998  0.58680  1.0000
  H   H963      1.0  0.46015  0.48782  0.59798  1.0000
  H   H964      1.0  0.04151  0.42129  0.69120  1.0000
  C   C814      1.0  0.24536  0.33277  0.49194  1.0000
  C   C815      1.0  0.04866  0.46038  0.67347  1.0000
  H   H965      1.0  0.22152  0.36057  0.48959  1.0000
  H   H966      1.0  0.29724  0.55951  0.61559  1.0000
  H   H967      1.0  0.31154  0.54611  0.63327  1.0000
  H   H968      1.0  0.47944  0.51840  0.68223  1.0000
  C   C816      1.0  0.42811  0.34574  0.61117  1.0000
  C   C817      1.0  0.40129  0.51148  0.59142  1.0000
  Fe  Fe104     1.0  0.01040  0.56278  0.66629  1.0000
  H   H969      1.0  0.29221  0.59103  0.59495  1.0000
  H   H970      1.0  0.35734  0.61213  0.63700  1.0000
  C   C818      1.0  0.46628  0.65709  0.71361  1.0000
  H   H971      1.0  0.32194  0.54364  0.60919  1.0000
  C   C819      1.0  0.08625  0.56307  0.68645  1.0000
  C   C820      1.0  0.41958  0.46900  0.59919  1.0000
  C   C821      1.0  0.05140  0.62294  0.65331  1.0000
  C   C822      1.0  0.07494  0.46212  0.68878  1.0000
  C   C823      1.0  0.33865  0.50190  0.69260  1.0000
  C   C824      1.0  0.08112  0.62662  0.66115  1.0000
  C   C825      1.0  0.33340  0.53865  0.68341  1.0000
  C   C826      1.0  0.05389  0.47775  0.65950  1.0000
  C   C827      1.0  0.34144  0.53895  0.69840  1.0000
  C   C828      1.0  0.00461  0.63306  0.57720  1.0000
  C   C829      1.0  0.00665  0.59662  0.58281  1.0000
  H   H972      1.0  0.40307  0.37984  0.59693  1.0000
  C   C830      1.0  0.06930  0.48679  0.66020  1.0000
  H   H973      1.0  0.10098  0.61041  0.63044  1.0000
  H   H974      1.0  0.42330  0.36691  0.55432  1.0000
  H   H975      1.0  0.07253  0.50043  0.64975  1.0000
  S   S213      1.0  0.00093  0.57953  0.63913  1.0000
  C   C831      1.0  0.36583  0.43696  0.72986  1.0000
  H   H976      1.0  0.45043  0.60284  0.64242  1.0000
  H   H977      1.0  0.01224  0.45020  0.65613  1.0000
  C   C832      1.0  0.37784  0.50718  0.72559  1.0000
  H   H978      1.0  0.01109  0.40798  0.70954  1.0000
  S   S214      1.0  0.42018  0.55267  0.63949  1.0000
  C   C833      1.0  0.46181  0.47408  0.72953  1.0000
  H   H979      1.0  0.43444  0.47781  0.69004  1.0000
  H   H980      1.0  0.23231  0.37640  0.50940  1.0000
  H   H981      1.0  0.34060  0.55653  0.63575  1.0000
  C   C834      1.0  0.05952  0.45303  0.68827  1.0000
  S   S215      1.0  0.03351  0.41687  0.73234  1.0000
  H   H982      1.0  0.46526  0.62772  0.69803  1.0000
  H   H983      1.0  0.02648  0.42117  0.67577  1.0000
  C   C835      1.0  0.41828  0.54096  0.59685  1.0000
  Fe  Fe105     1.0  0.42939  0.56727  0.65803  1.0000
  C   C836      1.0  0.33332  0.63174  0.62337  1.0000
  C   C837      1.0  0.30900  0.60163  0.56740  1.0000
  H   H984      1.0  0.41276  0.47819  0.63287  1.0000
  H   H985      1.0  0.30903  0.58016  0.64162  1.0000
  C   C838      1.0  0.40576  0.34623  0.55425  1.0000
  C   C839      1.0  0.40727  0.33018  0.59224  1.0000
  C   C840      1.0  0.39577  0.41165  0.72009  1.0000
  Fe  Fe106     1.0  0.38559  0.58145  0.67808  1.0000
  C   C841      1.0  0.35235  0.61826  0.62380  1.0000
  C   C842      1.0  0.42216  0.60632  0.70721  1.0000
  S   S216      1.0  0.46142  0.56074  0.66251  1.0000
  Fe  Fe107     1.0  0.39505  0.58087  0.63664  1.0000
  H   H986      1.0  0.08278  0.63390  0.62483  1.0000
  C   C843      1.0  0.40681  0.60242  0.70084  1.0000
  H   H987      1.0  0.32834  0.55288  0.67396  1.0000
  H   H988      1.0  0.45203  0.48578  0.57799  1.0000
  S   S217      1.0  0.30153  0.65455  0.60708  1.0000
  C   C844      1.0  0.47189  0.58228  0.65850  1.0000
  C   C845      1.0  0.03845  0.42843  0.67686  1.0000
  H   H989      1.0  0.39366  0.50093  0.58928  1.0000
  H   H990      1.0  0.22130  0.58637  0.52430  1.0000
  H   H991      1.0  0.07264  0.62634  0.67605  1.0000
  C   C846      1.0  0.34429  0.58424  0.58170  1.0000
  C   C847      1.0  0.42713  0.52020  0.60196  1.0000
  C   C848      1.0  0.48932  0.58021  0.66528  1.0000
  N   N57       1.0  0.35695  0.52018  0.72705  1.0000
  N   N58       1.0  0.42927  0.48298  0.60395  1.0000
  C   C849      1.0  0.08108  0.54997  0.67833  1.0000
  H   H992      1.0  0.42767  0.45280  0.60276  1.0000
  H   H993      1.0  0.31629  0.60085  0.62274  1.0000
  H   H994      1.0  0.43654  0.46026  0.62856  1.0000
  S   S218      1.0  0.37037  0.59178  0.70525  1.0000
  C   C850      1.0  0.38902  0.59759  0.71353  1.0000
  C   C851      1.0  0.46391  0.60107  0.64768  1.0000
  H   H995      1.0  0.03233  0.64347  0.56154  1.0000
  H   H996      1.0  0.45794  0.51939  0.65341  1.0000
  H   H997      1.0  0.00901  0.47315  0.68733  1.0000
  H   H998      1.0  0.48982  0.51413  0.65903  1.0000
  C   C852      1.0  0.19197  0.61139  0.49432  1.0000
  C   C853      1.0  0.47778  0.63618  0.69070  1.0000
  H   H999      1.0  0.09141  0.48632  0.67550  1.0000
  C   C854      1.0  0.23472  0.35234  0.49543  1.0000
  H   H1000     1.0  0.05575  0.44060  0.69995  1.0000
  C   C855      1.0  0.04102  0.53037  0.72017  1.0000
  H   H1001     1.0  0.06944  0.65208  0.57765  1.0000
  H   H1002     1.0  0.39447  0.56313  0.58507  1.0000
  C   C856      1.0  0.48799  0.42893  0.63601  1.0000
  C   C857      1.0  0.25791  0.35189  0.51435  1.0000
  C   C858      1.0  0.45179  0.51063  0.66771  1.0000
  H   H1003     1.0  0.23116  0.60664  0.52695  1.0000
  H   H1004     1.0  0.05262  0.42391  0.66637  1.0000
  H   H1005     1.0  0.04261  0.54099  0.72754  1.0000
  N   N59       1.0  0.22700  0.60948  0.49888  1.0000
  N   N60       1.0  0.48444  0.64389  0.70406  1.0000
  H   H1006     1.0  0.48839  0.46713  0.67164  1.0000
  C   C859      1.0  0.35045  0.37339  0.72119  1.0000
  C   C860      1.0  0.44457  0.46580  0.73355  1.0000
  Fe  Fe108     1.0  0.00037  0.60781  0.64822  1.0000
  C   C861      1.0  0.38440  0.42403  0.73289  1.0000
  H   H1007     1.0  0.04824  0.63938  0.64603  1.0000
  H   H1008     1.0  0.22562  0.32684  0.55210  1.0000
  H   H1009     1.0  0.26249  0.35884  0.52333  1.0000
  S   S219      1.0  0.12133  0.65815  0.56143  1.0000
  H   H1010     1.0  0.47181  0.64879  0.67953  1.0000
  C   C862      1.0  0.24086  0.36163  0.50660  1.0000
  H   H1011     1.0  0.12474  0.63407  0.49021  1.0000
  C   C863      1.0  0.00754  0.41688  0.73562  1.0000
  C   C864      1.0  0.38668  0.59665  0.73281  1.0000
  H   H1012     1.0  0.38823  0.51314  0.71226  1.0000
  C   C865      1.0  0.48208  0.53396  0.71234  1.0000
  C   C866      1.0  0.39619  0.33011  0.56450  1.0000
  H   H1013     1.0  0.37815  0.49106  0.72579  1.0000
  H   H1014     1.0  0.99679  0.64833  0.57894  1.0000
  H   H1015     1.0  0.49078  0.62600  0.68321  1.0000
  C   C867      1.0  0.32638  0.63941  0.60645  1.0000
  C   C868      1.0  0.00042  0.41264  0.72176  1.0000
  C   C869      1.0  0.35838  0.54071  0.72827  1.0000
  H   H1016     1.0  0.45931  0.35927  0.58732  1.0000
  S   S220      1.0  0.26885  0.64800  0.57565  1.0000
  C   C870      1.0  0.46850  0.52863  0.73002  1.0000
  H   H1017     1.0  0.00111  0.44976  0.69000  1.0000
  H   H1018     1.0  0.38025  0.37201  0.72498  1.0000
  C   C871      1.0  0.28248  0.64903  0.50456  1.0000
  H   H1019     1.0  0.48954  0.42774  0.59070  1.0000
  H   H1020     1.0  0.42150  0.46080  0.72232  1.0000
  H   H1021     1.0  0.31444  0.32786  0.49222  1.0000
  H   H1022     1.0  0.99888  0.53896  0.73018  1.0000
  H   H1023     1.0  0.23238  0.65639  0.55580  1.0000
  H   H1024     1.0  0.45487  0.64788  0.72281  1.0000
  H   H1025     1.0  0.18517  0.62166  0.50391  1.0000
  C   C872      1.0  0.46162  0.41527  0.73533  1.0000
  C   C873      1.0  0.18759  0.65669  0.54565  1.0000
  H   H1026     1.0  0.49492  0.58447  0.61663  1.0000
  C   C874      1.0  0.46114  0.52233  0.81581  1.0000
  H   H1027     1.0  0.08179  0.36787  0.82771  1.0000
  H   H1028     1.0  0.33627  0.37246  0.87972  1.0000
  H   H1029     1.0  0.35306  0.38518  0.78490  1.0000
  S   S221      1.0  0.03843  0.45504  0.79419  1.0000
  C   C875      1.0  0.08998  0.39657  0.97678  1.0000
  Fe  Fe109     1.0  0.04189  0.46868  0.76327  1.0000
  Fe  Fe110     1.0  0.05898  0.42708  0.78512  1.0000
  S   S222      1.0  0.08392  0.41181  0.80100  1.0000
  H   H1030     1.0  0.14366  0.34344  0.92852  1.0000
  S   S223      1.0  0.24102  0.33498  0.93580  1.0000
  H   H1031     1.0  0.32499  0.36695  0.79044  1.0000
  C   C876      1.0  0.02621  0.47772  0.83866  1.0000
  Fe  Fe111     1.0  0.42301  0.58475  0.80480  1.0000
  S   S224      1.0  0.41111  0.55676  0.82220  1.0000
  Fe  Fe112     1.0  0.11010  0.40139  0.90087  1.0000
  S   S225      1.0  0.13978  0.40435  0.88034  1.0000
  Fe  Fe113     1.0  0.06569  0.40248  0.90426  1.0000
  H   H1032     1.0  0.47702  0.63883  0.86263  1.0000
  S   S226      1.0  0.04234  0.40798  0.88709  1.0000
  Fe  Fe114     1.0  0.07855  0.41308  0.93472  1.0000
  S   S227      1.0  0.07233  0.43228  0.95600  1.0000
  S   S228      1.0  0.08215  0.42641  0.90355  1.0000
  S   S229      1.0  0.09407  0.37852  0.89881  1.0000
  S   S230      1.0  0.29808  0.36077  0.85998  1.0000
  Fe  Fe115     1.0  0.37788  0.48096  0.78437  1.0000
  S   S231      1.0  0.39428  0.46257  0.76256  1.0000
  S   S232      1.0  0.37963  0.51425  0.77494  1.0000
  Fe  Fe116     1.0  0.35990  0.44518  0.81153  1.0000
  S   S233      1.0  0.37534  0.42380  0.79183  1.0000
  S   S234      1.0  0.33836  0.43823  0.84000  1.0000
  Fe  Fe117     1.0  0.40248  0.43780  0.78702  1.0000
  S   S235      1.0  0.43505  0.42066  0.78445  1.0000
  Fe  Fe118     1.0  0.36577  0.45070  0.76926  1.0000
  C   C877      1.0  0.28841  0.37335  0.97208  1.0000
  S   S236      1.0  0.38799  0.45703  0.80865  1.0000
  S   S237      1.0  0.34837  0.47115  0.78914  1.0000
  H   H1033     1.0  0.02230  0.47944  0.87435  1.0000
  C   C878      1.0  0.45000  0.43643  0.78623  1.0000
  C   C879      1.0  0.47002  0.42821  0.78881  1.0000
  C   C880      1.0  0.48188  0.44090  0.79036  1.0000
  C   C881      1.0  0.47363  0.46175  0.78935  1.0000
  C   C882      1.0  0.45370  0.46996  0.78665  1.0000
  C   C883      1.0  0.44193  0.45734  0.78504  1.0000
  H   H1034     1.0  0.47619  0.41199  0.78998  1.0000
  H   H1035     1.0  0.12747  0.33408  0.90066  1.0000
  H   H1036     1.0  0.44721  0.48605  0.78607  1.0000
  H   H1037     1.0  0.42659  0.46385  0.78291  1.0000
  C   C884      1.0  0.30855  0.38276  0.85441  1.0000
  C   C885      1.0  0.32499  0.38514  0.83883  1.0000
  C   C886      1.0  0.33414  0.40212  0.83426  1.0000
  C   C887      1.0  0.32688  0.41693  0.84520  1.0000
  C   C888      1.0  0.31043  0.41456  0.86079  1.0000
  C   C889      1.0  0.30121  0.39759  0.86533  1.0000
  H   H1038     1.0  0.33087  0.37363  0.83043  1.0000
  H   H1039     1.0  0.34706  0.40354  0.82252  1.0000
  H   H1040     1.0  0.30466  0.42597  0.86930  1.0000
  H   H1041     1.0  0.28840  0.39606  0.87721  1.0000
  C   C890      1.0  0.15900  0.40130  0.89237  1.0000
  H   H1042     1.0  0.19561  0.42362  0.97300  1.0000
  H   H1043     1.0  0.32105  0.34403  0.89516  1.0000
  S   S238      1.0  0.05931  0.39136  0.93584  1.0000
  S   S239      1.0  0.45021  0.57775  0.78185  1.0000
  C   C891      1.0  0.05867  0.48679  0.80734  1.0000
  C   C892      1.0  0.08656  0.41791  0.97283  1.0000
  H   H1044     1.0  0.43906  0.45757  0.74775  1.0000
  H   H1045     1.0  0.08333  0.38907  0.96988  1.0000
  H   H1046     1.0  0.36003  0.34093  0.88492  1.0000
  H   H1047     1.0  0.21014  0.38355  0.88821  1.0000
  Fe  Fe119     1.0  0.08924  0.36932  0.93028  1.0000
  C   C893      1.0  0.16946  0.40221  0.92024  1.0000
  C   C894      1.0  0.19454  0.38935  0.89457  1.0000
  C   C895      1.0  0.06190  0.46929  0.82148  1.0000
  C   C896      1.0  0.40441  0.54422  0.80822  1.0000
  C   C897      1.0  0.39938  0.55502  0.79095  1.0000
  C   C898      1.0  0.39214  0.54551  0.78069  1.0000
  C   C899      1.0  0.39041  0.52501  0.78740  1.0000
  C   C900      1.0  0.39651  0.51385  0.80414  1.0000
  C   C901      1.0  0.40322  0.52354  0.81470  1.0000
  H   H1048     1.0  0.40022  0.57098  0.78589  1.0000
  H   H1049     1.0  0.38744  0.55423  0.76773  1.0000
  H   H1050     1.0  0.39559  0.49794  0.80918  1.0000
  H   H1051     1.0  0.40722  0.51512  0.82801  1.0000
  C   C902      1.0  0.32186  0.38528  0.74513  1.0000
  C   C903      1.0  0.49021  0.53197  0.78125  1.0000
  S   S240      1.0  0.43804  0.60140  0.81702  1.0000
  C   C904      1.0  0.05451  0.40785  0.86348  1.0000
  C   C905      1.0  0.04360  0.40610  0.85117  1.0000
  C   C906      1.0  0.05253  0.40774  0.83191  1.0000
  C   C907      1.0  0.07270  0.41034  0.82502  1.0000
  C   C908      1.0  0.08395  0.41129  0.83744  1.0000
  C   C909      1.0  0.07477  0.41029  0.85664  1.0000
  H   H1052     1.0  0.02805  0.40384  0.85648  1.0000
  H   H1053     1.0  0.04386  0.40674  0.82243  1.0000
  H   H1054     1.0  0.09956  0.41334  0.83213  1.0000
  H   H1055     1.0  0.08324  0.41188  0.86603  1.0000
  H   H1056     1.0  0.07087  0.48994  0.79511  1.0000
  H   H1057     1.0  0.28555  0.38982  0.96737  1.0000
  C   C910      1.0  0.31508  0.38241  0.78714  1.0000
  S   S241      1.0  0.20829  0.38735  0.92599  1.0000
  H   H1058     1.0  0.28357  0.36822  0.94682  1.0000
  H   H1059     1.0  0.04905  0.45054  0.84699  1.0000
  H   H1060     1.0  0.42792  0.56006  0.75206  1.0000
  H   H1061     1.0  0.24624  0.35420  0.97383  1.0000
  Fe  Fe120     1.0  0.27530  0.35298  0.88752  1.0000
  H   H1062     1.0  0.30175  0.38046  0.78289  1.0000
  C   C911      1.0  0.33738  0.37729  0.94924  1.0000
  C   C912      1.0  0.18962  0.39349  0.91260  1.0000
  H   H1063     1.0  0.33566  0.40665  0.79294  1.0000
  S   S242      1.0  0.24259  0.35123  0.89022  1.0000
  C   C913      1.0  0.34317  0.33908  0.94114  1.0000
  C   C914      1.0  0.04593  0.46470  0.83683  1.0000
  C   C915      1.0  0.33619  0.37460  0.89386  1.0000
  H   H1064     1.0  0.36508  0.53988  0.74036  1.0000
  H   H1065     1.0  0.48965  0.54518  0.83031  1.0000
  C   C916      1.0  0.17926  0.39323  0.88447  1.0000
  H   H1066     1.0  0.18309  0.38978  0.87061  1.0000
  H   H1067     1.0  0.13693  0.35499  0.81362  1.0000
  C   C917      1.0  0.40224  0.60034  0.73929  1.0000
  C   C918      1.0  0.32331  0.34413  0.90922  1.0000
  S   S243      1.0  0.45314  0.62557  0.77302  1.0000
  N   N61       1.0  0.32666  0.39663  0.77229  1.0000
  C   C919      1.0  0.44383  0.55094  0.74903  1.0000
  H   H1068     1.0  0.33978  0.36076  0.97748  1.0000
  H   H1069     1.0  0.39999  0.65277  0.88457  1.0000
  S   S244      1.0  0.26846  0.36908  0.91132  1.0000
  H   H1070     1.0  0.32757  0.52025  0.74609  1.0000
  H   H1071     1.0  0.48688  0.63397  0.83931  1.0000
  H   H1072     1.0  0.09219  0.44408  0.97901  1.0000
  H   H1073     1.0  0.19855  0.33046  0.88049  1.0000
  H   H1074     1.0  0.44664  0.54075  0.76269  1.0000
  H   H1075     1.0  0.07666  0.45878  0.82022  1.0000
  S   S245      1.0  0.06456  0.44163  0.75413  1.0000
  H   H1076     1.0  0.40050  0.59940  0.75417  1.0000
  H   H1077     1.0  0.13775  0.36172  0.90792  1.0000
  H   H1078     1.0  0.13576  0.36051  0.87762  1.0000
  C   C920      1.0  0.47952  0.41683  0.73941  1.0000
  N   N62       1.0  0.15826  0.33360  0.90238  1.0000
  H   H1079     1.0  0.29873  0.41546  0.76421  1.0000
  C   C921      1.0  0.31265  0.41674  0.76791  1.0000
  H   H1080     1.0  0.02806  0.45264  0.87442  1.0000
  N   N63       1.0  0.34386  0.49781  0.84419  1.0000
  C   C922      1.0  0.34057  0.49652  0.82595  1.0000
  C   C923      1.0  0.36097  0.48072  0.84909  1.0000
  C   C924      1.0  0.32499  0.49471  0.85874  1.0000
  C   C925      1.0  0.34860  0.51754  0.84361  1.0000
  C   C926      1.0  0.35306  0.52081  0.85970  1.0000
  C   C927      1.0  0.34916  0.53385  0.82731  1.0000
  C   C928      1.0  0.35833  0.53899  0.85930  1.0000
  C   C929      1.0  0.35427  0.55202  0.82716  1.0000
  C   C930      1.0  0.35905  0.55451  0.84303  1.0000
  H   H1081     1.0  0.35442  0.49819  0.81442  1.0000
  H   H1082     1.0  0.33710  0.48151  0.82686  1.0000
  H   H1083     1.0  0.32732  0.50836  0.82173  1.0000
  H   H1084     1.0  0.35854  0.46575  0.84842  1.0000
  H   H1085     1.0  0.36289  0.47886  0.86364  1.0000
  H   H1086     1.0  0.37571  0.48316  0.83921  1.0000
  H   H1087     1.0  0.32669  0.49385  0.87318  1.0000
  H   H1088     1.0  0.31183  0.50746  0.85579  1.0000
  H   H1089     1.0  0.32078  0.48014  0.85922  1.0000
  H   H1090     1.0  0.35278  0.50921  0.87263  1.0000
  H   H1091     1.0  0.34633  0.53281  0.81426  1.0000
  H   H1092     1.0  0.36222  0.54098  0.87156  1.0000
  H   H1093     1.0  0.35530  0.56400  0.81440  1.0000
  H   H1094     1.0  0.36378  0.56832  0.84254  1.0000
  C   C931      1.0  0.29136  0.33981  0.96648  1.0000
  C   C932      1.0  0.18065  0.34126  0.94824  1.0000
  C   C933      1.0  0.19340  0.34968  0.85446  1.0000
  H   H1095     1.0  0.32626  0.32791  0.91701  1.0000
  H   H1096     1.0  0.33444  0.39208  0.95274  1.0000
  C   C934      1.0  0.08187  0.32941  0.91758  1.0000
  C   C935      1.0  0.42872  0.65539  0.86477  1.0000
  H   H1097     1.0  0.46781  0.50831  0.75798  1.0000
  H   H1098     1.0  0.36280  0.32663  0.90798  1.0000
  H   H1099     1.0  0.46731  0.65493  0.81344  1.0000
  H   H1100     1.0  0.35168  0.41059  0.76985  1.0000
  H   H1101     1.0  0.46324  0.62756  0.85259  1.0000
  H   H1102     1.0  0.21452  0.37446  0.96483  1.0000
  H   H1103     1.0  0.13262  0.35094  0.97444  1.0000
  S   S246      1.0  0.03333  0.41327  0.78508  1.0000
  C   C936      1.0  0.17156  0.38484  0.97956  1.0000
  H   H1104     1.0  0.10320  0.35411  0.81361  1.0000
  C   C937      1.0  0.09849  0.36126  0.82607  1.0000
  C   C938      1.0  0.18741  0.41412  0.96921  1.0000
  S   S247      1.0  0.48771  0.47812  0.79136  1.0000
  H   H1105     1.0  0.18454  0.37083  0.82984  1.0000
  C   C939      1.0  0.14053  0.34279  0.82541  1.0000
  C   C940      1.0  0.39008  0.65379  0.83648  1.0000
  H   H1106     1.0  0.36791  0.38475  0.75371  1.0000
  C   C941      1.0  0.43314  0.52447  0.74144  1.0000
  C   C942      1.0  0.18681  0.34001  0.87327  1.0000
  C   C943      1.0  0.33723  0.37601  0.93108  1.0000
  C   C944      1.0  0.17934  0.36296  0.84426  1.0000
  C   C945      1.0  0.21628  0.37367  0.97883  1.0000
  C   C946      1.0  0.34045  0.35962  0.96324  1.0000
  H   H1107     1.0  0.44910  0.41086  0.74678  1.0000
  H   H1108     1.0  0.48524  0.62735  0.79270  1.0000
  H   H1109     1.0  0.39151  0.63870  0.83426  1.0000
  S   S248      1.0  0.09603  0.33641  0.94527  1.0000
  C   C947      1.0  0.15416  0.40609  0.91013  1.0000
  Fe  Fe121     1.0  0.27360  0.33739  0.92932  1.0000
  N   N64       1.0  0.00938  0.47210  0.85476  1.0000
  H   H1110     1.0  0.46341  0.50911  0.80937  1.0000
  Fe  Fe122     1.0  0.46411  0.59655  0.79248  1.0000
  H   H1111     1.0  0.13869  0.41318  0.91593  1.0000
  Fe  Fe123     1.0  0.42553  0.62930  0.79677  1.0000
  Fe  Fe124     1.0  0.43650  0.60725  0.76461  1.0000
  C   C948      1.0  0.34254  0.39983  0.78029  1.0000
  H   H1112     1.0  0.01657  0.44058  0.85288  1.0000
  H   H1113     1.0  0.10597  0.37450  0.82269  1.0000
  H   H1114     1.0  0.00884  0.50592  0.82370  1.0000
  H   H1115     1.0  0.17361  0.42435  0.96442  1.0000
  H   H1116     1.0  0.34353  0.49526  0.74594  1.0000
  H   H1117     1.0  0.16235  0.35773  0.91280  1.0000
  H   H1118     1.0  0.32046  0.42728  0.75574  1.0000
  C   C949      1.0  0.09660  0.35717  0.85909  1.0000
  N   N65       1.0  0.10330  0.34627  0.84338  1.0000
  H   H1119     1.0  0.45273  0.53616  0.80739  1.0000
  H   H1120     1.0  0.99902  0.42464  0.76288  1.0000
  H   H1121     1.0  0.45419  0.56199  0.74446  1.0000
  C   C950      1.0  0.34017  0.35676  0.92647  1.0000
  Fe  Fe125     1.0  0.23639  0.36507  0.91544  1.0000
  H   H1122     1.0  0.16562  0.40590  0.93399  1.0000
  H   H1123     1.0  0.43541  0.51411  0.75518  1.0000
  H   H1124     1.0  0.20958  0.34712  0.84792  1.0000
  N   N66       1.0  0.48087  0.52561  0.81726  1.0000
  C   C951      1.0  0.49097  0.50654  0.82869  1.0000
  H   H1125     1.0  0.32094  0.38420  0.89865  1.0000
  C   C952      1.0  0.02339  0.49542  0.82390  1.0000
  C   C953      1.0  0.33516  0.38825  0.75501  1.0000
  H   H1126     1.0  0.15715  0.36842  0.95003  1.0000
  H   H1127     1.0  0.14774  0.37742  0.84509  1.0000
  H   H1128     1.0  0.46854  0.55697  0.81914  1.0000
  C   C954      1.0  0.35652  0.38298  0.74739  1.0000
  S   S249      1.0  0.01457  0.45901  0.76112  1.0000
  C   C955      1.0  0.28725  0.36114  0.96047  1.0000
  H   H1129     1.0  0.30895  0.38793  0.80058  1.0000
  C   C956      1.0  0.16142  0.35207  0.95550  1.0000
  H   H1130     1.0  0.47979  0.41347  0.75420  1.0000
  H   H1131     1.0  0.03688  0.51297  0.79707  1.0000
  Fe  Fe126     1.0  0.03681  0.43045  0.75486  1.0000
  C   C957      1.0  0.15019  0.34976  0.91343  1.0000
  H   H1132     1.0  0.07379  0.34519  0.91570  1.0000
  H   H1133     1.0  0.00450  0.50516  0.75181  1.0000
  H   H1134     1.0  0.10537  0.36930  0.85643  1.0000
  H   H1135     1.0  0.38981  0.42324  0.74526  1.0000
  S   S250      1.0  0.04596  0.50112  0.75225  1.0000
  H   H1136     1.0  0.33436  0.39034  0.92107  1.0000
  C   C958      1.0  0.49490  0.53091  0.79874  1.0000
  C   C959      1.0  0.35967  0.34244  0.89935  1.0000
  H   H1137     1.0  0.47629  0.52851  0.78054  1.0000
  H   H1138     1.0  0.34826  0.38333  0.89149  1.0000
  H   H1139     1.0  0.11061  0.32946  0.98111  1.0000
  H   H1140     1.0  0.09871  0.34671  0.87283  1.0000
  H   H1141     1.0  0.19752  0.40831  0.95672  1.0000
  C   C960      1.0  0.15862  0.36649  0.85277  1.0000
  H   H1142     1.0  0.42968  0.64125  0.86092  1.0000
  C   C961      1.0  0.47589  0.54234  0.82750  1.0000
  S   S251      1.0  0.40773  0.61320  0.78669  1.0000
  S   S252      1.0  0.10808  0.38991  0.93191  1.0000
  N   N67       1.0  0.33983  0.35471  0.90752  1.0000
  C   C962      1.0  0.47260  0.63925  0.84940  1.0000
  H   H1143     1.0  0.45068  0.51909  0.82990  1.0000
  C   C963      1.0  0.03944  0.49977  0.80850  1.0000
  C   C964      1.0  0.15187  0.35665  0.87146  1.0000
  H   H1144     1.0  0.15673  0.39383  0.97595  1.0000
  C   C965      1.0  0.16574  0.34307  0.88232  1.0000
  C   C966      1.0  0.01608  0.46691  0.87292  1.0000
  H   H1145     1.0  0.44446  0.64824  0.82868  1.0000
  H   H1146     1.0  0.46516  0.53904  0.84141  1.0000
  H   H1147     1.0  0.34883  0.51181  0.75749  1.0000
  H   H1148     1.0  0.30858  0.35175  0.91714  1.0000
  H   H1149     1.0  0.00334  0.46397  0.88535  1.0000
  H   H1150     1.0  0.30547  0.38873  0.75016  1.0000
  Fe  Fe127     1.0  0.01324  0.44276  0.79134  1.0000
  S   S253      1.0  0.35065  0.45148  0.74635  1.0000
  H   H1151     1.0  0.99824  0.48075  0.80454  1.0000
  H   H1152     1.0  0.36804  0.64940  0.86299  1.0000
  H   H1153     1.0  0.18084  0.37909  0.96679  1.0000
  H   H1154     1.0  0.07454  0.33730  0.84799  1.0000
  C   C967      1.0  0.23459  0.36211  0.98379  1.0000
  H   H1155     1.0  0.19140  0.34920  0.93724  1.0000
  H   H1156     1.0  0.30725  0.42438  0.78010  1.0000
  H   H1157     1.0  0.37254  0.34965  0.89830  1.0000
  C   C968      1.0  0.00368  0.45398  0.85257  1.0000
  H   H1158     1.0  0.48069  0.50148  0.84244  1.0000
  H   H1159     1.0  0.08008  0.36472  0.86101  1.0000
  C   C969      1.0  0.34364  0.51150  0.74490  1.0000
  C   C970      1.0  0.09458  0.42757  0.98229  1.0000
  H   H1160     1.0  0.46934  0.47253  0.74084  1.0000
  H   H1161     1.0  0.37298  0.59287  0.74273  1.0000
  C   C971      1.0  0.12530  0.33661  0.84151  1.0000
  H   H1162     1.0  0.99925  0.45687  0.83882  1.0000
  C   C972      1.0  0.14745  0.34189  0.96953  1.0000
  H   H1163     1.0  0.17251  0.33791  0.81164  1.0000
  C   C973      1.0  0.16115  0.33313  0.82407  1.0000
  C   C974      1.0  0.29612  0.33077  0.98416  1.0000
  C   C975      1.0  0.47692  0.51279  0.74397  1.0000
  H   H1164     1.0  0.41668  0.53228  0.74406  1.0000
  C   C976      1.0  0.09105  0.33043  0.84755  1.0000
  N   N68       1.0  0.18197  0.39732  0.98545  1.0000
  C   C977      1.0  0.34333  0.34056  0.95921  1.0000
  H   H1165     1.0  0.34490  0.32691  0.97038  1.0000
  H   H1166     1.0  0.38459  0.50672  0.73751  1.0000
  Fe  Fe128     1.0  0.34549  0.89396  0.07199  1.0000
  S   S254      1.0  0.37167  0.88113  0.08670  1.0000
  S   S255      1.0  0.31198  0.89663  0.08518  1.0000
  Fe  Fe129     1.0  0.37282  0.90320  0.03312  1.0000
  S   S256      1.0  0.40162  0.89214  0.04415  1.0000
  S   S257      1.0  0.37310  0.91685  0.00220  1.0000
  Fe  Fe130     1.0  0.38711  0.86603  0.06213  1.0000
  S   S258      1.0  0.40357  0.83315  0.06461  1.0000
  Fe  Fe131     1.0  0.38413  0.90827  0.06770  1.0000
  S   S259      1.0  0.39768  0.92936  0.07649  1.0000
  S   S260      1.0  0.35960  0.87586  0.04961  1.0000
  S   S261      1.0  0.35681  0.92208  0.05471  1.0000
  Fe  Fe132     1.0  0.35320  0.72570  0.02801  1.0000
  S   S262      1.0  0.35398  0.70790  0.00705  1.0000
  Fe  Fe133     1.0  0.36079  0.76377  0.03396  1.0000
  S   S263      1.0  0.35539  0.75291  0.06548  1.0000
  S   S264      1.0  0.36809  0.79424  0.01763  1.0000
  Fe  Fe134     1.0  0.32904  0.74220  0.06260  1.0000
  S   S265      1.0  0.30040  0.74267  0.08542  1.0000
  S   S266      1.0  0.38190  0.73461  0.02801  1.0000
  S   S267      1.0  0.33245  0.75585  0.03158  1.0000
  C   C978      1.0  0.17843  0.87974  0.10015  1.0000
  Fe  Fe135     1.0  0.20113  0.88538  0.04075  1.0000
  S   S268      1.0  0.22348  0.88985  0.01288  1.0000
  S   S269      1.0  0.17965  0.91424  0.04757  1.0000
  Fe  Fe136     1.0  0.22356  0.84183  0.05335  1.0000
  S   S270      1.0  0.24783  0.84294  0.02676  1.0000
  S   S271      1.0  0.22285  0.81458  0.07775  1.0000
  Fe  Fe137     1.0  0.24721  0.87417  0.02980  1.0000
  S   S272      1.0  0.27591  0.88618  0.02131  1.0000
  Fe  Fe138     1.0  0.22195  0.85843  0.01211  1.0000
  S   S273      1.0  0.47093  0.96709  0.14122  1.0000
  S   S274      1.0  0.22523  0.87184  0.05775  1.0000
  S   S275      1.0  0.19727  0.85495  0.03865  1.0000
  Fe  Fe139     1.0  0.07826  0.94646  0.15662  1.0000
  S   S276      1.0  0.09556  0.95637  0.12699  1.0000
  S   S277      1.0  0.09436  0.93727  0.18059  1.0000
  Fe  Fe140     1.0  0.03860  0.95187  0.14455  1.0000
  S   S278      1.0  0.05253  0.96184  0.11394  1.0000
  Fe  Fe141     1.0  0.07927  0.93645  0.11999  1.0000
  S   S279      1.0  0.09361  0.91147  0.10382  1.0000
  N   N69       1.0  0.33810  0.96556  0.18542  1.0000
  S   S280      1.0  0.06391  0.92482  0.15006  1.0000
  H   H1167     1.0  0.23885  0.93205  0.02850  1.0000
  Fe  Fe142     1.0  0.43121  0.93454  0.20141  1.0000
  C   C979      1.0  0.31402  0.70013  0.13201  1.0000
  C   C980      1.0  0.35845  0.98821  0.15816  1.0000
  Fe  Fe143     1.0  0.40755  0.93716  0.17229  1.0000
  C   C981      1.0  0.47176  0.66037  0.21586  1.0000
  S   S281      1.0  0.39023  0.91922  0.16391  1.0000
  H   H1168     1.0  0.43490  0.68623  0.04346  1.0000
  H   H1169     1.0  0.14051  0.86476  0.16808  1.0000
  H   H1170     1.0  0.48056  0.95766  0.19792  1.0000
  H   H1171     1.0  0.34734  0.71635  0.12125  1.0000
  S   S282      1.0  0.44071  0.92617  0.17323  1.0000
  S   S283      1.0  0.39769  0.94261  0.20183  1.0000
  C   C982      1.0  0.27564  0.74465  0.04138  1.0000
  H   H1172     1.0  0.42565  0.87489  0.11832  1.0000
  C   C983      1.0  0.31121  0.95623  0.04327  1.0000
  H   H1173     1.0  0.11332  0.88039  0.12921  1.0000
  C   C984      1.0  0.22062  0.79012  0.04422  1.0000
  H   H1174     1.0  0.30113  0.98355  0.00084  1.0000
  H   H1175     1.0  0.33852  0.94925  0.15589  1.0000
  H   H1176     1.0  0.28235  0.73671  0.99749  1.0000
  H   H1177     1.0  0.29906  0.96571  0.05223  1.0000
  C   C985      1.0  0.07724  0.93899  0.20234  1.0000
  C   C986      1.0  0.24717  0.76600  0.02681  1.0000
  C   C987      1.0  0.38844  0.66846  0.07926  1.0000
  H   H1178     1.0  0.36066  0.70257  0.10314  1.0000
  C   C988      1.0  0.15576  0.91313  0.06314  1.0000
  C   C989      1.0  0.14794  0.89533  0.06876  1.0000
  C   C990      1.0  0.12874  0.89503  0.08116  1.0000
  C   C991      1.0  0.11743  0.91243  0.08809  1.0000
  C   C992      1.0  0.12538  0.93013  0.08267  1.0000
  C   C993      1.0  0.14446  0.93051  0.07012  1.0000
  H   H1179     1.0  0.15659  0.88188  0.06344  1.0000
  H   H1180     1.0  0.12263  0.88129  0.08537  1.0000
  H   H1181     1.0  0.11668  0.94365  0.08786  1.0000
  H   H1182     1.0  0.15045  0.94432  0.06574  1.0000
  H   H1183     1.0  0.34164  0.83706  0.03631  1.0000
  H   H1184     1.0  0.00712  0.97870  0.11159  1.0000
  H   H1185     1.0  0.47515  0.97642  0.17676  1.0000
  H   H1186     1.0  0.26799  0.88101  0.98850  1.0000
  H   H1187     1.0  0.49121  0.94279  0.10961  1.0000
  C   C994      1.0  0.25709  0.75895  0.04229  1.0000
  S   S284      1.0  0.39753  0.70544  0.07684  1.0000
  H   H1188     1.0  0.18135  0.83022  0.12351  1.0000
  H   H1189     1.0  0.30944  0.98586  0.18187  1.0000
  H   H1190     1.0  0.34657  0.69571  0.15082  1.0000
  C   C995      1.0  0.27961  0.76340  0.08275  1.0000
  C   C996      1.0  0.28025  0.77950  0.06675  1.0000
  C   C997      1.0  0.26299  0.79552  0.06508  1.0000
  C   C998      1.0  0.24517  0.79545  0.07941  1.0000
  C   C999      1.0  0.24466  0.77932  0.09530  1.0000
  C   C1000     1.0  0.26179  0.76340  0.09698  1.0000
  H   H1191     1.0  0.29386  0.77939  0.05556  1.0000
  H   H1192     1.0  0.26337  0.80768  0.05262  1.0000
  H   H1193     1.0  0.23092  0.77908  0.10637  1.0000
  H   H1194     1.0  0.26117  0.75097  0.10934  1.0000
  C   C1001     1.0  0.25223  0.93768  0.02775  1.0000
  H   H1195     1.0  0.01385  0.91371  0.19006  1.0000
  H   H1196     1.0  0.02631  0.94926  0.22174  1.0000
  C   C1002     1.0  0.34100  0.88091  0.99340  1.0000
  H   H1197     1.0  0.47897  0.66157  0.07794  1.0000
  C   C1003     1.0  0.99843  0.89945  0.15036  1.0000
  H   H1198     1.0  0.41466  0.67751  0.10700  1.0000
  C   C1004     1.0  0.39402  0.92747  0.10090  1.0000
  C   C1005     1.0  0.40200  0.94035  0.10705  1.0000
  C   C1006     1.0  0.40076  0.93808  0.12640  1.0000
  C   C1007     1.0  0.39128  0.92309  0.13967  1.0000
  C   C1008     1.0  0.38259  0.91077  0.13358  1.0000
  C   C1009     1.0  0.38398  0.91294  0.11424  1.0000
  H   H1199     1.0  0.40939  0.95184  0.09673  1.0000
  H   H1200     1.0  0.40712  0.94786  0.13106  1.0000
  H   H1201     1.0  0.37513  0.89922  0.14381  1.0000
  H   H1202     1.0  0.37757  0.90312  0.10972  1.0000
  C   C1010     1.0  0.39657  0.82165  0.04998  1.0000
  C   C1011     1.0  0.39627  0.80077  0.05534  1.0000
  C   C1012     1.0  0.38828  0.79199  0.04501  1.0000
  C   C1013     1.0  0.38068  0.80408  0.02925  1.0000
  C   C1014     1.0  0.38200  0.82467  0.02330  1.0000
  C   C1015     1.0  0.38997  0.83346  0.03361  1.0000
  H   H1203     1.0  0.40155  0.79153  0.06788  1.0000
  H   H1204     1.0  0.38778  0.77595  0.04944  1.0000
  H   H1205     1.0  0.37590  0.83404  0.01125  1.0000
  H   H1206     1.0  0.39069  0.84945  0.02910  1.0000
  C   C1016     1.0  0.30028  0.89568  0.06773  1.0000
  C   C1017     1.0  0.31029  0.90022  0.04880  1.0000
  C   C1018     1.0  0.30203  0.89817  0.03467  1.0000
  C   C1019     1.0  0.28397  0.89107  0.03940  1.0000
  C   C1020     1.0  0.27340  0.88726  0.05831  1.0000
  C   C1021     1.0  0.28148  0.88975  0.07249  1.0000
  H   H1207     1.0  0.32446  0.90533  0.04506  1.0000
  H   H1208     1.0  0.30977  0.90179  0.02003  1.0000
  H   H1209     1.0  0.25927  0.88206  0.06210  1.0000
  H   H1210     1.0  0.27356  0.88642  0.08714  1.0000
  H   H1211     1.0  0.33700  0.72045  0.10106  1.0000
  C   C1022     1.0  0.34622  0.96190  0.15169  1.0000
  C   C1023     1.0  0.25689  0.93855  0.04428  1.0000
  Fe  Fe144     1.0  0.44265  0.95903  0.16183  1.0000
  C   C1024     1.0  0.34958  0.89079  0.00218  1.0000
  H   H1212     1.0  0.45022  0.91313  0.13785  1.0000
  C   C1025     1.0  0.32471  0.94747  0.01297  1.0000
  H   H1213     1.0  0.34739  0.88690  0.01725  1.0000
  H   H1214     1.0  0.33250  0.86931  0.00180  1.0000
  H   H1215     1.0  0.32571  0.96105  0.04181  1.0000
  H   H1216     1.0  0.35618  0.77823  0.99155  1.0000
  H   H1217     1.0  0.02271  0.91182  0.15281  1.0000
  H   H1218     1.0  0.29194  0.95486  0.99558  1.0000
  S   S285      1.0  0.05140  0.97248  0.15419  1.0000
  H   H1219     1.0  0.46040  0.95134  0.07534  1.0000
  H   H1220     1.0  0.15687  0.90542  0.10808  1.0000
  H   H1221     1.0  0.12520  0.88894  0.17188  1.0000
  H   H1222     1.0  0.44457  0.94920  0.12672  1.0000
  C   C1026     1.0  0.36540  0.98367  0.12611  1.0000
  H   H1223     1.0  0.23223  0.79803  0.04494  1.0000
  H   H1224     1.0  0.00730  0.88395  0.15152  1.0000
  H   H1225     1.0  0.48115  0.95725  0.08085  1.0000
  H   H1226     1.0  0.28301  0.73958  0.05332  1.0000
  H   H1227     1.0  0.30433  0.71181  0.12282  1.0000
  C   C1027     1.0  0.22887  0.79809  0.01051  1.0000
  S   S286      1.0  0.00466  0.95459  0.15362  1.0000
  C   C1028     1.0  0.34218  0.97666  0.19781  1.0000
  H   H1228     1.0  0.33514  0.97134  0.21297  1.0000
  C   C1029     1.0  0.00503  0.90659  0.20338  1.0000
  H   H1229     1.0  0.23161  0.79328  0.99702  1.0000
  H   H1230     1.0  0.25084  0.76416  0.05534  1.0000
  H   H1231     1.0  0.00218  0.98045  0.20537  1.0000
  C   C1030     1.0  0.40758  0.66913  0.10134  1.0000
  H   H1232     1.0  0.28600  0.84713  0.05684  1.0000
  H   H1233     1.0  0.45855  0.98329  0.20876  1.0000
  C   C1031     1.0  0.13813  0.88143  0.16182  1.0000
  H   H1234     1.0  0.35888  0.97419  0.19693  1.0000
  C   C1032     1.0  0.45026  0.95366  0.11118  1.0000
  C   C1033     1.0  0.17593  0.84669  0.12061  1.0000
  C   C1034     1.0  0.31565  0.96944  0.18756  1.0000
  C   C1035     1.0  0.34618  0.67560  0.13329  1.0000
  S   S287      1.0  0.41030  0.96949  0.15806  1.0000
  C   C1036     1.0  0.18543  0.85862  0.10418  1.0000
  H   H1235     1.0  0.38140  0.76234  0.98984  1.0000
  N   N70       1.0  0.33410  0.69164  0.12074  1.0000
  Fe  Fe145     1.0  0.06723  0.98075  0.12393  1.0000
  H   H1236     1.0  0.24708  0.93353  0.05781  1.0000
  N   N71       1.0  0.30650  0.95862  0.02461  1.0000
  H   H1237     1.0  0.18561  0.88897  0.08714  1.0000
  H   H1238     1.0  0.43673  0.89272  0.08528  1.0000
  H   H1239     1.0  0.12348  0.91420  0.12324  1.0000
  H   H1240     1.0  0.14092  0.91648  0.13610  1.0000
  C   C1037     1.0  0.11591  0.87831  0.14361  1.0000
  H   H1241     1.0  0.43237  0.88544  0.14442  1.0000
  C   C1038     1.0  0.26503  0.94360  0.01035  1.0000
  H   H1242     1.0  0.38107  0.67610  0.06756  1.0000
  H   H1243     1.0  0.31556  0.70794  0.14239  1.0000
  H   H1244     1.0  0.39326  0.97155  0.22640  1.0000
  C   C1039     1.0  0.35493  0.96774  0.13249  1.0000
  C   C1040     1.0  0.05614  0.94281  0.20374  1.0000
  Fe  Fe146     1.0  0.37418  0.72278  0.05937  1.0000
  H   H1245     1.0  0.37249  0.98783  0.11126  1.0000
  S   S288      1.0  0.34736  0.71117  0.05890  1.0000
  H   H1246     1.0  0.39118  0.86032  0.99133  1.0000
  H   H1247     1.0  0.28555  0.82145  0.07079  1.0000
  C   C1041     1.0  0.15935  0.85584  0.13309  1.0000
  H   H1248     1.0  0.35408  0.95944  0.12256  1.0000
  C   C1042     1.0  0.27527  0.74306  0.00996  1.0000
  C   C1043     1.0  0.44270  0.67324  0.05251  1.0000
  N   N72       1.0  0.31566  0.82716  0.05679  1.0000
  C   C1044     1.0  0.29343  0.83074  0.05763  1.0000
  C   C1045     1.0  0.32444  0.80529  0.05644  1.0000
  C   C1046     1.0  0.32039  0.83217  0.07277  1.0000
  C   C1047     1.0  0.30505  0.84063  0.08703  1.0000
  C   C1048     1.0  0.34101  0.82915  0.07407  1.0000
  C   C1049     1.0  0.31023  0.84600  0.10141  1.0000
  C   C1050     1.0  0.34601  0.83451  0.08852  1.0000
  C   C1051     1.0  0.33065  0.84309  0.10208  1.0000
  H   H1249     1.0  0.29051  0.82668  0.04548  1.0000
  H   H1250     1.0  0.32132  0.80103  0.04448  1.0000
  H   H1251     1.0  0.31807  0.79515  0.06984  1.0000
  H   H1252     1.0  0.28896  0.84383  0.08712  1.0000
  H   H1253     1.0  0.35351  0.82305  0.06364  1.0000
  H   H1254     1.0  0.29837  0.85329  0.11167  1.0000
  H   H1255     1.0  0.36194  0.83247  0.08889  1.0000
  H   H1256     1.0  0.33458  0.84796  0.11285  1.0000
  C   C1052     1.0  0.34781  0.97185  0.16519  1.0000
  H   H1257     1.0  0.19809  0.85143  0.09442  1.0000
  C   C1053     1.0  0.28258  0.95034  0.00941  1.0000
  C   C1054     1.0  0.21132  0.77060  0.02739  1.0000
  H   H1258     1.0  0.32657  0.93067  0.01822  1.0000
  H   H1259     1.0  0.36633  0.66949  0.17183  1.0000
  N   N73       1.0  0.13385  0.88654  0.14265  1.0000
  C   C1055     1.0  0.12816  0.90918  0.13704  1.0000
  C   C1056     1.0  0.16181  0.88906  0.11247  1.0000
  H   H1260     1.0  0.33918  0.95141  0.01310  1.0000
  C   C1057     1.0  0.00490  0.91140  0.22024  1.0000
  C   C1058     1.0  0.04258  0.94557  0.22089  1.0000
  H   H1261     1.0  0.15227  0.84592  0.14549  1.0000
  C   C1059     1.0  0.27447  0.94513  0.04354  1.0000
  C   C1060     1.0  0.33004  0.68410  0.10579  1.0000
  H   H1262     1.0  0.10159  0.88618  0.15199  1.0000
  H   H1263     1.0  0.32119  0.83717  0.02635  1.0000
  H   H1264     1.0  0.32076  0.69648  0.09673  1.0000
  N   N74       1.0  0.22738  0.78093  0.02735  1.0000
  H   H1265     1.0  0.15204  0.88667  0.16146  1.0000
  C   C1061     1.0  0.34572  0.94341  0.19250  1.0000
  C   C1062     1.0  0.45780  0.67553  0.06017  1.0000
  H   H1266     1.0  0.31902  0.85653  0.03884  1.0000
  H   H1267     1.0  0.34452  0.67837  0.09616  1.0000
  C   C1063     1.0  0.48739  0.96727  0.18438  1.0000
  C   C1064     1.0  0.07112  0.93968  0.23552  1.0000
  H   H1268     1.0  0.45719  0.96715  0.10861  1.0000
  H   H1269     1.0  0.36262  0.93984  0.19052  1.0000
  H   H1270     1.0  0.10103  0.93432  0.21724  1.0000
  H   H1271     1.0  0.33927  0.93827  0.20783  1.0000
  H   H1272     1.0  0.19607  0.78123  0.02815  1.0000
  C   C1065     1.0  0.08471  0.93735  0.21826  1.0000
  C   C1066     1.0  0.32477  0.83998  0.03881  1.0000
  H   H1273     1.0  0.11491  0.91563  0.14746  1.0000
  H   H1274     1.0  0.11779  0.86172  0.15013  1.0000
  H   H1275     1.0  0.20615  0.80188  0.04398  1.0000
  H   H1276     1.0  0.31130  0.96025  0.17991  1.0000
  H   H1277     1.0  0.21449  0.81007  0.01101  1.0000
  H   H1278     1.0  0.48442  0.91460  0.23420  1.0000
  H   H1279     1.0  0.20994  0.75743  0.03973  1.0000
  C   C1067     1.0  0.39770  0.67931  0.08644  1.0000
  H   H1280     1.0  0.29908  0.72558  0.02466  1.0000
  H   H1281     1.0  0.05681  0.98168  0.20131  1.0000
  H   H1282     1.0  0.32447  0.74618  0.99990  1.0000
  H   H1283     1.0  0.21462  0.76458  0.01440  1.0000
  H   H1284     1.0  0.05721  0.99083  0.22725  1.0000
  C   C1068     1.0  0.15177  0.87734  0.12942  1.0000
  H   H1285     1.0  0.34132  0.80149  0.05458  1.0000
  H   H1286     1.0  0.05026  0.94394  0.19155  1.0000
  N   N75       1.0  0.46510  0.93665  0.10348  1.0000
  Fe  Fe147     1.0  0.40286  0.97426  0.18764  1.0000
  C   C1069     1.0  0.35123  0.68038  0.14837  1.0000
  H   H1287     1.0  0.48408  0.93249  0.07635  1.0000
  C   C1070     1.0  0.45499  0.91927  0.10714  1.0000
  C   C1071     1.0  0.45074  0.91287  0.09250  1.0000
  C   C1072     1.0  0.44826  0.90869  0.12595  1.0000
  C   C1073     1.0  0.44056  0.89682  0.09659  1.0000
  C   C1074     1.0  0.43806  0.89271  0.12987  1.0000
  C   C1075     1.0  0.43421  0.88679  0.11522  1.0000
  H   H1288     1.0  0.31309  0.93998  0.05117  1.0000
  H   H1289     1.0  0.43676  0.95886  0.10461  1.0000
  C   C1076     1.0  0.34522  0.70846  0.11121  1.0000
  H   H1290     1.0  0.34206  0.93355  0.18508  1.0000
  H   H1291     1.0  0.46186  0.69033  0.05678  1.0000
  S   S289      1.0  0.44719  0.91498  0.22424  1.0000
  C   C1077     1.0  0.30344  0.98068  0.01544  1.0000
  C   C1078     1.0  0.28800  0.95110  0.02601  1.0000
  H   H1292     1.0  0.48658  0.66440  0.21254  1.0000
  H   H1293     1.0  0.45450  0.92036  0.07780  1.0000
  C   C1079     1.0  0.28472  0.73674  0.02526  1.0000
  C   C1080     1.0  0.45342  0.93135  0.23469  1.0000
  S   S290      1.0  0.43543  0.96677  0.19008  1.0000
  H   H1294     1.0  0.09328  0.98025  0.18671  1.0000
  H   H1295     1.0  0.24991  0.76152  0.99857  1.0000
  H   H1296     1.0  0.42575  0.84419  0.99918  1.0000
  C   C1081     1.0  0.48265  0.93033  0.11292  1.0000
  H   H1297     1.0  0.26141  0.94270  0.99757  1.0000
  C   C1082     1.0  0.47303  0.94469  0.08308  1.0000
  H   H1298     1.0  0.21760  0.77856  0.05764  1.0000
  C   C1083     1.0  0.25675  0.75740  0.01069  1.0000
  C   C1084     1.0  0.34236  0.72052  0.98788  1.0000
  H   H1299     1.0  0.30542  0.68785  0.13992  1.0000
  C   C1085     1.0  0.99541  0.93508  0.15018  1.0000
  H   H1300     1.0  0.27732  0.94486  0.05698  1.0000
  H   H1301     1.0  0.32127  0.67169  0.11193  1.0000
  H   H1302     1.0  0.31690  0.98706  0.01437  1.0000
  H   H1303     1.0  0.24137  0.80574  0.00957  1.0000
  H   H1304     1.0  0.49353  0.91661  0.10858  1.0000
  C   C1086     1.0  0.36073  0.90567  0.99148  1.0000
  C   C1087     1.0  0.36254  0.66551  0.16047  1.0000
  H   H1305     1.0  0.30767  0.96548  0.20266  1.0000
  C   C1088     1.0  0.32850  0.73929  0.98785  1.0000
  H   H1306     1.0  0.47778  0.92676  0.12859  1.0000
  H   H1307     1.0  0.01396  0.92214  0.21935  1.0000
  C   C1089     1.0  0.00715  0.91520  0.15106  1.0000
  C   C1090     1.0  0.45845  0.66185  0.23336  1.0000
  H   H1308     1.0  0.28973  0.98961  0.02358  1.0000
  C   C1091     1.0  0.38893  0.98603  0.23060  1.0000
  H   H1309     1.0  0.32407  0.95081  0.99786  1.0000
  C   C1092     1.0  0.05003  0.94388  0.23683  1.0000
  H   H1310     1.0  0.42363  0.95105  0.23701  1.0000
  H   H1311     1.0  0.21445  0.70275  0.32016  1.0000
  H   H1312     1.0  0.18312  0.76345  0.32456  1.0000
  H   H1313     1.0  0.23469  0.77592  0.46720  1.0000
  H   H1314     1.0  0.11863  0.87814  0.42164  1.0000
  H   H1315     1.0  0.43678  0.67845  0.26512  1.0000
  C   C1093     1.0  0.20009  0.66261  0.41095  1.0000
  Fe  Fe148     1.0  0.27176  0.67065  0.42660  1.0000
  S   S291      1.0  0.09670  0.70206  0.38212  1.0000
  C   C1094     1.0  0.27415  0.73385  0.46502  1.0000
  H   H1316     1.0  0.19228  0.81537  0.44434  1.0000
  C   C1095     1.0  0.07883  0.77118  0.44302  1.0000
  H   H1317     1.0  0.13302  0.70888  0.40253  1.0000
  C   C1096     1.0  0.05122  0.69413  0.35423  1.0000
  H   H1318     1.0  0.43357  0.93590  0.29082  1.0000
  H   H1319     1.0  0.17586  0.71133  0.44067  1.0000
  H   H1320     1.0  0.22160  0.71356  0.38935  1.0000
  C   C1097     1.0  0.46403  0.95944  0.24883  1.0000
  Fe  Fe149     1.0  0.28001  0.69309  0.38606  1.0000
  S   S292      1.0  0.29771  0.66485  0.37523  1.0000
  S   S293      1.0  0.27438  0.72417  0.36691  1.0000
  H   H1321     1.0  0.10124  0.95318  0.38317  1.0000
  H   H1322     1.0  0.19834  0.79390  0.31543  1.0000
  H   H1323     1.0  0.18463  0.86144  0.46390  1.0000
  C   C1098     1.0  0.13008  0.87013  0.42992  1.0000
  C   C1099     1.0  0.13152  0.73834  0.41953  1.0000
  H   H1324     1.0  0.05822  0.70322  0.35983  1.0000
  C   C1100     1.0  0.24591  0.76378  0.46135  1.0000
  C   C1101     1.0  0.22235  0.72004  0.47282  1.0000
  S   S294      1.0  0.29673  0.68711  0.40924  1.0000
  C   C1102     1.0  0.19658  0.79118  0.33099  1.0000
  S   S295      1.0  0.25406  0.67856  0.40403  1.0000
  C   C1103     1.0  0.20798  0.76987  0.35870  1.0000
  Fe  Fe150     1.0  0.15123  0.78265  0.38386  1.0000
  S   S296      1.0  0.16400  0.81121  0.37423  1.0000
  S   S297      1.0  0.15324  0.76544  0.36188  1.0000
  Fe  Fe151     1.0  0.14273  0.78347  0.42534  1.0000
  S   S298      1.0  0.15416  0.81222  0.41909  1.0000
  S   S299      1.0  0.13444  0.76635  0.45554  1.0000
  Fe  Fe152     1.0  0.13706  0.82316  0.39558  1.0000
  S   S300      1.0  0.11707  0.85497  0.39155  1.0000
  Fe  Fe153     1.0  0.17983  0.79771  0.39850  1.0000
  S   S301      1.0  0.21219  0.79826  0.39795  1.0000
  S   S302      1.0  0.12315  0.79530  0.40378  1.0000
  S   S303      1.0  0.16968  0.76814  0.40615  1.0000
  Fe  Fe154     1.0  0.04651  0.94716  0.28188  1.0000
  S   S304      1.0  0.04950  0.92167  0.30751  1.0000
  C   C1104     1.0  0.47317  0.92793  0.23766  1.0000
  H   H1325     1.0  0.07701  0.93809  0.24779  1.0000
  Fe  Fe155     1.0  0.07822  0.93136  0.30651  1.0000
  S   S305      1.0  0.10825  0.90940  0.30997  1.0000
  H   H1326     1.0  0.17919  0.84456  0.42357  1.0000
  S   S306      1.0  0.07665  0.95484  0.27920  1.0000
  C   C1105     1.0  0.25915  0.74986  0.47221  1.0000
  H   H1327     1.0  0.02479  0.99160  0.25603  1.0000
  C   C1106     1.0  0.20578  0.71404  0.39667  1.0000
  C   C1107     1.0  0.43890  0.94852  0.23918  1.0000
  H   H1328     1.0  0.23696  0.78154  0.31450  1.0000
  H   H1329     1.0  0.31261  0.70906  0.45455  1.0000
  C   C1108     1.0  0.17074  0.71724  0.39555  1.0000
  N   N76       1.0  0.14215  0.71676  0.42455  1.0000
  C   C1109     1.0  0.44408  0.96235  0.24657  1.0000
  C   C1110     1.0  0.08109  0.76557  0.46174  1.0000
  C   C1111     1.0  0.11430  0.86921  0.36865  1.0000
  C   C1112     1.0  0.09748  0.88558  0.36670  1.0000
  C   C1113     1.0  0.09516  0.89761  0.34874  1.0000
  C   C1114     1.0  0.10994  0.89367  0.33260  1.0000
  C   C1115     1.0  0.12683  0.87739  0.33454  1.0000
  C   C1116     1.0  0.12891  0.86505  0.35246  1.0000
  H   H1330     1.0  0.08610  0.88888  0.37913  1.0000
  H   H1331     1.0  0.08205  0.91006  0.34744  1.0000
  H   H1332     1.0  0.13833  0.87426  0.32213  1.0000
  H   H1333     1.0  0.14199  0.85260  0.35378  1.0000
  H   H1334     1.0  0.15206  0.95964  0.28608  1.0000
  H   H1335     1.0  0.39484  0.67574  0.26673  1.0000
  C   C1117     1.0  0.11836  0.80412  0.46412  1.0000
  H   H1336     1.0  0.40751  0.94975  0.31535  1.0000
  H   H1337     1.0  0.46381  0.66714  0.24294  1.0000
  H   H1338     1.0  0.21145  0.71014  0.42417  1.0000
  C   C1118     1.0  0.30204  0.70288  0.46768  1.0000
  H   H1339     1.0  0.11693  0.80972  0.44956  1.0000
  S   S307      1.0  0.02867  0.97091  0.29839  1.0000
  C   C1119     1.0  0.24727  0.76229  0.44297  1.0000
  C   C1120     1.0  0.25856  0.74421  0.37746  1.0000
  C   C1121     1.0  0.26005  0.76434  0.36822  1.0000
  C   C1122     1.0  0.24624  0.78080  0.37506  1.0000
  C   C1123     1.0  0.23037  0.77726  0.39083  1.0000
  C   C1124     1.0  0.22904  0.75712  0.40041  1.0000
  C   C1125     1.0  0.24352  0.74059  0.39401  1.0000
  H   H1340     1.0  0.27186  0.76722  0.35561  1.0000
  H   H1341     1.0  0.24747  0.79632  0.36776  1.0000
  H   H1342     1.0  0.21691  0.75437  0.41272  1.0000
  H   H1343     1.0  0.24279  0.72509  0.40157  1.0000
  H   H1344     1.0  0.17971  0.74393  0.45562  1.0000
  C   C1126     1.0  0.13961  0.85650  0.46020  1.0000
  S   S308      1.0  0.47039  0.97801  0.25654  1.0000
  H   H1345     1.0  0.00935  0.98728  0.35347  1.0000
  H   H1346     1.0  0.49381  0.93956  0.24658  1.0000
  C   C1127     1.0  0.13803  0.71044  0.44551  1.0000
  H   H1347     1.0  0.14387  0.94031  0.30579  1.0000
  C   C1128     1.0  0.19833  0.67444  0.46489  1.0000
  C   C1129     1.0  0.20408  0.66588  0.44895  1.0000
  C   C1130     1.0  0.22944  0.73743  0.33487  1.0000
  H   H1348     1.0  0.19559  0.71841  0.37111  1.0000
  C   C1131     1.0  0.07428  0.75751  0.43511  1.0000
  H   H1349     1.0  0.26302  0.74583  0.42106  1.0000
  H   H1350     1.0  0.08519  0.77667  0.46683  1.0000
  H   H1351     1.0  0.23859  0.71450  0.46790  1.0000
  H   H1352     1.0  0.19000  0.83954  0.48257  1.0000
  H   H1353     1.0  0.41026  0.68917  0.24621  1.0000
  H   H1354     1.0  0.10973  0.87390  0.45648  1.0000
  H   H1355     1.0  0.23716  0.77324  0.43443  1.0000
  C   C1132     1.0  0.08197  0.68746  0.30961  1.0000
  C   C1133     1.0  0.11108  0.96865  0.29833  1.0000
  C   C1134     1.0  0.18052  0.73403  0.48519  1.0000
  H   H1356     1.0  0.43274  0.97558  0.25008  1.0000
  H   H1357     1.0  0.11647  0.70476  0.42472  1.0000
  C   C1135     1.0  0.27507  0.73270  0.44624  1.0000
  H   H1358     1.0  0.21874  0.66747  0.43961  1.0000
  H   H1359     1.0  0.19318  0.76492  0.36508  1.0000
  S   S309      1.0  0.03260  0.94712  0.25812  1.0000
  H   H1360     1.0  0.19730  0.80562  0.33424  1.0000
  C   C1136     1.0  0.12510  0.86763  0.44949  1.0000
  C   C1137     1.0  0.48409  0.93882  0.30114  1.0000
  C   C1138     1.0  0.11254  0.81779  0.47621  1.0000
  H   H1361     1.0  0.20498  0.81643  0.46167  1.0000
  Fe  Fe156     1.0  0.05891  0.97676  0.29777  1.0000
  C   C1139     1.0  0.14974  0.86194  0.42094  1.0000
  H   H1362     1.0  0.21697  0.73127  0.44472  1.0000
  S   S310      1.0  0.10534  0.67722  0.48213  1.0000
  C   C1140     1.0  0.21298  0.75452  0.33245  1.0000
  H   H1363     1.0  0.07244  0.76198  0.42061  1.0000
  C   C1141     1.0  0.11063  0.72157  0.37422  1.0000
  C   C1142     1.0  0.10347  0.73948  0.38124  1.0000
  C   C1143     1.0  0.11600  0.75376  0.37682  1.0000
  C   C1144     1.0  0.13559  0.75013  0.36526  1.0000
  C   C1145     1.0  0.14210  0.73289  0.35731  1.0000
  C   C1146     1.0  0.12982  0.71847  0.36204  1.0000
  H   H1364     1.0  0.08856  0.74195  0.39060  1.0000
  H   H1365     1.0  0.11074  0.76729  0.38268  1.0000
  H   H1366     1.0  0.15720  0.73001  0.34837  1.0000
  H   H1367     1.0  0.13548  0.70473  0.35653  1.0000
  H   H1368     1.0  0.18481  0.73140  0.31680  1.0000
  H   H1369     1.0  0.08072  0.78624  0.43458  1.0000
  H   H1370     1.0  0.99687  0.94339  0.31557  1.0000
  C   C1147     1.0  0.19118  0.71663  0.38637  1.0000
  H   H1371     1.0  0.20708  0.78386  0.36361  1.0000
  C   C1148     1.0  0.13293  0.70389  0.41783  1.0000
  H   H1372     1.0  0.43165  0.98842  0.27887  1.0000
  H   H1373     1.0  0.16008  0.71992  0.38674  1.0000
  H   H1374     1.0  0.11466  0.74016  0.42395  1.0000
  H   H1375     1.0  0.14092  0.68756  0.42069  1.0000
  H   H1376     1.0  0.10675  0.83383  0.47089  1.0000
  C   C1149     1.0  0.16670  0.66267  0.47421  1.0000
  C   C1150     1.0  0.11452  0.94736  0.33776  1.0000
  H   H1377     1.0  0.36940  0.66600  0.33088  1.0000
  H   H1378     1.0  0.39792  0.67063  0.24401  1.0000
  C   C1151     1.0  0.16443  0.85082  0.43150  1.0000
  C   C1152     1.0  0.23014  0.71921  0.33005  1.0000
  H   H1379     1.0  0.15335  0.86370  0.40570  1.0000
  H   H1380     1.0  0.12142  0.71105  0.45174  1.0000
  C   C1153     1.0  0.44751  0.95342  0.30225  1.0000
  N   N77       1.0  0.12670  0.97102  0.30712  1.0000
  C   C1154     1.0  0.14600  0.95641  0.30165  1.0000
  H   H1381     1.0  0.29331  0.69364  0.46420  1.0000
  H   H1382     1.0  0.11506  0.71974  0.31782  1.0000
  S   S311      1.0  0.13385  0.66475  0.35002  1.0000
  C   C1155     1.0  0.26183  0.74680  0.43545  1.0000
  H   H1383     1.0  0.10180  0.67900  0.44503  1.0000
  H   H1384     1.0  0.15795  0.95708  0.30857  1.0000
  H   H1385     1.0  0.09210  0.70306  0.34469  1.0000
  C   C1156     1.0  0.15963  0.84742  0.45158  1.0000
  C   C1157     1.0  0.11843  0.98044  0.33918  1.0000
  C   C1158     1.0  0.44709  0.93712  0.29445  1.0000
  C   C1159     1.0  0.11180  0.97561  0.35885  1.0000
  H   H1386     1.0  0.07420  0.71652  0.47171  1.0000
  H   H1387     1.0  0.20845  0.68226  0.46756  1.0000
  H   H1388     1.0  0.13481  0.85464  0.47539  1.0000
  C   C1160     1.0  0.10794  0.94267  0.35742  1.0000
  H   H1389     1.0  0.31188  0.69196  0.47713  1.0000
  C   C1161     1.0  0.46668  0.95398  0.30515  1.0000
  H   H1390     1.0  0.06976  0.72704  0.43932  1.0000
  C   C1162     1.0  0.42670  0.97218  0.32633  1.0000
  H   H1391     1.0  0.13536  0.74475  0.40414  1.0000
  C   C1163     1.0  0.07272  0.73788  0.44568  1.0000
  C   C1164     1.0  0.21416  0.71712  0.32341  1.0000
  H   H1392     1.0  0.14605  0.69445  0.45021  1.0000
  C   C1165     1.0  0.48309  0.92298  0.29371  1.0000
  C   C1166     1.0  0.01449  0.90268  0.25858  1.0000
  H   H1393     1.0  0.24300  0.70647  0.33184  1.0000
  C   C1167     1.0  0.17944  0.71262  0.42558  1.0000
  C   C1168     1.0  0.17860  0.84817  0.47379  1.0000
  H   H1394     1.0  0.24179  0.73781  0.34082  1.0000
  H   H1395     1.0  0.23193  0.79487  0.33323  1.0000
  H   H1396     1.0  0.21991  0.75760  0.36467  1.0000
  H   H1397     1.0  0.42674  0.95729  0.33674  1.0000
  C   C1169     1.0  0.19434  0.82575  0.45231  1.0000
  H   H1398     1.0  0.22202  0.68209  0.35206  1.0000
  S   S312      1.0  0.25189  0.67599  0.45446  1.0000
  C   C1170     1.0  0.19996  0.71207  0.41623  1.0000
  H   H1399     1.0  0.46410  0.91021  0.28391  1.0000
  S   S313      1.0  0.19081  0.66645  0.34626  1.0000
  H   H1400     1.0  0.28591  0.72112  0.43946  1.0000
  H   H1401     1.0  0.18082  0.78886  0.33799  1.0000
  H   H1402     1.0  0.21261  0.67030  0.40964  1.0000
  H   H1403     1.0  0.08536  0.67390  0.36528  1.0000
  H   H1404     1.0  0.13594  0.74818  0.42640  1.0000
  H   H1405     1.0  0.02501  0.91110  0.24704  1.0000
  H   H1406     1.0  0.24492  0.76905  0.33633  1.0000
  H   H1407     1.0  0.39404  0.97263  0.25874  1.0000
  C   C1171     1.0  0.10576  0.71078  0.31549  1.0000
  H   H1408     1.0  0.02101  0.88605  0.25960  1.0000
  H   H1409     1.0  0.01508  0.90657  0.27179  1.0000
  H   H1410     1.0  0.14243  0.72076  0.45197  1.0000
  H   H1411     1.0  0.11513  0.97314  0.28262  1.0000
  H   H1412     1.0  0.04567  0.67487  0.33050  1.0000
  H   H1413     1.0  0.02409  0.99025  0.32946  1.0000
  H   H1414     1.0  0.11742  0.71627  0.28540  1.0000
  C   C1172     1.0  0.46465  0.92215  0.29034  1.0000
  N   N78       1.0  0.21240  0.77363  0.33785  1.0000
  C   C1173     1.0  0.12589  0.78336  0.47088  1.0000
  C   C1174     1.0  0.17975  0.67269  0.47758  1.0000
  N   N79       1.0  0.17444  0.83505  0.46335  1.0000
  S   S314      1.0  0.14751  0.66457  0.38882  1.0000
  C   C1175     1.0  0.19747  0.73330  0.32149  1.0000
  S   S315      1.0  0.06295  0.95413  0.32484  1.0000
  N   N80       1.0  0.28810  0.71944  0.47681  1.0000
  C   C1176     1.0  0.18923  0.73638  0.46585  1.0000
  C   C1177     1.0  0.16574  0.81810  0.47723  1.0000
  C   C1178     1.0  0.19677  0.75176  0.32593  1.0000
  S   S316      1.0  0.00935  0.94226  0.34974  1.0000
  C   C1179     1.0  0.23239  0.77998  0.33010  1.0000
  C   C1180     1.0  0.16416  0.71505  0.41544  1.0000
  H   H1415     1.0  0.10390  0.92798  0.36450  1.0000
  H   H1416     1.0  0.11544  0.93582  0.33029  1.0000
  Fe  Fe157     1.0  0.03411  0.94625  0.32374  1.0000
  H   H1417     1.0  0.34544  0.66765  0.36197  1.0000
  H   H1418     1.0  0.40971  0.96469  0.29128  1.0000
  C   C1181     1.0  0.21013  0.72938  0.45969  1.0000
  C   C1182     1.0  0.09257  0.70108  0.33084  1.0000
  C   C1183     1.0  0.47853  0.94212  0.24453  1.0000
  C   C1184     1.0  0.07503  0.73210  0.46441  1.0000
  H   H1419     1.0  0.42192  0.66325  0.28404  1.0000
  N   N81       1.0  0.42919  0.96948  0.30690  1.0000
  C   C1185     1.0  0.38936  0.98666  0.24891  1.0000
  H   H1420     1.0  0.10908  0.95261  0.30180  1.0000
  H   H1421     1.0  0.31014  0.73870  0.46792  1.0000
  H   H1422     1.0  0.04033  0.68695  0.36649  1.0000
  H   H1423     1.0  0.46852  0.96646  0.31002  1.0000
  C   C1186     1.0  0.40607  0.67407  0.25318  1.0000
  C   C1187     1.0  0.11977  0.96648  0.32798  1.0000
  H   H1424     1.0  0.20229  0.83764  0.44215  1.0000
  H   H1425     1.0  0.16063  0.80892  0.47009  1.0000
  C   C1188     1.0  0.40991  0.96475  0.30600  1.0000
  C   C1189     1.0  0.10650  0.95680  0.36794  1.0000
  H   H1426     1.0  0.11244  0.74115  0.48480  1.0000
  C   C1190     1.0  0.08041  0.68892  0.32843  1.0000
  H   H1427     1.0  0.09632  0.69560  0.28018  1.0000
  H   H1428     1.0  0.04226  0.70506  0.34408  1.0000
  N   N82       1.0  0.06681  0.67857  0.34502  1.0000
  C   C1191     1.0  0.10710  0.70884  0.29727  1.0000
  C   C1192     1.0  0.11055  0.66407  0.45015  1.0000
  H   H1429     1.0  0.16465  0.85435  0.48368  1.0000
  C   C1193     1.0  0.43156  0.98918  0.29344  1.0000
  H   H1430     1.0  0.18571  0.67435  0.41048  1.0000
  C   C1194     1.0  0.43301  0.66301  0.27018  1.0000
  C   C1195     1.0  0.07897  0.66512  0.35885  1.0000
  C   C1196     1.0  0.30091  0.73080  0.48110  1.0000
  H   H1431     1.0  0.39628  0.97658  0.31035  1.0000
  H   H1432     1.0  0.07347  0.67852  0.30624  1.0000
  H   H1433     1.0  0.43895  0.97891  0.32753  1.0000
  C   C1197     1.0  0.07842  0.74610  0.47330  1.0000
  C   C1198     1.0  0.26384  0.66523  0.47354  1.0000
  H   H1434     1.0  0.09597  0.97832  0.30311  1.0000
  H   H1435     1.0  0.11050  0.98672  0.36701  1.0000
  C   C1199     1.0  0.05593  0.66565  0.34020  1.0000
  S   S317      1.0  0.99968  0.66152  0.25018  1.0000
  Fe  Fe158     1.0  0.11869  0.67246  0.37827  1.0000
  H   H1436     1.0  0.25008  0.66611  0.36909  1.0000
  C   C1200     1.0  0.09518  0.69727  0.29434  1.0000
  H   H1437     1.0  0.41210  0.98290  0.33077  1.0000
  C   C1201     1.0  0.22413  0.66611  0.35879  1.0000
  H   H1438     1.0  0.99580  0.93948  0.24254  1.0000
  H   H1439     1.0  0.15217  0.66137  0.48406  1.0000
  H   H1440     1.0  0.25768  0.75186  0.48628  1.0000
  H   H1441     1.0  0.17697  0.80762  0.48548  1.0000
  C   C1202     1.0  0.13039  0.99210  0.29900  1.0000
  H   H1442     1.0  0.05174  0.73056  0.50333  1.0000
  H   H1443     1.0  0.14526  0.92688  0.57932  1.0000
  S   S318      1.0  0.25725  0.68750  0.54138  1.0000
  H   H1444     1.0  0.49381  0.66837  0.68100  1.0000
  C   C1203     1.0  0.11830  0.91607  0.56385  1.0000
  H   H1445     1.0  0.03792  0.87770  0.71057  1.0000
  S   S319      1.0  0.08991  0.71728  0.54863  1.0000
  C   C1204     1.0  0.08959  0.90207  0.56480  1.0000
  H   H1446     1.0  0.16428  0.73978  0.48926  1.0000
  C   C1205     1.0  0.00956  0.97180  0.58954  1.0000
  H   H1447     1.0  0.15999  0.70853  0.54023  1.0000
  S   S320      1.0  0.30327  0.67562  0.55063  1.0000
  C   C1206     1.0  0.21325  0.75711  0.58815  1.0000
  H   H1448     1.0  0.05920  0.76707  0.50056  1.0000
  H   H1449     1.0  0.22425  0.71062  0.50154  1.0000
  H   H1450     1.0  0.01775  0.87667  0.68941  1.0000
  C   C1207     1.0  0.20932  0.72382  0.60833  1.0000
  Fe  Fe159     1.0  0.14721  0.78599  0.56041  1.0000
  S   S321      1.0  0.17085  0.80194  0.56123  1.0000
  S   S322      1.0  0.14726  0.75368  0.57632  1.0000
  S   S323      1.0  0.15332  0.83819  0.52769  1.0000
  Fe  Fe160     1.0  0.17648  0.80856  0.52970  1.0000
  H   H1451     1.0  0.19935  0.71238  0.61429  1.0000
  Fe  Fe161     1.0  0.14547  0.83008  0.55954  1.0000
  S   S324      1.0  0.14322  0.85365  0.57611  1.0000
  S   S325      1.0  0.12118  0.81330  0.56138  1.0000
  Fe  Fe162     1.0  0.01921  0.94904  0.65222  1.0000
  S   S326      1.0  0.03033  0.91762  0.66787  1.0000
  S   S327      1.0  0.26351  0.69514  0.58039  1.0000
  Fe  Fe163     1.0  0.06218  0.95722  0.63774  1.0000
  S   S328      1.0  0.07706  0.92612  0.65246  1.0000
  Fe  Fe164     1.0  0.24579  0.67752  0.57249  1.0000
  Fe  Fe165     1.0  0.05558  0.91471  0.64217  1.0000
  S   S329      1.0  0.06008  0.88695  0.63021  1.0000
  Fe  Fe166     1.0  0.05047  0.93173  0.67684  1.0000
  S   S330      1.0  0.04797  0.92424  0.70828  1.0000
  S   S331      1.0  0.04267  0.94539  0.62569  1.0000
  S   S332      1.0  0.03747  0.96367  0.66292  1.0000
  H   H1452     1.0  0.08726  0.97120  0.65519  1.0000
  C   C1208     1.0  0.18150  0.67370  0.57138  1.0000
  C   C1209     1.0  0.27603  0.70952  0.49487  1.0000
  H   H1453     1.0  0.06757  0.72245  0.52033  1.0000
  C   C1210     1.0  0.07464  0.75797  0.50231  1.0000
  H   H1454     1.0  0.17981  0.75483  0.61855  1.0000
  H   H1455     1.0  0.99787  0.92717  0.63752  1.0000
  C   C1211     1.0  0.20636  0.77776  0.59020  1.0000
  C   C1212     1.0  0.11020  0.90286  0.55830  1.0000
  H   H1456     1.0  0.31156  0.72047  0.49005  1.0000
  H   H1457     1.0  0.10413  0.96897  0.56134  1.0000
  H   H1458     1.0  0.20486  0.69710  0.53034  1.0000
  C   C1213     1.0  0.08478  0.92799  0.58229  1.0000
  H   H1459     1.0  0.15234  0.82373  0.48788  1.0000
  S   S333      1.0  0.11048  0.82876  0.50894  1.0000
  C   C1214     1.0  0.24629  0.76578  0.57033  1.0000
  C   C1215     1.0  0.17355  0.74372  0.52310  1.0000
  C   C1216     1.0  0.12026  0.86185  0.59193  1.0000
  C   C1217     1.0  0.11975  0.87596  0.60238  1.0000
  C   C1218     1.0  0.10145  0.88358  0.61435  1.0000
  C   C1219     1.0  0.08354  0.87716  0.61593  1.0000
  C   C1220     1.0  0.08415  0.86276  0.60580  1.0000
  C   C1221     1.0  0.10241  0.85516  0.59381  1.0000
  H   H1460     1.0  0.13353  0.88109  0.60110  1.0000
  H   H1461     1.0  0.10115  0.89428  0.62247  1.0000
  H   H1462     1.0  0.07037  0.85762  0.60705  1.0000
  H   H1463     1.0  0.10259  0.84432  0.58587  1.0000
  C   C1222     1.0  0.12144  0.78997  0.50194  1.0000
  S   S334      1.0  0.08626  0.66874  0.53603  1.0000
  H   H1464     1.0  0.13176  0.76009  0.49556  1.0000
  C   C1223     1.0  0.22300  0.76591  0.52855  1.0000
  C   C1224     1.0  0.23953  0.74990  0.53308  1.0000
  H   H1465     1.0  0.20744  0.76399  0.53445  1.0000
  H   H1466     1.0  0.23672  0.73559  0.54242  1.0000
  H   H1467     1.0  0.01541  0.98525  0.72217  1.0000
  H   H1468     1.0  0.18985  0.71194  0.54715  1.0000
  H   H1469     1.0  0.23989  0.73632  0.57572  1.0000
  H   H1470     1.0  0.19109  0.78354  0.59753  1.0000
  H   H1471     1.0  0.16062  0.75153  0.51596  1.0000
  H   H1472     1.0  0.08575  0.76824  0.49668  1.0000
  H   H1473     1.0  0.12219  0.78440  0.51665  1.0000
  H   H1474     1.0  0.08364  0.89114  0.56111  1.0000
  C   C1225     1.0  0.09041  0.95178  0.71290  1.0000
  C   C1226     1.0  0.01238  0.89114  0.72996  1.0000
  H   H1475     1.0  0.21227  0.72828  0.62026  1.0000
  C   C1227     1.0  0.25285  0.66779  0.49157  1.0000
  H   H1476     1.0  0.15378  0.71876  0.51774  1.0000
  H   H1477     1.0  0.10367  0.95747  0.70390  1.0000
  N   N83       1.0  0.18297  0.72304  0.51935  1.0000
  H   H1478     1.0  0.08613  0.96659  0.58369  1.0000
  C   C1228     1.0  0.10606  0.72725  0.55618  1.0000
  C   C1229     1.0  0.12037  0.71423  0.56636  1.0000
  C   C1230     1.0  0.13281  0.72245  0.57283  1.0000
  C   C1231     1.0  0.13128  0.74361  0.56868  1.0000
  C   C1232     1.0  0.11738  0.75658  0.55802  1.0000
  C   C1233     1.0  0.10459  0.74842  0.55196  1.0000
  H   H1479     1.0  0.12145  0.69789  0.56976  1.0000
  H   H1480     1.0  0.14355  0.71243  0.58109  1.0000
  H   H1481     1.0  0.11611  0.77296  0.55482  1.0000
  H   H1482     1.0  0.09354  0.75853  0.54407  1.0000
  C   C1234     1.0  0.10225  0.73061  0.49354  1.0000
  H   H1483     1.0  0.00951  0.96033  0.58233  1.0000
  C   C1235     1.0  0.07690  0.91461  0.57677  1.0000
  C   C1236     1.0  0.05656  0.93643  0.73619  1.0000
  C   C1237     1.0  0.23897  0.78594  0.57229  1.0000
  H   H1484     1.0  0.21334  0.80767  0.58362  1.0000
  H   H1485     1.0  0.17101  0.68194  0.58165  1.0000
  Fe  Fe167     1.0  0.13098  0.81924  0.52968  1.0000
  H   H1486     1.0  0.16711  0.74315  0.53846  1.0000
  H   H1487     1.0  0.22405  0.71546  0.60110  1.0000
  C   C1238     1.0  0.07873  0.94379  0.70527  1.0000
  C   C1239     1.0  0.06207  0.93568  0.71701  1.0000
  C   C1240     1.0  0.22677  0.78440  0.51621  1.0000
  H   H1488     1.0  0.08303  0.94331  0.69045  1.0000
  Fe  Fe168     1.0  0.27694  0.70277  0.54935  1.0000
  H   H1489     1.0  0.15776  0.67015  0.56009  1.0000
  C   C1241     1.0  0.09072  0.98606  0.64807  1.0000
  C   C1242     1.0  0.10576  0.92905  0.57614  1.0000
  H   H1490     1.0  0.26172  0.76116  0.56240  1.0000
  H   H1491     1.0  0.09416  0.93859  0.61062  1.0000
  C   C1243     1.0  0.20258  0.67025  0.56994  1.0000
  C   C1244     1.0  0.25969  0.75273  0.52586  1.0000
  C   C1245     1.0  0.02778  0.99254  0.59722  1.0000
  S   S335      1.0  0.20694  0.80461  0.50918  1.0000
  C   C1246     1.0  0.19255  0.72478  0.49899  1.0000
  H   H1492     1.0  0.14139  0.95311  0.58007  1.0000
  H   H1493     1.0  0.28605  0.69764  0.50360  1.0000
  S   S336      1.0  0.12925  0.68525  0.51777  1.0000
  H   H1494     1.0  0.10483  0.72656  0.50817  1.0000
  H   H1495     1.0  0.01079  0.94045  0.73193  1.0000
  C   C1247     1.0  0.02147  0.88319  0.71387  1.0000
  H   H1496     1.0  0.07383  0.70970  0.50173  1.0000
  H   H1497     1.0  0.20973  0.72180  0.52927  1.0000
  Fe  Fe169     1.0  0.10455  0.68582  0.54390  1.0000
  S   S337      1.0  0.15483  0.79057  0.52901  1.0000
  S   S338      1.0  0.28102  0.73382  0.53157  1.0000
  C   C1248     1.0  0.08510  0.95220  0.73216  1.0000
  H   H1498     1.0  0.99892  0.89463  0.66630  1.0000
  H   H1499     1.0  0.17088  0.76329  0.59672  1.0000
  C   C1249     1.0  0.99731  0.95273  0.73554  1.0000
  C   C1250     1.0  0.19750  0.73518  0.57923  1.0000
  C   C1251     1.0  0.21908  0.79190  0.58226  1.0000
  C   C1252     1.0  0.16677  0.71101  0.52477  1.0000
  H   H1500     1.0  0.12019  0.89240  0.54964  1.0000
  H   H1501     1.0  0.24868  0.79700  0.56595  1.0000
  H   H1502     1.0  0.07430  0.75315  0.51777  1.0000
  H   H1503     1.0  0.27876  0.77349  0.50794  1.0000
  C   C1253     1.0  0.23366  0.75158  0.57809  1.0000
  H   H1504     1.0  0.19158  0.74850  0.56859  1.0000
  H   H1505     1.0  0.04153  0.97161  0.57858  1.0000
  H   H1506     1.0  0.16941  0.73843  0.61075  1.0000
  S   S339      1.0  0.07794  0.98202  0.61815  1.0000
  C   C1254     1.0  0.24693  0.78675  0.50853  1.0000
  H   H1507     1.0  0.11612  0.94785  0.60903  1.0000
  H   H1508     1.0  0.17298  0.69569  0.52125  1.0000
  H   H1509     1.0  0.00451  0.94757  0.70113  1.0000
  C   C1255     1.0  0.01309  0.97802  0.71169  1.0000
  N   N84       1.0  0.19994  0.74195  0.59535  1.0000
  N   N85       1.0  0.11376  0.94300  0.58265  1.0000
  H   H1510     1.0  0.10855  0.97540  0.58129  1.0000
  H   H1511     1.0  0.18499  0.75367  0.51823  1.0000
  C   C1256     1.0  0.17401  0.66696  0.55921  1.0000
  C   C1257     1.0  0.17918  0.75005  0.60585  1.0000
  C   C1258     1.0  0.12677  0.77620  0.48998  1.0000
  H   H1512     1.0  0.18658  0.72468  0.58388  1.0000
  Fe  Fe170     1.0  0.28792  0.66629  0.58115  1.0000
  S   S340      1.0  0.21200  0.68092  0.58344  1.0000
  N   N86       1.0  0.08061  0.74013  0.49321  1.0000
  H   H1513     1.0  0.06105  0.91334  0.58244  1.0000
  C   C1259     1.0  0.26326  0.77117  0.51358  1.0000
  C   C1260     1.0  0.11057  0.93746  0.60355  1.0000
  H   H1514     1.0  0.21210  0.72660  0.57201  1.0000
  C   C1261     1.0  0.10269  0.96437  0.57692  1.0000
  H   H1515     1.0  0.24996  0.80092  0.49896  1.0000
  H   H1516     1.0  0.01293  0.98960  0.69820  1.0000
  H   H1517     1.0  0.13945  0.94697  0.55918  1.0000
  C   C1262     1.0  0.13595  0.94241  0.57489  1.0000
  H   H1518     1.0  0.07440  0.93705  0.59191  1.0000
  C   C1263     1.0  0.19760  0.71303  0.53195  1.0000
  C   C1264     1.0  0.06783  0.72514  0.50501  1.0000
  C   C1265     1.0  0.02756  0.97815  0.58749  1.0000
  C   C1266     1.0  0.00962  0.88289  0.70170  1.0000
  H   H1519     1.0  0.11872  0.92153  0.60847  1.0000
  H   H1520     1.0  0.45853  0.66925  0.70325  1.0000
  H   H1521     1.0  0.13452  0.91529  0.55876  1.0000
  H   H1522     1.0  0.23703  0.67578  0.49365  1.0000
  H   H1523     1.0  0.02692  0.96584  0.70876  1.0000
  H   H1524     1.0  0.10265  0.98861  0.67064  1.0000
  H   H1525     1.0  0.26709  0.72051  0.50390  1.0000
  H   H1526     1.0  0.12761  0.98847  0.71593  1.0000
  H   H1527     1.0  0.26520  0.70197  0.49228  1.0000
  Fe  Fe171     1.0  0.11217  0.66626  0.51099  1.0000
  H   H1528     1.0  0.47028  0.66484  0.72275  1.0000
  C   C1267     1.0  0.11479  0.81090  0.49495  1.0000
  H   H1529     1.0  0.17551  0.67896  0.49012  1.0000
  H   H1530     1.0  0.10722  0.71645  0.48790  1.0000
  H   H1531     1.0  0.03688  0.66050  0.60061  1.0000
  H   H1532     1.0  0.29159  0.74262  0.48916  1.0000
  C   C1268     1.0  0.21384  0.71782  0.49219  1.0000
  H   H1533     1.0  0.25336  0.66106  0.52105  1.0000
  C   C1269     1.0  0.21612  0.65949  0.55671  1.0000
  C   C1270     1.0  0.26211  0.65958  0.50708  1.0000
  Fe  Fe172     1.0  0.28222  0.65960  0.54506  1.0000
  C   C1271     1.0  0.27126  0.88090  0.97325  1.0000
  H   H1534     1.0  0.41182  0.95321  0.78003  1.0000
  H   H1535     1.0  0.35742  0.89223  0.82699  1.0000
  H   H1536     1.0  0.41132  0.88432  0.84852  1.0000
  H   H1537     1.0  0.45521  0.91358  0.79647  1.0000
  H   H1538     1.0  0.34287  0.71471  0.94436  1.0000
  Fe  Fe173     1.0  0.38001  0.89094  0.89806  1.0000
  S   S341      1.0  0.38806  0.87378  0.92584  1.0000
  S   S342      1.0  0.38962  0.92042  0.88247  1.0000
  Fe  Fe174     1.0  0.35630  0.86076  0.89748  1.0000
  S   S343      1.0  0.36181  0.84135  0.92527  1.0000
  S   S344      1.0  0.33982  0.84813  0.88325  1.0000
  Fe  Fe175     1.0  0.35530  0.87075  0.93426  1.0000
  S   S345      1.0  0.33527  0.87128  0.96293  1.0000
  Fe  Fe176     1.0  0.39380  0.84599  0.91404  1.0000
  S   S346      1.0  0.42037  0.81944  0.91606  1.0000
  S   S347      1.0  0.34660  0.89009  0.90748  1.0000
  S   S348      1.0  0.38883  0.86336  0.88538  1.0000
  Fe  Fe177     1.0  0.37783  0.74856  0.88384  1.0000
  S   S349      1.0  0.34905  0.77191  0.88992  1.0000
  S   S350      1.0  0.41010  0.75234  0.87930  1.0000
  Fe  Fe178     1.0  0.35528  0.71815  0.88106  1.0000
  S   S351      1.0  0.32437  0.73888  0.88730  1.0000
  S   S352      1.0  0.35762  0.68693  0.87587  1.0000
  Fe  Fe179     1.0  0.33980  0.76352  0.86745  1.0000
  S   S353      1.0  0.32732  0.78832  0.84479  1.0000
  Fe  Fe180     1.0  0.33602  0.74562  0.90938  1.0000
  H   H1539     1.0  0.35921  0.81285  0.86738  1.0000
  S   S354      1.0  0.36972  0.74250  0.85948  1.0000
  S   S355      1.0  0.36568  0.72257  0.90515  1.0000
  Fe  Fe181     1.0  0.24874  0.90494  0.85277  1.0000
  C   C1272     1.0  0.35401  0.83768  0.82659  1.0000
  S   S356      1.0  0.27796  0.91633  0.84111  1.0000
  Fe  Fe182     1.0  0.20700  0.90489  0.84780  1.0000
  S   S357      1.0  0.19909  0.88443  0.87640  1.0000
  S   S358      1.0  0.18916  0.91332  0.82481  1.0000
  C   C1273     1.0  0.37006  0.85993  0.83483  1.0000
  Fe  Fe183     1.0  0.23118  0.86661  0.86910  1.0000
  S   S359      1.0  0.23714  0.83221  0.87702  1.0000
  S   S360      1.0  0.21819  0.92603  0.85858  1.0000
  S   S361      1.0  0.23824  0.88544  0.83975  1.0000
  H   H1540     1.0  0.43498  0.84130  0.93687  1.0000
  S   S362      1.0  0.07068  0.95343  0.79732  1.0000
  H   H1541     1.0  0.12039  0.99012  0.83762  1.0000
  C   C1274     1.0  0.25548  0.90938  0.93149  1.0000
  C   C1275     1.0  0.38205  0.74878  0.94853  1.0000
  C   C1276     1.0  0.38876  0.76458  0.95219  1.0000
  Fe  Fe184     1.0  0.08439  0.97127  0.76890  1.0000
  H   H1542     1.0  0.41648  0.77645  0.94744  1.0000
  Fe  Fe185     1.0  0.08390  0.97231  0.80904  1.0000
  S   S363      1.0  0.09736  0.96258  0.83498  1.0000
  H   H1543     1.0  0.22137  0.87074  0.91924  1.0000
  C   C1277     1.0  0.44145  0.89636  0.93135  1.0000
  C   C1278     1.0  0.27693  0.89814  0.90346  1.0000
  H   H1544     1.0  0.28416  0.91191  0.97768  1.0000
  H   H1545     1.0  0.40502  0.81154  0.86130  1.0000
  H   H1546     1.0  0.38137  0.79263  0.86367  1.0000
  H   H1547     1.0  0.40587  0.83581  0.84575  1.0000
  H   H1548     1.0  0.44993  0.86004  0.90634  1.0000
  C   C1279     1.0  0.43272  0.88588  0.94919  1.0000
  H   H1549     1.0  0.38151  0.69138  0.78319  1.0000
  N   N87       1.0  0.38296  0.82131  0.84349  1.0000
  H   H1550     1.0  0.26048  0.87265  0.97140  1.0000
  C   C1280     1.0  0.13321  0.89255  0.86239  1.0000
  H   H1551     1.0  0.42808  0.89384  0.96063  1.0000
  H   H1552     1.0  0.40817  0.79809  0.83376  1.0000
  H   H1553     1.0  0.37137  0.92262  0.96340  1.0000
  C   C1281     1.0  0.16346  0.86553  0.85542  1.0000
  H   H1554     1.0  0.24586  0.91489  0.90538  1.0000
  C   C1282     1.0  0.35676  0.87694  0.82666  1.0000
  H   H1555     1.0  0.16309  0.86159  0.81973  1.0000
  Fe  Fe186     1.0  0.04422  0.98038  0.79631  1.0000
  H   H1556     1.0  0.42608  0.72545  0.92290  1.0000
  N   N88       1.0  0.26920  0.90189  0.96129  1.0000
  C   C1283     1.0  0.17999  0.96801  0.79836  1.0000
  C   C1284     1.0  0.30114  0.81120  0.90713  1.0000
  H   H1557     1.0  0.45627  0.92607  0.81419  1.0000
  C   C1285     1.0  0.16369  0.92707  0.82809  1.0000
  C   C1286     1.0  0.15303  0.93059  0.81380  1.0000
  C   C1287     1.0  0.13276  0.94167  0.81573  1.0000
  C   C1288     1.0  0.12292  0.94902  0.83211  1.0000
  C   C1289     1.0  0.13351  0.94539  0.84649  1.0000
  C   C1290     1.0  0.15392  0.93450  0.84446  1.0000
  H   H1558     1.0  0.16056  0.92491  0.80109  1.0000
  H   H1559     1.0  0.12470  0.94442  0.80458  1.0000
  H   H1560     1.0  0.12590  0.95094  0.85925  1.0000
  H   H1561     1.0  0.16203  0.93172  0.85558  1.0000
  C   C1291     1.0  0.30216  0.80047  0.85349  1.0000
  C   C1292     1.0  0.29506  0.82117  0.84592  1.0000
  C   C1293     1.0  0.27507  0.83104  0.85306  1.0000
  C   C1294     1.0  0.26202  0.82012  0.86749  1.0000
  C   C1295     1.0  0.26897  0.79930  0.87469  1.0000
  C   C1296     1.0  0.28909  0.78957  0.86791  1.0000
  H   H1562     1.0  0.30508  0.82968  0.83476  1.0000
  H   H1563     1.0  0.26970  0.84702  0.84727  1.0000
  H   H1564     1.0  0.25887  0.79073  0.88574  1.0000
  H   H1565     1.0  0.29433  0.77356  0.87368  1.0000
  N   N89       1.0  0.46177  0.66011  0.84155  1.0000
  C   C1297     1.0  0.39902  0.68703  0.82590  1.0000
  C   C1298     1.0  0.38605  0.69295  0.84220  1.0000
  C   C1299     1.0  0.37460  0.67957  0.85553  1.0000
  C   C1300     1.0  0.14788  0.88219  0.84946  1.0000
  C   C1301     1.0  0.13363  0.88682  0.88150  1.0000
  H   H1566     1.0  0.40749  0.69767  0.81549  1.0000
  H   H1567     1.0  0.38498  0.70788  0.84438  1.0000
  C   C1302     1.0  0.00997  0.93299  0.78439  1.0000
  C   C1303     1.0  0.41760  0.80115  0.90535  1.0000
  C   C1304     1.0  0.43483  0.78858  0.89657  1.0000
  C   C1305     1.0  0.43245  0.77375  0.88836  1.0000
  C   C1306     1.0  0.41287  0.77108  0.88939  1.0000
  C   C1307     1.0  0.39574  0.78351  0.89834  1.0000
  C   C1308     1.0  0.39811  0.79874  0.90592  1.0000
  H   H1568     1.0  0.44997  0.79036  0.89604  1.0000
  H   H1569     1.0  0.44579  0.76413  0.88148  1.0000
  H   H1570     1.0  0.38064  0.78135  0.89958  1.0000
  H   H1571     1.0  0.38479  0.80809  0.91275  1.0000
  C   C1309     1.0  0.32430  0.86712  0.86972  1.0000
  C   C1310     1.0  0.32570  0.88764  0.86580  1.0000
  C   C1311     1.0  0.31216  0.90280  0.85597  1.0000
  C   C1312     1.0  0.29692  0.89743  0.85061  1.0000
  C   C1313     1.0  0.29584  0.87689  0.85424  1.0000
  C   C1314     1.0  0.30975  0.86170  0.86349  1.0000
  H   H1572     1.0  0.33705  0.89185  0.87047  1.0000
  H   H1573     1.0  0.31286  0.91873  0.85331  1.0000
  H   H1574     1.0  0.28415  0.87279  0.84998  1.0000
  H   H1575     1.0  0.30886  0.84581  0.86625  1.0000
  H   H1576     1.0  0.46308  0.93736  0.78969  1.0000
  H   H1577     1.0  0.21238  0.84735  0.83332  1.0000
  S   S364      1.0  0.24469  0.88421  0.88149  1.0000
  C   C1315     1.0  0.35452  0.90090  0.96294  1.0000
  C   C1316     1.0  0.14853  0.87044  0.88785  1.0000
  H   H1578     1.0  0.34626  0.77676  0.95716  1.0000
  H   H1579     1.0  0.18049  0.82465  0.86145  1.0000
  C   C1317     1.0  0.21850  0.86604  0.96607  1.0000
  C   C1318     1.0  0.22332  0.86068  0.94852  1.0000
  C   C1319     1.0  0.17204  0.96907  0.78299  1.0000
  C   C1320     1.0  0.36039  0.67488  0.80408  1.0000
  S   S365      1.0  0.01061  0.98067  0.80499  1.0000
  C   C1321     1.0  0.01682  0.94727  0.78983  1.0000
  H   H1580     1.0  0.35662  0.90474  0.94771  1.0000
  H   H1581     1.0  0.29018  0.85200  0.90165  1.0000
  H   H1582     1.0  0.03298  0.94569  0.78872  1.0000
  C   C1322     1.0  0.45766  0.91122  0.85497  1.0000
  C   C1323     1.0  0.44535  0.93088  0.85328  1.0000
  C   C1324     1.0  0.42446  0.93367  0.86191  1.0000
  C   C1325     1.0  0.41592  0.91682  0.87250  1.0000
  C   C1326     1.0  0.42834  0.89721  0.87463  1.0000
  C   C1327     1.0  0.44915  0.89440  0.86575  1.0000
  H   H1583     1.0  0.45191  0.94396  0.84555  1.0000
  H   H1584     1.0  0.41492  0.94888  0.86045  1.0000
  H   H1585     1.0  0.42191  0.88418  0.88301  1.0000
  H   H1586     1.0  0.45867  0.87918  0.86720  1.0000
  H   H1587     1.0  0.35872  0.74491  0.81420  1.0000
  C   C1328     1.0  0.35913  0.71088  0.80037  1.0000
  C   C1329     1.0  0.36805  0.69240  0.79463  1.0000
  C   C1330     1.0  0.27881  0.82241  0.96983  1.0000
  H   H1588     1.0  0.36619  0.72367  0.79263  1.0000
  H   H1589     1.0  0.43039  0.95771  0.81985  1.0000
  H   H1590     1.0  0.34527  0.80061  0.96192  1.0000
  C   C1331     1.0  0.34062  0.85479  0.81872  1.0000
  C   C1332     1.0  0.34193  0.87437  0.81884  1.0000
  H   H1591     1.0  0.38508  0.83288  0.86640  1.0000
  H   H1592     1.0  0.35233  0.82286  0.82605  1.0000
  H   H1593     1.0  0.32891  0.85285  0.81279  1.0000
  H   H1594     1.0  0.33112  0.88757  0.81323  1.0000
  C   C1333     1.0  0.29016  0.89029  0.93169  1.0000
  H   H1595     1.0  0.36367  0.79947  0.84895  1.0000
  H   H1596     1.0  0.12173  0.90549  0.85744  1.0000
  C   C1334     1.0  0.06788  0.94493  0.74370  1.0000
  C   C1335     1.0  0.33894  0.72168  0.95638  1.0000
  N   N90       1.0  0.37419  0.77921  0.96316  1.0000
  C   C1336     1.0  0.00269  0.96321  0.79714  1.0000
  H   H1597     1.0  0.15170  0.99168  0.84593  1.0000
  H   H1598     1.0  0.17946  0.95851  0.77374  1.0000
  C   C1337     1.0  0.28531  0.91134  0.96278  1.0000
  H   H1599     1.0  0.20323  0.84751  0.85774  1.0000
  H   H1600     1.0  0.30714  0.88109  0.90574  1.0000
  H   H1601     1.0  0.02091  0.92041  0.77909  1.0000
  H   H1602     1.0  0.28436  0.92713  0.95391  1.0000
  C   C1338     1.0  0.21793  0.87513  0.93261  1.0000
  H   H1603     1.0  0.43907  0.75186  0.92967  1.0000
  H   H1604     1.0  0.36788  0.66047  0.79993  1.0000
  H   H1605     1.0  0.30639  0.79592  0.91595  1.0000
  H   H1606     1.0  0.33504  0.76293  0.81764  1.0000
  H   H1607     1.0  0.31421  0.81904  0.90184  1.0000
  C   C1339     1.0  0.29275  0.88905  0.91297  1.0000
  H   H1608     1.0  0.00019  0.95817  0.74695  1.0000
  N   N91       1.0  0.28284  0.82309  0.91798  1.0000
  C   C1340     1.0  0.27742  0.84375  0.90610  1.0000
  N   N92       1.0  0.33207  0.73162  0.82235  1.0000
  C   C1341     1.0  0.26570  0.81262  0.92152  1.0000
  C   C1342     1.0  0.28721  0.82507  0.93548  1.0000
  C   C1343     1.0  0.27443  0.81995  0.95366  1.0000
  C   C1344     1.0  0.30423  0.83318  0.93458  1.0000
  C   C1345     1.0  0.41587  0.73598  0.93135  1.0000
  C   C1346     1.0  0.47697  0.67348  0.83473  1.0000
  S   S366      1.0  0.10014  0.98758  0.78075  1.0000
  S   S367      1.0  0.47542  0.96415  0.81262  1.0000
  C   C1347     1.0  0.20815  0.88592  0.96769  1.0000
  H   H1609     1.0  0.26397  0.85335  0.91385  1.0000
  H   H1610     1.0  0.32169  0.69399  0.83706  1.0000
  H   H1611     1.0  0.16192  0.83126  0.84711  1.0000
  C   C1348     1.0  0.45216  0.92861  0.80034  1.0000
  H   H1612     1.0  0.25094  0.82151  0.92818  1.0000
  H   H1613     1.0  0.26314  0.81100  0.90813  1.0000
  H   H1614     1.0  0.26885  0.79691  0.93044  1.0000
  H   H1615     1.0  0.26077  0.81431  0.95577  1.0000
  H   H1616     1.0  0.31423  0.83807  0.92120  1.0000
  H   H1617     1.0  0.23104  0.84528  0.94729  1.0000
  H   H1618     1.0  0.28704  0.87176  0.96995  1.0000
  H   H1619     1.0  0.39565  0.79112  0.97094  1.0000
  N   N93       1.0  0.43061  0.93968  0.80074  1.0000
  C   C1349     1.0  0.42700  0.94330  0.78149  1.0000
  C   C1350     1.0  0.42840  0.95975  0.80524  1.0000
  H   H1620     1.0  0.44323  0.91189  0.92935  1.0000
  C   C1351     1.0  0.41550  0.92847  0.81465  1.0000
  C   C1352     1.0  0.42122  0.90889  0.82628  1.0000
  C   C1353     1.0  0.39424  0.93717  0.81693  1.0000
  C   C1354     1.0  0.40651  0.89886  0.83936  1.0000
  C   C1355     1.0  0.37968  0.92711  0.83027  1.0000
  C   C1356     1.0  0.38582  0.90804  0.84153  1.0000
  H   H1621     1.0  0.41323  0.96989  0.80423  1.0000
  C   C1357     1.0  0.34734  0.71162  0.97223  1.0000
  H   H1622     1.0  0.47046  0.68902  0.82716  1.0000
  C   C1358     1.0  0.41164  0.66184  0.87830  1.0000
  C   C1359     1.0  0.44067  0.68618  0.86131  1.0000
  H   H1623     1.0  0.36641  0.74703  0.95374  1.0000
  S   S368      1.0  0.41658  0.66143  0.80164  1.0000
  C   C1360     1.0  0.42315  0.75088  0.93517  1.0000
  H   H1624     1.0  0.44823  0.84389  0.98028  1.0000
  H   H1625     1.0  0.43698  0.90122  0.82604  1.0000
  H   H1626     1.0  0.38872  0.95204  0.80868  1.0000
  H   H1627     1.0  0.42790  0.92861  0.77778  1.0000
  C   C1361     1.0  0.42337  0.69259  0.87472  1.0000
  C   C1362     1.0  0.35564  0.78815  0.95513  1.0000
  H   H1628     1.0  0.24050  0.91709  0.93780  1.0000
  H   H1629     1.0  0.30138  0.72670  0.82786  1.0000
  H   H1630     1.0  0.35794  0.69702  0.97226  1.0000
  S   S369      1.0  0.20095  0.91354  0.91433  1.0000
  C   C1363     1.0  0.40894  0.68041  0.88322  1.0000
  C   C1364     1.0  0.34272  0.74874  0.81223  1.0000
  H   H1631     1.0  0.30914  0.76376  0.97208  1.0000
  H   H1632     1.0  0.27360  0.84303  0.89290  1.0000
  H   H1633     1.0  0.24652  0.93005  0.96056  1.0000
  H   H1634     1.0  0.48284  0.67480  0.84657  1.0000
  C   C1365     1.0  0.43654  0.85654  0.93617  1.0000
  H   H1635     1.0  0.17683  0.97882  0.82273  1.0000
  C   C1366     1.0  0.20767  0.89507  0.93416  1.0000
  H   H1636     1.0  0.39537  0.68551  0.89337  1.0000
  H   H1637     1.0  0.32161  0.71769  0.85191  1.0000
  H   H1638     1.0  0.29800  0.80867  0.89433  1.0000
  C   C1367     1.0  0.29589  0.82995  0.96847  1.0000
  H   H1639     1.0  0.05225  0.97925  0.86408  1.0000
  C   C1368     1.0  0.44766  0.88705  0.91598  1.0000
  C   C1369     1.0  0.38280  0.79648  0.96347  1.0000
  C   C1370     1.0  0.39538  0.73484  0.93814  1.0000
  C   C1371     1.0  0.30847  0.83549  0.95086  1.0000
  H   H1640     1.0  0.43994  0.96837  0.79530  1.0000
  C   C1372     1.0  0.39523  0.82573  0.85465  1.0000
  C   C1373     1.0  0.40988  0.76503  0.94543  1.0000
  H   H1641     1.0  0.33805  0.66196  0.82688  1.0000
  H   H1642     1.0  0.20159  0.87116  0.84054  1.0000
  C   C1374     1.0  0.40100  0.66751  0.82292  1.0000
  H   H1643     1.0  0.35984  0.79457  0.93968  1.0000
  H   H1644     1.0  0.30096  0.90260  0.95815  1.0000
  C   C1375     1.0  0.43246  0.85259  0.98486  1.0000
  C   C1376     1.0  0.27153  0.90078  0.94146  1.0000
  H   H1645     1.0  0.38828  0.80506  0.94888  1.0000
  S   S370      1.0  0.47379  0.97048  0.75928  1.0000
  H   H1646     1.0  0.37458  0.90067  0.85238  1.0000
  H   H1647     1.0  0.42100  0.70722  0.87841  1.0000
  C   C1377     1.0  0.31980  0.74920  0.97211  1.0000
  C   C1378     1.0  0.36892  0.83968  0.83524  1.0000
  C   C1379     1.0  0.31083  0.73812  0.81948  1.0000
  H   H1648     1.0  0.40640  0.82299  0.81803  1.0000
  H   H1649     1.0  0.38906  0.80713  0.81989  1.0000
  C   C1380     1.0  0.34205  0.71231  0.81589  1.0000
  S   S371      1.0  0.31540  0.75372  0.93623  1.0000
  H   H1650     1.0  0.14900  0.86618  0.90271  1.0000
  C   C1381     1.0  0.15420  0.98323  0.77996  1.0000
  C   C1382     1.0  0.39729  0.81198  0.82810  1.0000
  H   H1651     1.0  0.32136  0.84196  0.94984  1.0000
  H   H1652     1.0  0.44548  0.67461  0.81922  1.0000
  H   H1653     1.0  0.14693  0.88794  0.83482  1.0000
  H   H1654     1.0  0.17959  0.87876  0.81735  1.0000
  H   H1655     1.0  0.18877  0.82364  0.83711  1.0000
  Fe  Fe187     1.0  0.21327  0.90363  0.88658  1.0000
  H   H1656     1.0  0.38071  0.86306  0.84116  1.0000
  H   H1657     1.0  0.45425  0.89531  0.90213  1.0000
  H   H1658     1.0  0.19024  0.85396  0.81243  1.0000
  H   H1659     1.0  0.43855  0.95116  0.77058  1.0000
  H   H1660     1.0  0.17453  0.84737  0.88069  1.0000
  H   H1661     1.0  0.37125  0.80756  0.97128  1.0000
  H   H1662     1.0  0.19461  0.91574  0.95307  1.0000
  C   C1383     1.0  0.33452  0.69417  0.82509  1.0000
  C   C1384     1.0  0.42975  0.86571  0.95213  1.0000
  C   C1385     1.0  0.37127  0.80599  0.85637  1.0000
  C   C1386     1.0  0.24918  0.91415  0.96916  1.0000
  C   C1387     1.0  0.33141  0.72848  0.84274  1.0000
  C   C1388     1.0  0.25830  0.90812  0.91274  1.0000
  C   C1389     1.0  0.44526  0.86717  0.91840  1.0000
  H   H1663     1.0  0.06374  0.94517  0.75856  1.0000
  C   C1390     1.0  0.20275  0.90040  0.95175  1.0000
  H   H1664     1.0  0.34694  0.72210  0.84567  1.0000
  H   H1665     1.0  0.30294  0.75283  0.82390  1.0000
  S   S372      1.0  0.48360  0.90711  0.84351  1.0000
  C   C1391     1.0  0.34386  0.88560  0.97377  1.0000
  H   H1666     1.0  0.12253  0.89525  0.89136  1.0000
  C   C1392     1.0  0.37675  0.65990  0.85267  1.0000
  C   C1393     1.0  0.17790  0.86250  0.82207  1.0000
  C   C1394     1.0  0.16314  0.85981  0.87508  1.0000
  H   H1667     1.0  0.45111  0.69648  0.85522  1.0000
  C   C1395     1.0  0.17008  0.98099  0.81086  1.0000
  H   H1668     1.0  0.31060  0.74026  0.80435  1.0000
  C   C1396     1.0  0.32527  0.74053  0.95626  1.0000
  H   H1669     1.0  0.34284  0.75287  0.79687  1.0000
  H   H1670     1.0  0.30288  0.88296  0.93849  1.0000
  C   C1397     1.0  0.36279  0.91107  0.97182  1.0000
  H   H1671     1.0  0.38974  0.72314  0.93531  1.0000
  H   H1672     1.0  0.32526  0.74308  0.84770  1.0000
  H   H1673     1.0  0.36358  0.93436  0.83226  1.0000
  Fe  Fe188     1.0  0.49012  0.95985  0.78321  1.0000
  N   N94       1.0  0.17935  0.85421  0.84216  1.0000
  C   C1398     1.0  0.19996  0.85504  0.84354  1.0000
  C   C1399     1.0  0.17753  0.83250  0.84717  1.0000
  H   H1674     1.0  0.23633  0.90704  0.96997  1.0000
  C   C1400     1.0  0.34367  0.67575  0.81929  1.0000
  H   H1675     1.0  0.27903  0.89741  0.88888  1.0000
  H   H1676     1.0  0.04370  0.93017  0.74533  1.0000
  H   H1677     1.0  0.19353  0.95648  0.80103  1.0000
  H   H1678     1.0  0.01842  0.98359  0.85866  1.0000
  C   C1401     1.0  0.44393  0.66724  0.85600  1.0000
  C   C1402     1.0  0.41683  0.83470  0.97151  1.0000
  Fe  Fe189     1.0  0.49490  0.93330  0.82150  1.0000
  H   H1679     1.0  0.49067  0.66725  0.82456  1.0000
  H   H1680     1.0  0.43168  0.82405  0.96776  1.0000
  H   H1681     1.0  0.14776  0.98369  0.76825  1.0000
  H   H1682     1.0  0.20397  0.89007  0.98125  1.0000
  H   H1683     1.0  0.02171  0.89171  0.73913  1.0000
  H   H1684     1.0  0.40028  0.88285  0.97913  1.0000
  H   H1685     1.0  0.38965  0.87069  0.96706  1.0000
  H   H1686     1.0  0.29914  0.83200  0.98102  1.0000
  N   N95       1.0  0.41984  0.85522  0.97105  1.0000
  H   H1687     1.0  0.26862  0.81882  0.98347  1.0000
  H   H1688     1.0  0.24829  0.91538  0.98380  1.0000
  S   S373      1.0  0.22552  0.84746  0.98568  1.0000
  C   C1403     1.0  0.36808  0.76817  0.98296  1.0000
  S   S374      1.0  0.10048  0.96124  0.74170  1.0000
  H   H1689     1.0  0.36187  0.75469  0.98396  1.0000
  C   C1404     1.0  0.39942  0.86778  0.97736  1.0000
  H   H1690     1.0  0.40707  0.83573  0.96164  1.0000
  C   C1405     1.0  0.45449  0.65944  0.82505  1.0000
  H   H1691     1.0  0.40906  0.82737  0.98584  1.0000
  H   H1692     1.0  0.43373  0.86749  0.98670  1.0000
  H   H1693     1.0  0.70944  0.21001  0.12764  1.0000
  S   S375      1.0  0.80624  0.14213  0.02272  1.0000
  C   C1406     1.0  0.90344  0.99477  0.13445  1.0000
  H   H1694     1.0  0.58126  0.22094  0.08594  1.0000
  H   H1695     1.0  0.63021  0.19352  0.10170  1.0000
  H   H1696     1.0  0.83737  0.22153  0.08571  1.0000
  S   S376      1.0  0.63694  0.12734  0.04580  1.0000
  Fe  Fe190     1.0  0.63517  0.18447  0.02043  1.0000
  S   S377      1.0  0.64770  0.17046  0.04639  1.0000
  H   H1697     1.0  0.67104  0.28420  0.12396  1.0000
  Fe  Fe191     1.0  0.66269  0.14401  0.03256  1.0000
  S   S378      1.0  0.69624  0.13192  0.03098  1.0000
  Fe  Fe192     1.0  0.62104  0.15532  0.05743  1.0000
  S   S379      1.0  0.60561  0.15271  0.08800  1.0000
  H   H1698     1.0  0.72072  0.19493  0.11000  1.0000
  S   S380      1.0  0.60657  0.17222  0.03290  1.0000
  C   C1407     1.0  0.99172  0.09749  0.17372  1.0000
  C   C1408     1.0  0.71464  0.24881  0.99560  1.0000
  C   C1409     1.0  0.59420  0.20844  0.08987  1.0000
  Fe  Fe193     1.0  0.79746  0.15406  0.08760  1.0000
  S   S381      1.0  0.77955  0.14108  0.07486  1.0000
  S   S382      1.0  0.80936  0.13821  0.11409  1.0000
  Fe  Fe194     1.0  0.75708  0.17087  0.07487  1.0000
  S   S383      1.0  0.72343  0.17170  0.08356  1.0000
  H   H1699     1.0  0.64609  0.19875  0.07836  1.0000
  S   S384      1.0  0.77329  0.18255  0.09027  1.0000
  Fe  Fe195     1.0  0.94876  0.06133  0.15811  1.0000
  S   S385      1.0  0.92927  0.09314  0.15412  1.0000
  H   H1700     1.0  0.93742  0.01511  0.10330  1.0000
  Fe  Fe196     1.0  0.91201  0.04096  0.17001  1.0000
  S   S386      1.0  0.88961  0.07078  0.16712  1.0000
  S   S387      1.0  0.89931  0.01245  0.18259  1.0000
  Fe  Fe197     1.0  0.91178  0.08062  0.14034  1.0000
  S   S388      1.0  0.90261  0.09625  0.11248  1.0000
  Fe  Fe198     1.0  0.90882  0.08040  0.18122  1.0000
  S   S389      1.0  0.89283  0.09371  0.20668  1.0000
  S   S390      1.0  0.93299  0.04971  0.14208  1.0000
  S   S391      1.0  0.92963  0.04970  0.18624  1.0000
  C   C1410     1.0  0.80239  0.18029  0.99961  1.0000
  H   H1701     1.0  0.57549  0.06432  0.21687  1.0000
  S   S392      1.0  0.52054  0.12964  0.10059  1.0000
  Fe  Fe199     1.0  0.53334  0.05477  0.13379  1.0000
  S   S393      1.0  0.56106  0.02969  0.13002  1.0000
  S   S394      1.0  0.53419  0.08225  0.14321  1.0000
  C   C1411     1.0  0.99271  0.04202  0.10896  1.0000
  H   H1702     1.0  0.70088  0.30064  0.11328  1.0000
  H   H1703     1.0  0.54516  0.00572  0.19882  1.0000
  H   H1704     1.0  0.66848  0.29871  0.99842  1.0000
  H   H1705     1.0  0.61613  0.08816  0.04107  1.0000
  C   C1412     1.0  0.64836  0.24646  0.01464  1.0000
  H   H1706     1.0  0.54217  0.03147  0.16900  1.0000
  H   H1707     1.0  0.75755  0.23600  0.05019  1.0000
  H   H1708     1.0  0.99398  0.13312  0.21880  1.0000
  H   H1709     1.0  0.87929  0.17312  0.09736  1.0000
  H   H1710     1.0  0.56427  0.04365  0.23252  1.0000
  C   C1413     1.0  0.83529  0.12637  0.11312  1.0000
  C   C1414     1.0  0.84186  0.11784  0.13011  1.0000
  C   C1415     1.0  0.86247  0.10871  0.13003  1.0000
  C   C1416     1.0  0.87666  0.10783  0.11293  1.0000
  C   C1417     1.0  0.87006  0.11606  0.09588  1.0000
  C   C1418     1.0  0.84940  0.12529  0.09596  1.0000
  H   H1711     1.0  0.83101  0.11860  0.14343  1.0000
  H   H1712     1.0  0.86738  0.10266  0.14321  1.0000
  H   H1713     1.0  0.88093  0.11527  0.08259  1.0000
  H   H1714     1.0  0.84440  0.13142  0.08277  1.0000
  C   C1419     1.0  0.60065  0.24317  0.09897  1.0000
  H   H1715     1.0  0.58624  0.23854  0.10548  1.0000
  H   H1716     1.0  0.67963  0.23431  0.09054  1.0000
  H   H1717     1.0  0.63664  0.25747  0.00810  1.0000
  S   S395      1.0  0.79887  0.22593  0.05701  1.0000
  C   C1420     1.0  0.77647  0.26648  0.00705  1.0000
  C   C1421     1.0  0.58136  0.14741  0.09223  1.0000
  C   C1422     1.0  0.56864  0.15728  0.07949  1.0000
  C   C1423     1.0  0.54961  0.15224  0.08256  1.0000
  C   C1424     1.0  0.54348  0.13703  0.09812  1.0000
  C   C1425     1.0  0.55608  0.12743  0.11100  1.0000
  C   C1426     1.0  0.57491  0.13278  0.10817  1.0000
  H   H1718     1.0  0.57342  0.16881  0.06730  1.0000
  H   H1719     1.0  0.53982  0.15979  0.07263  1.0000
  H   H1720     1.0  0.55133  0.11595  0.12315  1.0000
  H   H1721     1.0  0.58473  0.12517  0.11805  1.0000
  C   C1427     1.0  0.87020  0.16820  0.11124  1.0000
  Fe  Fe200     1.0  0.70277  0.30863  0.04712  1.0000
  C   C1428     1.0  0.65931  0.25273  0.02436  1.0000
  C   C1429     1.0  0.67352  0.23826  0.03382  1.0000
  H   H1722     1.0  0.56148  0.08364  0.18777  1.0000
  H   H1723     1.0  0.64960  0.11665  0.99322  1.0000
  H   H1724     1.0  0.67369  0.25079  0.11827  1.0000
  H   H1725     1.0  0.65619  0.26860  0.02507  1.0000
  H   H1726     1.0  0.62865  0.18240  0.08353  1.0000
  C   C1430     1.0  0.55186  0.01651  0.16863  1.0000
  C   C1431     1.0  0.70426  0.14184  0.04615  1.0000
  C   C1432     1.0  0.69065  0.14693  0.06248  1.0000
  C   C1433     1.0  0.69655  0.15624  0.07384  1.0000
  C   C1434     1.0  0.71629  0.16003  0.06917  1.0000
  C   C1435     1.0  0.73016  0.15442  0.05312  1.0000
  C   C1436     1.0  0.72413  0.14536  0.04160  1.0000
  H   H1727     1.0  0.67570  0.14322  0.06665  1.0000
  H   H1728     1.0  0.68594  0.16014  0.08644  1.0000
  H   H1729     1.0  0.74555  0.15698  0.04959  1.0000
  C   C1437     1.0  0.78145  0.24540  0.00857  1.0000
  H   H1730     1.0  0.71943  0.21346  0.07425  1.0000
  C   C1438     1.0  0.60256  0.01368  0.17587  1.0000
  C   C1439     1.0  0.90968  0.09890  0.21751  1.0000
  C   C1440     1.0  0.92850  0.10346  0.20698  1.0000
  S   S396      1.0  0.69988  0.29711  0.02332  1.0000
  C   C1441     1.0  0.63050  0.19661  0.08636  1.0000
  C   C1442     1.0  0.99454  0.06836  0.16072  1.0000
  H   H1731     1.0  0.93283  0.10378  0.19201  1.0000
  H   H1732     1.0  0.80267  0.13668  0.98734  1.0000
  H   H1733     1.0  0.95558  0.11265  0.20738  1.0000
  H   H1734     1.0  0.55501  0.09905  0.08485  1.0000
  C   C1443     1.0  0.93583  0.10824  0.23506  1.0000
  H   H1735     1.0  0.79567  0.23659  0.01256  1.0000
  H   H1736     1.0  0.81793  0.10234  0.06310  1.0000
  S   S397      1.0  0.65061  0.30236  0.04310  1.0000
  H   H1737     1.0  0.96601  0.08754  0.17114  1.0000
  H   H1738     1.0  0.50516  0.11870  0.19992  1.0000
  Fe  Fe201     1.0  0.51635  0.09993  0.12103  1.0000
  H   H1739     1.0  0.75388  0.29407  0.00201  1.0000
  C   C1444     1.0  0.90462  0.00586  0.14699  1.0000
  H   H1740     1.0  0.96852  0.07265  0.23269  1.0000
  C   C1445     1.0  0.59539  0.00800  0.19531  1.0000
  H   H1741     1.0  0.54373  0.11338  0.06542  1.0000
  S   S398      1.0  0.50421  0.04909  0.15421  1.0000
  H   H1742     1.0  0.91102  0.01940  0.14162  1.0000
  C   C1446     1.0  0.89766  0.99924  0.16646  1.0000
  C   C1447     1.0  0.61641  0.21884  0.06014  1.0000
  C   C1448     1.0  0.61639  0.23248  0.08642  1.0000
  C   C1449     1.0  0.63468  0.24003  0.07897  1.0000
  C   C1450     1.0  0.63698  0.25738  0.08344  1.0000
  C   C1451     1.0  0.62123  0.26764  0.09559  1.0000
  H   H1743     1.0  0.63194  0.22115  0.05232  1.0000
  H   H1744     1.0  0.61382  0.20605  0.05547  1.0000
  H   H1745     1.0  0.60533  0.23289  0.05523  1.0000
  H   H1746     1.0  0.64730  0.23262  0.06945  1.0000
  H   H1747     1.0  0.65098  0.26304  0.07725  1.0000
  H   H1748     1.0  0.62302  0.28122  0.09888  1.0000
  C   C1452     1.0  0.74437  0.26799  0.99948  1.0000
  C   C1453     1.0  0.88049  0.15428  0.12463  1.0000
  H   H1749     1.0  0.99356  0.01218  0.14073  1.0000
  C   C1454     1.0  0.61120  0.07700  0.05359  1.0000
  C   C1455     1.0  0.96615  0.01841  0.10640  1.0000
  C   C1456     1.0  0.75794  0.27774  0.00258  1.0000
  C   C1457     1.0  0.75105  0.28586  0.05227  1.0000
  H   H1750     1.0  0.91173  0.02054  0.21708  1.0000
  H   H1751     1.0  0.56202  0.11237  0.03326  1.0000
  S   S399      1.0  0.65193  0.15910  0.00562  1.0000
  S   S400      1.0  0.51833  0.07263  0.10975  1.0000
  C   C1458     1.0  0.94138  0.10844  0.21569  1.0000
  H   H1752     1.0  0.68642  0.19517  0.98770  1.0000
  C   C1459     1.0  0.68563  0.27618  0.11704  1.0000
  C   C1460     1.0  0.74878  0.24643  0.00133  1.0000
  N   N96       1.0  0.55491  0.05504  0.20571  1.0000
  C   C1461     1.0  0.54854  0.07557  0.19389  1.0000
  C   C1462     1.0  0.53676  0.04558  0.21323  1.0000
  C   C1463     1.0  0.90053  0.01431  0.22956  1.0000
  C   C1464     1.0  0.49754  0.11093  0.23036  1.0000
  H   H1753     1.0  0.53600  0.08546  0.20217  1.0000
  H   H1754     1.0  0.49779  0.02970  0.12138  1.0000
  H   H1755     1.0  0.53150  0.04282  0.20165  1.0000
  H   H1756     1.0  0.52363  0.05540  0.22111  1.0000
  C   C1465     1.0  0.59056  0.07976  0.06387  1.0000
  Fe  Fe202     1.0  0.62444  0.14536  0.02027  1.0000
  H   H1757     1.0  0.97891  0.04493  0.12035  1.0000
  C   C1466     1.0  0.60038  0.04711  0.08562  1.0000
  S   S401      1.0  0.63559  0.21713  0.00560  1.0000
  H   H1758     1.0  0.98880  0.04975  0.09501  1.0000
  C   C1467     1.0  0.62590  0.05987  0.05929  1.0000
  C   C1468     1.0  0.98632  0.00861  0.10882  1.0000
  H   H1759     1.0  0.96033  0.03459  0.10552  1.0000
  H   H1760     1.0  0.70684  0.25604  0.00789  1.0000
  H   H1761     1.0  0.88216  0.04966  0.20886  1.0000
  N   N97       1.0  0.88400  0.03075  0.23655  1.0000
  H   H1762     1.0  0.57030  0.06481  0.08888  1.0000
  C   C1469     1.0  0.76782  0.23549  0.00584  1.0000
  S   S402      1.0  0.98321  0.05269  0.15373  1.0000
  S   S403      1.0  0.60687  0.13412  0.00585  1.0000
  Fe  Fe203     1.0  0.65728  0.31446  0.06504  1.0000
  H   H1763     1.0  0.59617  0.03547  0.09808  1.0000
  H   H1764     1.0  0.61380  0.00285  0.16836  1.0000
  Fe  Fe204     1.0  0.50365  0.07822  0.16176  1.0000
  H   H1765     1.0  0.80440  0.18547  0.01112  1.0000
  H   H1766     1.0  0.98233  0.11038  0.17956  1.0000
  H   H1767     1.0  0.73808  0.24885  0.09187  1.0000
  C   C1470     1.0  0.78461  0.26640  0.05692  1.0000
  H   H1768     1.0  0.83479  0.19293  0.07295  1.0000
  N   N98       1.0  0.86200  0.05019  0.11248  1.0000
  C   C1471     1.0  0.85990  0.02903  0.11419  1.0000
  C   C1472     1.0  0.88385  0.05143  0.10517  1.0000
  C   C1473     1.0  0.85584  0.05430  0.13181  1.0000
  C   C1474     1.0  0.84967  0.06463  0.09924  1.0000
  C   C1475     1.0  0.85412  0.06300  0.08009  1.0000
  C   C1476     1.0  0.83297  0.08037  0.10478  1.0000
  C   C1477     1.0  0.84280  0.07648  0.06726  1.0000
  C   C1478     1.0  0.82164  0.09362  0.09185  1.0000
  C   C1479     1.0  0.82662  0.09180  0.07312  1.0000
  H   H1769     1.0  0.84352  0.02787  0.11838  1.0000
  H   H1770     1.0  0.86664  0.02367  0.10077  1.0000
  H   H1771     1.0  0.86771  0.01779  0.12503  1.0000
  H   H1772     1.0  0.89058  0.04614  0.09174  1.0000
  H   H1773     1.0  0.89343  0.04188  0.11535  1.0000
  H   H1774     1.0  0.88575  0.06747  0.10247  1.0000
  H   H1775     1.0  0.83977  0.05282  0.13858  1.0000
  H   H1776     1.0  0.86555  0.04333  0.14135  1.0000
  H   H1777     1.0  0.85751  0.06985  0.13156  1.0000
  H   H1778     1.0  0.86644  0.05129  0.07489  1.0000
  H   H1779     1.0  0.82844  0.08305  0.11893  1.0000
  H   H1780     1.0  0.84656  0.07511  0.05265  1.0000
  H   H1781     1.0  0.80907  0.10561  0.09637  1.0000
  N   N99       1.0  0.61424  0.21442  0.08092  1.0000
  H   H1782     1.0  0.59300  0.19503  0.08518  1.0000
  H   H1783     1.0  0.59195  0.20381  0.10553  1.0000
  C   C1480     1.0  0.60315  0.26051  0.10340  1.0000
  C   C1481     1.0  0.77021  0.28490  0.05539  1.0000
  C   C1482     1.0  0.58014  0.02154  0.20493  1.0000
  H   H1784     1.0  0.59095  0.26859  0.11286  1.0000
  C   C1483     1.0  0.56132  0.05808  0.22179  1.0000
  C   C1484     1.0  0.58554  0.06420  0.08010  1.0000
  H   H1785     1.0  0.73746  0.22368  0.07921  1.0000
  C   C1485     1.0  0.76082  0.24948  0.05223  1.0000
  C   C1486     1.0  0.57166  0.04134  0.19529  1.0000
  C   C1487     1.0  0.73079  0.21835  0.01465  1.0000
  C   C1488     1.0  0.95271  0.00734  0.10508  1.0000
  C   C1489     1.0  0.86977  0.14747  0.14287  1.0000
  S   S404      1.0  0.68573  0.24513  0.04780  1.0000
  H   H1786     1.0  0.77400  0.29857  0.05652  1.0000
  C   C1490     1.0  0.58228  0.11679  0.05708  1.0000
  H   H1787     1.0  0.71623  0.24049  0.06955  1.0000
  C   C1491     1.0  0.72117  0.27540  0.10204  1.0000
  H   H1788     1.0  0.70403  0.23999  0.99435  1.0000
  H   H1789     1.0  0.71169  0.17113  0.00238  1.0000
  H   H1790     1.0  0.68877  0.20657  0.03986  1.0000
  S   S405      1.0  0.81537  0.16811  0.05967  1.0000
  C   C1492     1.0  0.72089  0.22612  0.07979  1.0000
  H   H1791     1.0  0.54224  0.07449  0.18222  1.0000
  H   H1792     1.0  0.57361  0.06112  0.16674  1.0000
  Fe  Fe205     1.0  0.78996  0.19589  0.06150  1.0000
  C   C1493     1.0  0.84867  0.15434  0.14771  1.0000
  H   H1793     1.0  0.87778  0.13650  0.15316  1.0000
  C   C1494     1.0  0.67770  0.21782  0.03262  1.0000
  C   C1495     1.0  0.77998  0.24863  0.05542  1.0000
  H   H1794     1.0  0.73166  0.26887  0.04790  1.0000
  S   S406      1.0  0.68405  0.28870  0.06981  1.0000
  C   C1496     1.0  0.71852  0.21033  0.11293  1.0000
  H   H1795     1.0  0.73392  0.21258  0.11245  1.0000
  C   C1497     1.0  0.98248  0.08466  0.16883  1.0000
  C   C1498     1.0  0.74630  0.26811  0.05070  1.0000
  N   N100      1.0  0.70827  0.22661  0.09917  1.0000
  C   C1499     1.0  0.66725  0.21171  0.02245  1.0000
  H   H1796     1.0  0.69058  0.20748  0.09517  1.0000
  C   C1500     1.0  0.65185  0.22578  0.01429  1.0000
  H   H1797     1.0  0.72487  0.22385  0.02809  1.0000
  C   C1501     1.0  0.68838  0.22189  0.09997  1.0000
  H   H1798     1.0  0.86197  0.20775  0.08992  1.0000
  H   H1799     1.0  0.58804  0.09969  0.02772  1.0000
  H   H1800     1.0  0.54799  0.08611  0.07052  1.0000
  C   C1502     1.0  0.72314  0.25608  0.09874  1.0000
  C   C1503     1.0  0.55469  0.09909  0.07015  1.0000
  H   H1801     1.0  0.67892  0.21933  0.11457  1.0000
  C   C1504     1.0  0.84530  0.20977  0.09625  1.0000
  H   H1802     1.0  0.85946  0.17987  0.07696  1.0000
  C   C1505     1.0  0.80338  0.15954  0.00135  1.0000
  Fe  Fe206     1.0  0.67940  0.27881  0.04584  1.0000
  C   C1506     1.0  0.84297  0.18226  0.08385  1.0000
  H   H1803     1.0  0.81052  0.20249  0.11977  1.0000
  H   H1804     1.0  0.79944  0.26591  0.05919  1.0000
  H   H1805     1.0  0.84237  0.21613  0.10899  1.0000
  H   H1806     1.0  0.73487  0.14111  0.02920  1.0000
  Fe  Fe207     1.0  0.79523  0.15789  0.04703  1.0000
  H   H1807     1.0  0.67089  0.19598  0.02125  1.0000
  S   S407      1.0  0.77139  0.18708  0.04615  1.0000
  H   H1808     1.0  0.80920  0.18094  0.11137  1.0000
  C   C1507     1.0  0.68735  0.25697  0.11353  1.0000
  H   H1809     1.0  0.86656  0.03118  0.21658  1.0000
  H   H1810     1.0  0.74463  0.20611  0.01629  1.0000
  H   H1811     1.0  0.71935  0.21063  0.01328  1.0000
  N   N101      1.0  0.83817  0.19031  0.10119  1.0000
  C   C1508     1.0  0.81552  0.19504  0.10750  1.0000
  H   H1812     1.0  0.83834  0.16734  0.08719  1.0000
  H   H1813     1.0  0.82176  0.17215  0.13894  1.0000
  C   C1509     1.0  0.70608  0.24662  0.10369  1.0000
  C   C1510     1.0  0.57941  0.04669  0.17544  1.0000
  H   H1814     1.0  0.84036  0.14862  0.16183  1.0000
  H   H1815     1.0  0.89685  0.14845  0.12080  1.0000
  H   H1816     1.0  0.80808  0.20575  0.09611  1.0000
  C   C1511     1.0  0.70243  0.28549  0.11108  1.0000
  C   C1512     1.0  0.84866  0.17539  0.11561  1.0000
  C   C1513     1.0  0.83815  0.16797  0.13433  1.0000
  H   H1817     1.0  0.73417  0.28278  0.09719  1.0000
  N   N102      1.0  0.57539  0.09819  0.05761  1.0000
  H   H1818     1.0  0.58489  0.11647  0.07109  1.0000
  H   H1819     1.0  0.77229  0.21910  0.00747  1.0000
  H   H1820     1.0  0.59669  0.11854  0.04648  1.0000
  H   H1821     1.0  0.56868  0.08480  0.03806  1.0000
  H   H1822     1.0  0.63192  0.03171  0.07970  1.0000
  H   H1823     1.0  0.64159  0.05821  0.05128  1.0000
  S   S408      1.0  0.73362  0.30955  0.05014  1.0000
  H   H1824     1.0  0.57088  0.13098  0.05312  1.0000
  C   C1514     1.0  0.62050  0.04496  0.07528  1.0000
  H   H1825     1.0  0.59975  0.03705  0.15073  1.0000
  N   N103      1.0  0.73478  0.23554  0.99824  1.0000
  C   C1515     1.0  0.57345  0.09873  0.03837  1.0000
  H   H1826     1.0  0.52205  0.99743  0.16898  1.0000
  H   H1827     1.0  0.78669  0.27398  0.00998  1.0000
  H   H1828     1.0  0.57454  0.01607  0.21988  1.0000
  C   C1516     1.0  0.59463  0.03298  0.16597  1.0000
  C   C1517     1.0  0.56312  0.01183  0.15131  1.0000
  H   H1829     1.0  0.98616  0.08724  0.21708  1.0000
  H   H1830     1.0  0.90875  0.99983  0.11941  1.0000
  H   H1831     1.0  0.51317  0.10397  0.23160  1.0000
  C   C1518     1.0  0.87240  0.04167  0.22159  1.0000
  C   C1519     1.0  0.98470  0.07135  0.22483  1.0000
  S   S409      1.0  0.63127  0.32242  0.08927  1.0000
  H   H1832     1.0  0.50928  0.01448  0.19171  1.0000
  C   C1520     1.0  0.55348  0.00191  0.18553  1.0000
  H   H1833     1.0  0.72299  0.14717  0.99585  1.0000
  H   H1834     1.0  0.98716  0.06219  0.21411  1.0000
  Fe  Fe208     1.0  0.67168  0.32182  0.02254  1.0000
  H   H1835     1.0  0.89460  0.00356  0.22501  1.0000
  H   H1836     1.0  0.85921  0.05349  0.22667  1.0000
  H   H1837     1.0  0.49887  0.00261  0.16084  1.0000
  H   H1838     1.0  0.90419  0.05217  0.22660  1.0000
  H   H1839     1.0  0.73044  0.27765  0.99585  1.0000
  H   H1840     1.0  0.54916  0.06867  0.22966  1.0000
  H   H1841     1.0  0.53995  0.03075  0.22328  1.0000
  C   C1521     1.0  0.71433  0.16291  0.99089  1.0000
  H   H1842     1.0  0.69934  0.16096  0.98984  1.0000
  S   S410      1.0  0.52062  0.99702  0.23458  1.0000
  S   S411      1.0  0.49779  0.07887  0.19238  1.0000
  C   C1522     1.0  0.90411  0.09869  0.23688  1.0000
  H   H1843     1.0  0.92707  0.04172  0.26838  1.0000
  C   C1523     1.0  0.50469  0.03913  0.27390  1.0000
  C   C1524     1.0  0.79124  0.31196  0.42750  1.0000
  C   C1525     1.0  0.76183  0.29771  0.32516  1.0000
  H   H1844     1.0  0.73918  0.26073  0.41696  1.0000
  H   H1845     1.0  0.96888  0.04688  0.32760  1.0000
  Fe  Fe209     1.0  0.79773  0.23795  0.39306  1.0000
  S   S412      1.0  0.82888  0.23741  0.37415  1.0000
  S   S413      1.0  0.77145  0.23526  0.38279  1.0000
  Fe  Fe210     1.0  0.81198  0.23744  0.42774  1.0000
  S   S414      1.0  0.84466  0.23611  0.41209  1.0000
  H   H1846     1.0  0.86321  0.29012  0.48618  1.0000
  Fe  Fe211     1.0  0.83117  0.25986  0.38944  1.0000
  S   S415      1.0  0.84359  0.28799  0.37395  1.0000
  Fe  Fe212     1.0  0.83975  0.21359  0.39821  1.0000
  S   S416      1.0  0.86354  0.18455  0.39508  1.0000
  S   S417      1.0  0.79883  0.26288  0.40598  1.0000
  S   S418      1.0  0.80826  0.21251  0.41617  1.0000
  Fe  Fe213     1.0  0.91546  0.09196  0.31275  1.0000
  S   S419      1.0  0.90842  0.12105  0.29148  1.0000
  S   S420      1.0  0.89413  0.06992  0.32469  1.0000
  Fe  Fe214     1.0  0.95598  0.09993  0.31370  1.0000
  S   S421      1.0  0.95257  0.12955  0.29225  1.0000
  C   C1526     1.0  0.74690  0.29488  0.42353  1.0000
  Fe  Fe215     1.0  0.92003  0.13520  0.30883  1.0000
  S   S422      1.0  0.90251  0.16654  0.31324  1.0000
  Fe  Fe216     1.0  0.94123  0.11281  0.27693  1.0000
  H   H1847     1.0  0.89321  0.22550  0.43842  1.0000
  S   S423      1.0  0.92428  0.10667  0.33153  1.0000
  S   S424      1.0  0.94753  0.08265  0.29693  1.0000
  C   C1527     1.0  0.89029  0.25588  0.42107  1.0000
  H   H1848     1.0  0.85130  0.29826  0.46671  1.0000
  C   C1528     1.0  0.87026  0.02150  0.25374  1.0000
  C   C1529     1.0  0.97589  0.01714  0.26807  1.0000
  C   C1530     1.0  0.87408  0.17938  0.37234  1.0000
  C   C1531     1.0  0.86766  0.19265  0.35645  1.0000
  C   C1532     1.0  0.87656  0.18851  0.33844  1.0000
  C   C1533     1.0  0.89173  0.17091  0.33618  1.0000
  C   C1534     1.0  0.89805  0.15745  0.35207  1.0000
  C   C1535     1.0  0.88929  0.16174  0.37011  1.0000
  H   H1849     1.0  0.85580  0.20606  0.35794  1.0000
  H   H1850     1.0  0.87155  0.19891  0.32619  1.0000
  H   H1851     1.0  0.90994  0.14398  0.35042  1.0000
  H   H1852     1.0  0.89437  0.15141  0.38236  1.0000
  C   C1536     1.0  0.72498  0.29336  0.36583  1.0000
  C   C1537     1.0  0.72275  0.27433  0.36485  1.0000
  C   C1538     1.0  0.73698  0.25657  0.37032  1.0000
  C   C1539     1.0  0.75365  0.25778  0.37661  1.0000
  C   C1540     1.0  0.75599  0.27680  0.37756  1.0000
  C   C1541     1.0  0.74162  0.29460  0.37221  1.0000
  H   H1853     1.0  0.70999  0.27331  0.35982  1.0000
  H   H1854     1.0  0.73515  0.24190  0.36949  1.0000
  H   H1855     1.0  0.76913  0.27783  0.38192  1.0000
  H   H1856     1.0  0.74390  0.30934  0.37217  1.0000
  C   C1542     1.0  0.89530  0.25842  0.38753  1.0000
  H   H1857     1.0  0.71330  0.28854  0.41510  1.0000
  H   H1858     1.0  0.86155  0.25154  0.46529  1.0000
  H   H1859     1.0  0.80470  0.28250  0.44244  1.0000
  C   C1543     1.0  0.84283  0.29186  0.40935  1.0000
  C   C1544     1.0  0.84608  0.30078  0.39002  1.0000
  C   C1545     1.0  0.84632  0.24904  0.47224  1.0000
  H   H1860     1.0  0.84403  0.29418  0.43688  1.0000
  H   H1861     1.0  0.83817  0.27737  0.41456  1.0000
  H   H1862     1.0  0.90024  0.19690  0.38836  1.0000
  H   H1863     1.0  0.86615  0.31404  0.46990  1.0000
  H   H1864     1.0  0.73107  0.25002  0.44163  1.0000
  H   H1865     1.0  0.93548  0.00821  0.31897  1.0000
  C   C1546     1.0  0.89993  0.23679  0.39000  1.0000
  C   C1547     1.0  0.89383  0.04566  0.23972  1.0000
  C   C1548     1.0  0.77969  0.29839  0.46071  1.0000
  C   C1549     1.0  0.85222  0.32026  0.41549  1.0000
  H   H1866     1.0  0.97663  0.12710  0.32457  1.0000
  C   C1550     1.0  0.71709  0.29781  0.46404  1.0000
  C   C1551     1.0  0.89417  0.23464  0.42411  1.0000
  C   C1552     1.0  0.91050  0.02087  0.29002  1.0000
  C   C1553     1.0  0.79433  0.31276  0.36428  1.0000
  C   C1554     1.0  0.89235  0.03323  0.31858  1.0000
  C   C1555     1.0  0.89967  0.05141  0.31105  1.0000
  C   C1556     1.0  0.91201  0.05443  0.29285  1.0000
  C   C1557     1.0  0.91743  0.03921  0.28241  1.0000
  H   H1867     1.0  0.88959  0.09513  0.24510  1.0000
  C   C1558     1.0  0.74383  0.26724  0.46641  1.0000
  H   H1868     1.0  0.91730  0.06857  0.28672  1.0000
  C   C1559     1.0  0.74310  0.26803  0.48490  1.0000
  C   C1560     1.0  0.94909  0.01007  0.32207  1.0000
  H   H1869     1.0  0.88873  0.22515  0.35350  1.0000
  H   H1870     1.0  0.88762  0.28427  0.40054  1.0000
  H   H1871     1.0  0.85451  0.01857  0.30161  1.0000
  H   H1872     1.0  0.90156  0.20864  0.41230  1.0000
  C   C1561     1.0  0.89098  0.26772  0.40281  1.0000
  H   H1873     1.0  0.88233  0.05890  0.24439  1.0000
  H   H1874     1.0  0.78108  0.28600  0.47304  1.0000
  C   C1562     1.0  0.78814  0.26971  0.33574  1.0000
  H   H1875     1.0  0.75517  0.25511  0.46086  1.0000
  C   C1563     1.0  0.96491  0.99324  0.32521  1.0000
  N   N104      1.0  0.73234  0.28192  0.43540  1.0000
  H   H1876     1.0  0.75651  0.25502  0.43176  1.0000
  H   H1877     1.0  0.70033  0.28228  0.43947  1.0000
  Fe  Fe217     1.0  0.53104  0.99973  0.25910  1.0000
  C   C1564     1.0  0.73061  0.28191  0.45545  1.0000
  H   H1878     1.0  0.87371  0.22479  0.37700  1.0000
  C   C1565     1.0  0.88589  0.23167  0.36615  1.0000
  H   H1879     1.0  0.87473  0.03676  0.27380  1.0000
  H   H1880     1.0  0.74780  0.30315  0.31999  1.0000
  N   N105      1.0  0.85554  0.12156  0.35071  1.0000
  C   C1566     1.0  0.84335  0.10669  0.35151  1.0000
  C   C1567     1.0  0.86659  0.12771  0.33090  1.0000
  C   C1568     1.0  0.87120  0.11071  0.36210  1.0000
  C   C1569     1.0  0.84182  0.13978  0.35728  1.0000
  C   C1570     1.0  0.82632  0.15199  0.34758  1.0000
  C   C1571     1.0  0.84319  0.14590  0.37333  1.0000
  C   C1572     1.0  0.81316  0.16927  0.35347  1.0000
  C   C1573     1.0  0.82981  0.16310  0.37919  1.0000
  C   C1574     1.0  0.81492  0.17483  0.36925  1.0000
  H   H1881     1.0  0.83252  0.11296  0.34189  1.0000
  H   H1882     1.0  0.85334  0.09253  0.34711  1.0000
  H   H1883     1.0  0.83431  0.10208  0.36608  1.0000
  H   H1884     1.0  0.85624  0.13453  0.32090  1.0000
  H   H1885     1.0  0.87730  0.11436  0.32572  1.0000
  H   H1886     1.0  0.87565  0.13919  0.32959  1.0000
  H   H1887     1.0  0.86407  0.10485  0.37710  1.0000
  H   H1888     1.0  0.88132  0.09718  0.35665  1.0000
  H   H1889     1.0  0.88141  0.12085  0.36157  1.0000
  H   H1890     1.0  0.82434  0.14832  0.33526  1.0000
  H   H1891     1.0  0.85463  0.13791  0.38150  1.0000
  H   H1892     1.0  0.80158  0.17849  0.34574  1.0000
  H   H1893     1.0  0.83124  0.16760  0.39138  1.0000
  H   H1894     1.0  0.80479  0.18832  0.37375  1.0000
  S   S425      1.0  0.53020  0.03065  0.26312  1.0000
  C   C1575     1.0  0.89778  0.01794  0.30808  1.0000
  H   H1895     1.0  0.91543  0.25235  0.35192  1.0000
  H   H1896     1.0  0.82790  0.30078  0.33939  1.0000
  H   H1897     1.0  0.89228  0.00387  0.31401  1.0000
  S   S426      1.0  0.70716  0.31536  0.35839  1.0000
  C   C1576     1.0  0.89900  0.22512  0.40886  1.0000
  C   C1577     1.0  0.85189  0.31973  0.38350  1.0000
  H   H1898     1.0  0.70694  0.30691  0.42892  1.0000
  H   H1899     1.0  0.93448  0.23463  0.36375  1.0000
  H   H1900     1.0  0.87953  0.24836  0.36212  1.0000
  S   S427      1.0  0.91786  0.00229  0.27627  1.0000
  H   H1901     1.0  0.98663  0.01914  0.36446  1.0000
  H   H1902     1.0  0.88282  0.03080  0.33266  1.0000
  H   H1903     1.0  0.80157  0.31037  0.41404  1.0000
  H   H1904     1.0  0.88644  0.26323  0.43291  1.0000
  H   H1905     1.0  0.90905  0.00527  0.24072  1.0000
  H   H1906     1.0  0.83888  0.24808  0.44669  1.0000
  H   H1907     1.0  0.91298  0.10256  0.26065  1.0000
  H   H1908     1.0  0.89454  0.26839  0.37383  1.0000
  C   C1578     1.0  0.92074  0.23597  0.35828  1.0000
  C   C1579     1.0  0.76457  0.31620  0.46212  1.0000
  C   C1580     1.0  0.96824  0.03163  0.32725  1.0000
  H   H1909     1.0  0.91570  0.19808  0.36533  1.0000
  C   C1581     1.0  0.74006  0.26104  0.43141  1.0000
  H   H1910     1.0  0.93834  0.04226  0.32076  1.0000
  C   C1582     1.0  0.85509  0.30391  0.47751  1.0000
  H   H1911     1.0  0.96108  0.01441  0.27654  1.0000
  H   H1912     1.0  0.96467  0.04914  0.25975  1.0000
  C   C1583     1.0  0.83352  0.24699  0.46170  1.0000
  C   C1584     1.0  0.81399  0.24331  0.47069  1.0000
  H   H1913     1.0  0.79456  0.25341  0.33875  1.0000
  C   C1585     1.0  0.71641  0.29837  0.48262  1.0000
  C   C1586     1.0  0.85579  0.01548  0.28795  1.0000
  C   C1587     1.0  0.86750  0.02585  0.27174  1.0000
  H   H1914     1.0  0.82144  0.31933  0.31888  1.0000
  C   C1588     1.0  0.71238  0.29022  0.42963  1.0000
  H   H1915     1.0  0.74883  0.29560  0.40825  1.0000
  H   H1916     1.0  0.90350  0.03838  0.25026  1.0000
  H   H1917     1.0  0.97886  0.07556  0.26033  1.0000
  H   H1918     1.0  0.51223  0.05414  0.29172  1.0000
  C   C1589     1.0  0.77075  0.27693  0.32816  1.0000
  H   H1919     1.0  0.92608  0.20044  0.38380  1.0000
  C   C1590     1.0  0.85982  0.00688  0.25294  1.0000
  H   H1920     1.0  0.80191  0.29668  0.36931  1.0000
  H   H1921     1.0  0.74165  0.31082  0.42562  1.0000
  H   H1922     1.0  0.92573  0.22795  0.34635  1.0000
  C   C1591     1.0  0.98445  0.01471  0.33102  1.0000
  H   H1923     1.0  0.80119  0.32251  0.36927  1.0000
  C   C1592     1.0  0.84609  0.30146  0.42202  1.0000
  H   H1924     1.0  0.80966  0.27674  0.34692  1.0000
  C   C1593     1.0  0.81886  0.31626  0.33454  1.0000
  C   C1594     1.0  0.79662  0.28322  0.34044  1.0000
  S   S428      1.0  0.79790  0.23994  0.45795  1.0000
  H   H1925     1.0  0.75480  0.31674  0.47595  1.0000
  C   C1595     1.0  0.79301  0.29631  0.44346  1.0000
  C   C1596     1.0  0.91730  0.10304  0.24569  1.0000
  S   S429      1.0  0.98408  0.08367  0.32523  1.0000
  N   N106      1.0  0.90463  0.22732  0.37351  1.0000
  C   C1597     1.0  0.91205  0.20476  0.37802  1.0000
  H   H1926     1.0  0.76223  0.28891  0.42706  1.0000
  H   H1927     1.0  0.70703  0.31008  0.45657  1.0000
  C   C1598     1.0  0.97810  0.03696  0.25829  1.0000
  C   C1599     1.0  0.78793  0.30451  0.33760  1.0000
  H   H1928     1.0  0.76374  0.26632  0.32523  1.0000
  C   C1600     1.0  0.50008  0.05007  0.28807  1.0000
  S   S430      1.0  0.95250  0.11412  0.24569  1.0000
  C   C1601     1.0  0.95076  0.02923  0.32306  1.0000
  N   N107      1.0  0.79674  0.31833  0.34346  1.0000
  C   C1602     1.0  0.98238  0.99545  0.32955  1.0000
  H   H1929     1.0  0.97926  0.13932  0.25094  1.0000
  C   C1603     1.0  0.99125  0.11967  0.32822  1.0000
  H   H1930     1.0  0.82206  0.32421  0.46504  1.0000
  C   C1604     1.0  0.84802  0.99672  0.26922  1.0000
  C   C1605     1.0  0.84623  0.00082  0.28673  1.0000
  H   H1931     1.0  0.86117  0.00282  0.23974  1.0000
  H   H1932     1.0  0.98705  0.04364  0.34859  1.0000
  H   H1933     1.0  0.77791  0.31464  0.37155  1.0000
  C   C1606     1.0  0.99479  0.07467  0.25184  1.0000
  C   C1607     1.0  0.77020  0.31139  0.32978  1.0000
  C   C1608     1.0  0.99270  0.00088  0.26720  1.0000
  H   H1934     1.0  0.86182  0.09463  0.58609  1.0000
  H   H1935     1.0  0.59537  0.13452  0.70734  1.0000
  H   H1936     1.0  0.72899  0.28422  0.50733  1.0000
  H   H1937     1.0  0.89513  0.05162  0.69027  1.0000
  S   S431      1.0  0.58859  0.03296  0.64176  1.0000
  H   H1938     1.0  0.91497  0.09652  0.55082  1.0000
  C   C1609     1.0  0.89534  0.04052  0.58467  1.0000
  C   C1610     1.0  0.89346  0.07686  0.58256  1.0000
  H   H1939     1.0  0.85992  0.29416  0.51508  1.0000
  S   S432      1.0  0.61422  0.06719  0.71678  1.0000
  H   H1940     1.0  0.80907  0.30798  0.50859  1.0000
  H   H1941     1.0  0.86717  0.04053  0.63923  1.0000
  C   C1611     1.0  0.63662  0.02755  0.72350  1.0000
  C   C1612     1.0  0.56234  0.04504  0.69261  1.0000
  H   H1942     1.0  0.59261  0.03272  0.55631  1.0000
  C   C1613     1.0  0.81444  0.32373  0.57048  1.0000
  H   H1943     1.0  0.58884  0.01111  0.61577  1.0000
  C   C1614     1.0  0.88314  0.01268  0.62992  1.0000
  C   C1615     1.0  0.57103  0.02542  0.70118  1.0000
  C   C1616     1.0  0.58907  0.04432  0.58796  1.0000
  H   H1944     1.0  0.57792  0.09538  0.71765  1.0000
  Fe  Fe218     1.0  0.84545  0.24420  0.53620  1.0000
  S   S433      1.0  0.82132  0.22760  0.55564  1.0000
  C   C1617     1.0  0.94263  0.01889  0.73048  1.0000
  Fe  Fe219     1.0  0.85530  0.25626  0.56755  1.0000
  S   S434      1.0  0.83217  0.24117  0.59004  1.0000
  S   S435      1.0  0.87657  0.27333  0.57105  1.0000
  Fe  Fe220     1.0  0.84348  0.21532  0.57490  1.0000
  S   S436      1.0  0.84495  0.18382  0.59392  1.0000
  Fe  Fe221     1.0  0.81180  0.25439  0.56939  1.0000
  S   S437      1.0  0.77928  0.26853  0.58043  1.0000
  S   S438      1.0  0.86866  0.22931  0.55412  1.0000
  S   S439      1.0  0.83376  0.27219  0.54839  1.0000
  Fe  Fe222     1.0  0.94085  0.06090  0.63450  1.0000
  S   S440      1.0  0.96254  0.08068  0.61639  1.0000
  S   S441      1.0  0.94163  0.03452  0.62243  1.0000
  Fe  Fe223     1.0  0.93111  0.08279  0.66662  1.0000
  S   S442      1.0  0.95188  0.10467  0.65082  1.0000
  S   S443      1.0  0.91471  0.08045  0.69700  1.0000
  Fe  Fe224     1.0  0.93852  0.10653  0.62626  1.0000
  S   S444      1.0  0.93371  0.13471  0.60310  1.0000
  Fe  Fe225     1.0  0.97368  0.07676  0.64250  1.0000
  S   S445      1.0  0.91573  0.08692  0.64277  1.0000
  S   S446      1.0  0.95381  0.05486  0.65991  1.0000
  C   C1618     1.0  0.92862  0.08554  0.71080  1.0000
  C   C1619     1.0  0.94800  0.09011  0.70284  1.0000
  C   C1620     1.0  0.95860  0.09490  0.71385  1.0000
  H   H1945     1.0  0.98066  0.00516  0.69440  1.0000
  H   H1946     1.0  0.56488  0.15186  0.69852  1.0000
  H   H1947     1.0  0.95489  0.08996  0.68822  1.0000
  H   H1948     1.0  0.97352  0.09858  0.70755  1.0000
  H   H1949     1.0  0.62651  0.01617  0.67967  1.0000
  C   C1621     1.0  0.58713  0.02194  0.56957  1.0000
  H   H1950     1.0  0.71654  0.19265  0.65321  1.0000
  N   N108      1.0  0.78074  0.20201  0.61474  1.0000
  H   H1951     1.0  0.78724  0.17770  0.63864  1.0000
  C   C1622     1.0  0.89820  0.02002  0.68987  1.0000
  H   H1952     1.0  0.75637  0.23955  0.60420  1.0000
  H   H1953     1.0  0.81457  0.24337  0.51576  1.0000
  H   H1954     1.0  0.90526  0.08147  0.73628  1.0000
  H   H1955     1.0  0.58314  0.03449  0.73331  1.0000
  C   C1623     1.0  0.51244  0.12025  0.71570  1.0000
  C   C1624     1.0  0.86959  0.16969  0.59613  1.0000
  C   C1625     1.0  0.87197  0.15301  0.61144  1.0000
  C   C1626     1.0  0.89160  0.14199  0.61373  1.0000
  C   C1627     1.0  0.90886  0.14755  0.60060  1.0000
  C   C1628     1.0  0.90643  0.16394  0.58511  1.0000
  C   C1629     1.0  0.88686  0.17498  0.58289  1.0000
  H   H1956     1.0  0.85863  0.14884  0.62175  1.0000
  H   H1957     1.0  0.89336  0.12945  0.62580  1.0000
  H   H1958     1.0  0.91977  0.16819  0.57485  1.0000
  H   H1959     1.0  0.88519  0.18752  0.57085  1.0000
  H   H1960     1.0  0.88239  0.31343  0.56783  1.0000
  C   C1630     1.0  0.76378  0.29338  0.52964  1.0000
  C   C1631     1.0  0.77442  0.28145  0.54369  1.0000
  C   C1632     1.0  0.76620  0.28277  0.56259  1.0000
  C   C1633     1.0  0.74750  0.29608  0.56737  1.0000
  C   C1634     1.0  0.79187  0.21495  0.61914  1.0000
  H   H1961     1.0  0.77004  0.29225  0.51505  1.0000
  H   H1962     1.0  0.78885  0.27114  0.53993  1.0000
  H   H1963     1.0  0.74111  0.29714  0.58196  1.0000
  H   H1964     1.0  0.98553  0.03850  0.60655  1.0000
  H   H1965     1.0  0.90044  0.08776  0.61083  1.0000
  C   C1635     1.0  0.87417  0.04397  0.58755  1.0000
  H   H1966     1.0  0.57219  0.04994  0.59013  1.0000
  C   C1636     1.0  0.75848  0.20868  0.62187  1.0000
  H   H1967     1.0  0.95159  0.03308  0.70127  1.0000
  C   C1637     1.0  0.84181  0.30035  0.61375  1.0000
  C   C1638     1.0  0.84987  0.28656  0.60169  1.0000
  C   C1639     1.0  0.86469  0.29118  0.58524  1.0000
  C   C1640     1.0  0.87090  0.30983  0.58053  1.0000
  H   H1968     1.0  0.78789  0.31563  0.55642  1.0000
  C   C1641     1.0  0.90222  0.00078  0.62364  1.0000
  H   H1969     1.0  0.84509  0.27214  0.60542  1.0000
  C   C1642     1.0  0.89935  0.99948  0.70046  1.0000
  H   H1970     1.0  0.88266  0.11813  0.56735  1.0000
  H   H1971     1.0  0.62445  0.01302  0.55306  1.0000
  C   C1643     1.0  0.71590  0.22259  0.63514  1.0000
  C   C1644     1.0  0.53892  0.01412  0.70679  1.0000
  H   H1972     1.0  0.89892  0.05240  0.63598  1.0000
  C   C1645     1.0  0.78525  0.20430  0.59394  1.0000
  H   H1973     1.0  0.56493  0.11951  0.72373  1.0000
  C   C1646     1.0  0.54195  0.04960  0.69138  1.0000
  C   C1647     1.0  0.66108  0.00471  0.57725  1.0000
  H   H1974     1.0  0.81366  0.31072  0.58301  1.0000
  C   C1648     1.0  0.61785  0.01648  0.58245  1.0000
  H   H1975     1.0  0.89864  0.12627  0.57754  1.0000
  H   H1976     1.0  0.92820  0.10757  0.56168  1.0000
  H   H1977     1.0  0.77613  0.19592  0.58989  1.0000
  C   C1649     1.0  0.56192  0.03598  0.64639  1.0000
  C   C1650     1.0  0.54958  0.05566  0.64490  1.0000
  C   C1651     1.0  0.52821  0.05829  0.65033  1.0000
  C   C1652     1.0  0.51917  0.04123  0.65638  1.0000
  C   C1653     1.0  0.53147  0.02166  0.65636  1.0000
  H   H1978     1.0  0.56229  0.00374  0.65284  1.0000
  H   H1979     1.0  0.55655  0.06883  0.64022  1.0000
  H   H1980     1.0  0.51877  0.07347  0.65008  1.0000
  C   C1654     1.0  0.50608  0.00393  0.71089  1.0000
  H   H1981     1.0  0.59167  0.00618  0.56684  1.0000
  H   H1982     1.0  0.92124  0.05282  0.58133  1.0000
  C   C1655     1.0  0.62938  0.01922  0.69190  1.0000
  C   C1656     1.0  0.62152  0.03860  0.69610  1.0000
  C   C1657     1.0  0.62486  0.04274  0.71201  1.0000
  S   S447      1.0  0.85645  0.24905  0.50466  1.0000
  H   H1983     1.0  0.53517  0.06488  0.68464  1.0000
  C   C1658     1.0  0.74525  0.30701  0.53444  1.0000
  H   H1984     1.0  0.61250  0.05028  0.68717  1.0000
  C   C1659     1.0  0.87186  0.07990  0.58540  1.0000
  C   C1660     1.0  0.99498  0.04818  0.70141  1.0000
  H   H1985     1.0  0.80172  0.19824  0.58826  1.0000
  C   C1661     1.0  0.64085  0.00388  0.70349  1.0000
  C   C1662     1.0  0.83967  0.24737  0.49180  1.0000
  C   C1663     1.0  0.85469  0.31032  0.51491  1.0000
  N   N109      1.0  0.89736  0.22249  0.61363  1.0000
  C   C1664     1.0  0.88007  0.21947  0.60754  1.0000
  C   C1665     1.0  0.89102  0.24249  0.61934  1.0000
  C   C1666     1.0  0.91489  0.22398  0.59711  1.0000
  C   C1667     1.0  0.90310  0.20492  0.62892  1.0000
  C   C1668     1.0  0.90068  0.20681  0.64778  1.0000
  C   C1669     1.0  0.91094  0.18500  0.62528  1.0000
  C   C1670     1.0  0.90605  0.18977  0.66189  1.0000
  C   C1671     1.0  0.91625  0.16810  0.63947  1.0000
  C   C1672     1.0  0.91384  0.17047  0.65774  1.0000
  H   H1986     1.0  0.87524  0.23246  0.59609  1.0000
  H   H1987     1.0  0.88406  0.20541  0.60188  1.0000
  H   H1988     1.0  0.86657  0.21807  0.61950  1.0000
  H   H1989     1.0  0.87679  0.24329  0.63062  1.0000
  H   H1990     1.0  0.88758  0.25544  0.60734  1.0000
  H   H1991     1.0  0.90334  0.24567  0.62421  1.0000
  H   H1992     1.0  0.91907  0.21071  0.59030  1.0000
  H   H1993     1.0  0.91133  0.23776  0.58578  1.0000
  H   H1994     1.0  0.92868  0.22495  0.60131  1.0000
  H   H1995     1.0  0.89465  0.22125  0.65204  1.0000
  H   H1996     1.0  0.91298  0.18225  0.61141  1.0000
  H   H1997     1.0  0.97061  0.05216  0.72500  1.0000
  H   H1998     1.0  0.92229  0.15304  0.63627  1.0000
  C   C1673     1.0  0.89989  0.03804  0.63252  1.0000
  H   H1999     1.0  0.57145  0.05664  0.68694  1.0000
  H   H2000     1.0  0.81831  0.29379  0.49008  1.0000
  C   C1674     1.0  0.86230  0.32390  0.59220  1.0000
  H   H2001     1.0  0.83063  0.29666  0.62666  1.0000
  C   C1675     1.0  0.55941  0.01030  0.70862  1.0000
  C   C1676     1.0  0.86054  0.31783  0.52760  1.0000
  C   C1677     1.0  0.72727  0.23561  0.62136  1.0000
  C   C1678     1.0  0.91263  0.08913  0.59770  1.0000
  C   C1679     1.0  0.74643  0.19576  0.63597  1.0000
  C   C1680     1.0  0.74822  0.22882  0.61482  1.0000
  H   H2002     1.0  0.92427  0.07457  0.59900  1.0000
  H   H2003     1.0  0.91799  0.15728  0.66870  1.0000
  C   C1681     1.0  0.51431  0.13747  0.72071  1.0000
  H   H2004     1.0  0.52446  0.00850  0.66066  1.0000
  H   H2005     1.0  0.98559  0.05708  0.69137  1.0000
  H   H2006     1.0  0.80874  0.20975  0.61479  1.0000
  H   H2007     1.0  0.97947  0.01749  0.63807  1.0000
  H   H2008     1.0  0.58689  0.02190  0.70205  1.0000
  C   C1682     1.0  0.89472  0.03227  0.71791  1.0000
  N   N110      1.0  0.90390  0.09347  0.58085  1.0000
  H   H2009     1.0  0.57012  0.02610  0.57252  1.0000
  N   N111      1.0  0.59528  0.02293  0.58549  1.0000
  C   C1683     1.0  0.72545  0.20272  0.64243  1.0000
  H   H2010     1.0  0.87004  0.30756  0.53705  1.0000
  C   C1684     1.0  0.58536  0.00971  0.60278  1.0000
  C   C1685     1.0  0.90488  0.05660  0.58246  1.0000
  H   H2011     1.0  0.84595  0.06606  0.59050  1.0000
  H   H2012     1.0  0.86678  0.03126  0.59008  1.0000
  C   C1686     1.0  0.91894  0.02628  0.62587  1.0000
  C   C1687     1.0  0.55286  0.01897  0.65185  1.0000
  S   S448      1.0  0.50782  0.12309  0.69329  1.0000
  H   H2013     1.0  0.78190  0.22057  0.58630  1.0000
  C   C1688     1.0  0.98658  0.04531  0.72086  1.0000
  H   H2014     1.0  0.80581  0.17582  0.61723  1.0000
  H   H2015     1.0  0.90432  0.02510  0.58492  1.0000
  H   H2016     1.0  0.83090  0.28728  0.50908  1.0000
  C   C1689     1.0  0.64467  0.00811  0.71920  1.0000
  H   H2017     1.0  0.71988  0.25111  0.61568  1.0000
  H   H2018     1.0  0.65366  0.99630  0.72812  1.0000
  H   H2019     1.0  0.87818  0.11511  0.59275  1.0000
  H   H2020     1.0  0.77778  0.31228  0.58143  1.0000
  H   H2021     1.0  0.90415  0.19150  0.67617  1.0000
  C   C1690     1.0  0.92075  0.09455  0.56373  1.0000
  H   H2022     1.0  0.93482  0.99855  0.61626  1.0000
  H   H2023     1.0  0.51545  0.08751  0.72362  1.0000
  C   C1691     1.0  0.53050  0.03429  0.69798  1.0000
  H   H2024     1.0  0.69965  0.22792  0.64021  1.0000
  C   C1692     1.0  0.78908  0.18034  0.62307  1.0000
  H   H2025     1.0  0.66108  0.00312  0.54922  1.0000
  H   H2026     1.0  0.92029  0.10143  0.59734  1.0000
  C   C1693     1.0  0.86246  0.06360  0.58790  1.0000
  C   C1694     1.0  0.51657  0.10089  0.72761  1.0000
  C   C1695     1.0  0.72938  0.28353  0.49302  1.0000
  H   H2027     1.0  0.75281  0.18023  0.64227  1.0000
  C   C1696     1.0  0.89597  0.03606  0.69857  1.0000
  C   C1697     1.0  0.89015  0.11406  0.57954  1.0000
  C   C1698     1.0  0.92021  0.08507  0.73001  1.0000
  C   C1699     1.0  0.63053  0.01245  0.56496  1.0000
  H   H2028     1.0  0.78809  0.21453  0.63456  1.0000
  H   H2029     1.0  0.89887  0.02421  0.67485  1.0000
  C   C1700     1.0  0.88196  0.03133  0.63436  1.0000
  H   H2030     1.0  0.61940  0.01809  0.61054  1.0000
  H   H2031     1.0  0.93319  0.08064  0.56455  1.0000
  C   C1701     1.0  0.78071  0.32397  0.56806  1.0000
  H   H2032     1.0  0.59346  0.04590  0.60054  1.0000
  N   N112      1.0  0.57949  0.12132  0.69424  1.0000
  C   C1702     1.0  0.59860  0.12455  0.69712  1.0000
  C   C1703     1.0  0.56655  0.14185  0.68869  1.0000
  C   C1704     1.0  0.56867  0.11063  0.71255  1.0000
  C   C1705     1.0  0.58305  0.10906  0.67995  1.0000
  C   C1706     1.0  0.60268  0.09777  0.67279  1.0000
  C   C1707     1.0  0.56639  0.10726  0.67350  1.0000
  C   C1708     1.0  0.60537  0.08602  0.65958  1.0000
  C   C1709     1.0  0.56926  0.09556  0.66026  1.0000
  C   C1710     1.0  0.58872  0.08492  0.65331  1.0000
  H   H2033     1.0  0.60789  0.13177  0.68361  1.0000
  C   C1711     1.0  0.62790  0.01482  0.59700  1.0000
  H   H2034     1.0  0.60816  0.10996  0.70334  1.0000
  H   H2035     1.0  0.57316  0.14970  0.67415  1.0000
  H   H2036     1.0  0.51530  0.03840  0.69548  1.0000
  H   H2037     1.0  0.55063  0.14114  0.68914  1.0000
  C   C1712     1.0  0.81987  0.24443  0.50071  1.0000
  H   H2038     1.0  0.78815  0.23126  0.61168  1.0000
  H   H2039     1.0  0.55420  0.10790  0.71134  1.0000
  H   H2040     1.0  0.61612  0.09730  0.67755  1.0000
  H   H2041     1.0  0.55089  0.11461  0.67888  1.0000
  H   H2042     1.0  0.62042  0.07726  0.65454  1.0000
  H   H2043     1.0  0.55618  0.09454  0.65566  1.0000
  H   H2044     1.0  0.59086  0.07545  0.64337  1.0000
  H   H2045     1.0  0.78172  0.16968  0.61990  1.0000
  H   H2046     1.0  0.75350  0.25666  0.49285  1.0000
  C   C1713     1.0  0.73718  0.30836  0.55330  1.0000
  N   N113      1.0  0.83658  0.31498  0.48887  1.0000
  C   C1714     1.0  0.95497  0.01979  0.71240  1.0000
  H   H2047     1.0  0.50521  0.00979  0.69578  1.0000
  H   H2048     1.0  0.60277  0.00319  0.72949  1.0000
  H   H2049     1.0  0.79188  0.23974  0.49714  1.0000
  H   H2050     1.0  0.56838  0.01373  0.60506  1.0000
  C   C1715     1.0  0.92008  0.00768  0.62144  1.0000
  H   H2051     1.0  0.55144  0.05811  0.72759  1.0000
  C   C1716     1.0  0.95007  0.09473  0.73299  1.0000
  H   H2052     1.0  0.59645  0.05478  0.57544  1.0000
  H   H2053     1.0  0.70591  0.31050  0.48902  1.0000
  H   H2054     1.0  0.59045  0.99336  0.60206  1.0000
  S   S449      1.0  0.86075  0.00436  0.63219  1.0000
  C   C1717     1.0  0.65180  0.00671  0.56249  1.0000
  Fe  Fe226     1.0  0.60451  0.00067  0.65247  1.0000
  H   H2055     1.0  0.91452  0.99615  0.66318  1.0000
  C   C1718     1.0  0.64917  0.00884  0.59443  1.0000
  C   C1719     1.0  0.84804  0.31902  0.60901  1.0000
  H   H2056     1.0  0.72276  0.31867  0.55711  1.0000
  H   H2057     1.0  0.82145  0.31683  0.55790  1.0000
  C   C1720     1.0  0.82308  0.30046  0.49963  1.0000
  H   H2058     1.0  0.56682  0.99532  0.71521  1.0000
  H   H2059     1.0  0.92984  0.03143  0.73333  1.0000
  C   C1721     1.0  0.84252  0.32336  0.50217  1.0000
  C   C1722     1.0  0.89828  0.99614  0.72013  1.0000
  N   N114      1.0  0.52758  0.99734  0.71317  1.0000
  H   H2060     1.0  0.65645  0.00718  0.60591  1.0000
  H   H2061     1.0  0.63965  0.03082  0.73557  1.0000
  C   C1723     1.0  0.80704  0.24244  0.49015  1.0000
  H   H2062     1.0  0.67752  0.99967  0.57544  1.0000
  H   H2063     1.0  0.88701  0.99864  0.66859  1.0000
  S   S450      1.0  0.73238  0.32263  0.51686  1.0000
  C   C1724     1.0  0.97156  0.00374  0.70867  1.0000
  C   C1725     1.0  0.89588  0.01235  0.72868  1.0000
  C   C1726     1.0  0.99155  0.99483  0.61044  1.0000
  H   H2064     1.0  0.49731  0.01604  0.71882  1.0000
  H   H2065     1.0  0.51115  0.15242  0.71155  1.0000
  H   H2066     1.0  0.89292  0.04487  0.72452  1.0000
  H   H2067     1.0  0.97703  0.00100  0.61877  1.0000
  H   H2068     1.0  0.61086  0.17455  0.94934  1.0000
  H   H2069     1.0  0.52001  0.99984  0.74209  1.0000
  Fe  Fe227     1.0  0.60760  0.09123  0.77662  1.0000
  S   S451      1.0  0.57807  0.08468  0.79592  1.0000
  S   S452      1.0  0.62932  0.10596  0.78321  1.0000
  Fe  Fe228     1.0  0.58886  0.05406  0.78841  1.0000
  S   S453      1.0  0.58570  0.02548  0.81084  1.0000
  C   C1727     1.0  0.64883  0.17441  0.95400  1.0000
  S   S454      1.0  0.61946  0.05956  0.77089  1.0000
  C   C1728     1.0  0.75038  0.29781  0.81937  1.0000
  H   H2070     1.0  0.75685  0.31138  0.81430  1.0000
  Fe  Fe229     1.0  0.62510  0.14822  0.86972  1.0000
  S   S455      1.0  0.61384  0.15256  0.89967  1.0000
  S   S456      1.0  0.60331  0.13702  0.85961  1.0000
  Fe  Fe230     1.0  0.66470  0.16162  0.86475  1.0000
  S   S457      1.0  0.65636  0.16644  0.89427  1.0000
  S   S458      1.0  0.69578  0.16715  0.84796  1.0000
  Fe  Fe231     1.0  0.64584  0.13708  0.90263  1.0000
  S   S459      1.0  0.65751  0.11479  0.92718  1.0000
  Fe  Fe232     1.0  0.62560  0.18161  0.88809  1.0000
  S   S460      1.0  0.61067  0.21133  0.89735  1.0000
  S   S461      1.0  0.65649  0.13069  0.87354  1.0000
  S   S462      1.0  0.63435  0.17866  0.85787  1.0000
  Fe  Fe233     1.0  0.79287  0.21339  0.88084  1.0000
  S   S463      1.0  0.76784  0.21698  0.90623  1.0000
  S   S464      1.0  0.79854  0.24170  0.85893  1.0000
  Fe  Fe234     1.0  0.80492  0.16770  0.89493  1.0000
  S   S465      1.0  0.78062  0.16758  0.92183  1.0000
  S   S466      1.0  0.82464  0.13713  0.89053  1.0000
  Fe  Fe235     1.0  0.76065  0.18899  0.90288  1.0000
  S   S467      1.0  0.72729  0.18951  0.90824  1.0000
  Fe  Fe236     1.0  0.79009  0.19553  0.92277  1.0000
  S   S468      1.0  0.78962  0.20627  0.94838  1.0000
  S   S469      1.0  0.78388  0.18699  0.87582  1.0000
  S   S470      1.0  0.81619  0.19404  0.89753  1.0000
  C   C1729     1.0  0.52730  0.03209  0.80746  1.0000
  C   C1730     1.0  0.63447  0.22691  0.95367  1.0000
  H   H2071     1.0  0.77254  0.31533  0.85200  1.0000
  Fe  Fe237     1.0  0.94960  0.09676  0.77762  1.0000
  S   S471      1.0  0.91866  0.09052  0.79348  1.0000
  H   H2072     1.0  0.77638  0.26926  0.96417  1.0000
  Fe  Fe238     1.0  0.96377  0.09249  0.81376  1.0000
  S   S472      1.0  0.93413  0.08604  0.83265  1.0000
  C   C1731     1.0  0.52379  0.01223  0.81456  1.0000
  Fe  Fe239     1.0  0.93576  0.06585  0.81328  1.0000
  S   S473      1.0  0.93602  0.03215  0.82384  1.0000
  Fe  Fe240     1.0  0.91988  0.11133  0.81120  1.0000
  S   S474      1.0  0.89559  0.13914  0.81692  1.0000
  S   S475      1.0  0.96638  0.07071  0.79603  1.0000
  S   S476      1.0  0.94983  0.11931  0.79376  1.0000
  C   C1732     1.0  0.79659  0.18774  0.96788  1.0000
  C   C1733     1.0  0.79820  0.16692  0.96932  1.0000
  C   C1734     1.0  0.61831  0.29508  0.82879  1.0000
  H   H2073     1.0  0.98223  0.05070  0.84913  1.0000
  H   H2074     1.0  0.89485  0.00947  0.74377  1.0000
  H   H2075     1.0  0.74398  0.31588  0.89866  1.0000
  H   H2076     1.0  0.79655  0.16170  0.95769  1.0000
  H   H2077     1.0  0.96277  0.03818  0.84994  1.0000
  H   H2078     1.0  0.57822  0.30200  0.84383  1.0000
  C   C1735     1.0  0.80166  0.15279  0.98608  1.0000
  C   C1736     1.0  0.84363  0.13756  0.86952  1.0000
  C   C1737     1.0  0.84630  0.15606  0.85688  1.0000
  C   C1738     1.0  0.86192  0.15620  0.84047  1.0000
  C   C1739     1.0  0.87498  0.13789  0.83662  1.0000
  C   C1740     1.0  0.87215  0.11932  0.84912  1.0000
  C   C1741     1.0  0.85649  0.11918  0.86556  1.0000
  H   H2079     1.0  0.83641  0.17028  0.85980  1.0000
  H   H2080     1.0  0.86403  0.17059  0.83082  1.0000
  H   H2081     1.0  0.88214  0.10514  0.84622  1.0000
  H   H2082     1.0  0.85441  0.10483  0.87530  1.0000
  C   C1742     1.0  0.99375  0.00936  0.76401  1.0000
  C   C1743     1.0  0.73353  0.26221  0.83435  1.0000
  C   C1744     1.0  0.61839  0.19106  0.97274  1.0000
  C   C1745     1.0  0.90606  0.02255  0.78876  1.0000
  H   H2083     1.0  0.62698  0.18474  0.92813  1.0000
  H   H2084     1.0  0.89718  0.03166  0.77844  1.0000
  C   C1746     1.0  0.62463  0.23045  0.88517  1.0000
  C   C1747     1.0  0.62069  0.24845  0.89169  1.0000
  C   C1748     1.0  0.63230  0.26347  0.88228  1.0000
  C   C1749     1.0  0.64903  0.21409  0.92500  1.0000
  C   C1750     1.0  0.65110  0.24292  0.85935  1.0000
  C   C1751     1.0  0.63992  0.22771  0.86905  1.0000
  H   H2085     1.0  0.60899  0.25053  0.90428  1.0000
  H   H2086     1.0  0.66270  0.24074  0.84674  1.0000
  H   H2087     1.0  0.64303  0.21393  0.86390  1.0000
  C   C1752     1.0  0.70602  0.17721  0.86137  1.0000
  C   C1753     1.0  0.69300  0.19000  0.87305  1.0000
  C   C1754     1.0  0.69980  0.19392  0.88725  1.0000
  C   C1755     1.0  0.72004  0.18616  0.88905  1.0000
  C   C1756     1.0  0.73370  0.17494  0.87621  1.0000
  C   C1757     1.0  0.72664  0.17045  0.86233  1.0000
  H   H2088     1.0  0.67739  0.19625  0.87161  1.0000
  H   H2089     1.0  0.68930  0.20276  0.89701  1.0000
  H   H2090     1.0  0.74936  0.16880  0.87756  1.0000
  H   H2091     1.0  0.73688  0.16091  0.85301  1.0000
  C   C1758     1.0  0.56889  0.03057  0.74192  1.0000
  H   H2092     1.0  0.97481  0.13114  0.81752  1.0000
  C   C1759     1.0  0.65314  0.11557  0.96413  1.0000
  C   C1760     1.0  0.64341  0.12013  0.94904  1.0000
  C   C1761     1.0  0.62254  0.12891  0.95152  1.0000
  C   C1762     1.0  0.61130  0.13273  0.96918  1.0000
  H   H2093     1.0  0.63462  0.29228  0.82938  1.0000
  H   H2094     1.0  0.66927  0.10869  0.96225  1.0000
  H   H2095     1.0  0.61491  0.13223  0.93999  1.0000
  H   H2096     1.0  0.98890  0.16046  0.81769  1.0000
  C   C1763     1.0  0.64178  0.24484  0.94466  1.0000
  C   C1764     1.0  0.72812  0.16143  0.95836  1.0000
  H   H2097     1.0  0.63433  0.09331  0.88103  1.0000
  C   C1765     1.0  0.92580  0.02061  0.81147  1.0000
  C   C1766     1.0  0.91486  0.03225  0.79768  1.0000
  C   C1767     1.0  0.53196  0.03997  0.74886  1.0000
  H   H2098     1.0  0.91266  0.04873  0.79425  1.0000
  C   C1768     1.0  0.62165  0.11585  0.80384  1.0000
  C   C1769     1.0  0.60198  0.11605  0.81513  1.0000
  C   C1770     1.0  0.59652  0.12279  0.83209  1.0000
  C   C1771     1.0  0.61058  0.12969  0.83775  1.0000
  C   C1772     1.0  0.63011  0.13006  0.82623  1.0000
  C   C1773     1.0  0.63566  0.12303  0.80934  1.0000
  H   H2099     1.0  0.59091  0.11115  0.81077  1.0000
  H   H2100     1.0  0.58134  0.12270  0.84087  1.0000
  H   H2101     1.0  0.64100  0.13547  0.83047  1.0000
  H   H2102     1.0  0.65088  0.12303  0.80060  1.0000
  C   C1774     1.0  0.77917  0.26345  0.86207  1.0000
  C   C1775     1.0  0.74445  0.22715  0.98109  1.0000
  C   C1776     1.0  0.54619  0.03619  0.80662  1.0000
  C   C1777     1.0  0.56169  0.02043  0.81295  1.0000
  C   C1778     1.0  0.52353  0.09878  0.74405  1.0000
  H   H2103     1.0  0.68994  0.13517  0.91721  1.0000
  H   H2104     1.0  0.54864  0.05164  0.80122  1.0000
  Fe  Fe241     1.0  0.56565  0.09437  0.76964  1.0000
  C   C1779     1.0  0.64204  0.12005  0.98162  1.0000
  C   C1780     1.0  0.71395  0.29642  0.92161  1.0000
  C   C1781     1.0  0.52548  0.11613  0.74891  1.0000
  C   C1782     1.0  0.53115  0.02262  0.76344  1.0000
  C   C1783     1.0  0.71496  0.19477  0.96589  1.0000
  C   C1784     1.0  0.69503  0.20352  0.97513  1.0000
  C   C1785     1.0  0.72427  0.20718  0.94909  1.0000
  C   C1786     1.0  0.68531  0.22350  0.96796  1.0000
  C   C1787     1.0  0.71441  0.22710  0.94205  1.0000
  C   C1788     1.0  0.69496  0.23526  0.95148  1.0000
  H   H2105     1.0  0.75376  0.27945  0.90489  1.0000
  H   H2106     1.0  0.92425  0.08933  0.75580  1.0000
  H   H2107     1.0  0.75622  0.17954  0.96192  1.0000
  H   H2108     1.0  0.98637  0.00682  0.77934  1.0000
  C   C1789     1.0  0.66585  0.30685  0.98458  1.0000
  H   H2109     1.0  0.71314  0.16206  0.95535  1.0000
  C   C1790     1.0  0.65267  0.24739  0.92598  1.0000
  C   C1791     1.0  0.60121  0.00836  0.76405  1.0000
  Fe  Fe242     1.0  0.66201  0.30915  0.90765  1.0000
  H   H2110     1.0  0.51562  0.04430  0.80220  1.0000
  H   H2111     1.0  0.73906  0.20133  0.94093  1.0000
  H   H2112     1.0  0.66644  0.27959  0.97587  1.0000
  H   H2113     1.0  0.72173  0.23599  0.92890  1.0000
  H   H2114     1.0  0.68710  0.25055  0.94581  1.0000
  N   N115      1.0  0.60893  0.05420  0.84176  1.0000
  C   C1792     1.0  0.61128  0.03206  0.85059  1.0000
  C   C1793     1.0  0.58693  0.06314  0.84213  1.0000
  C   C1794     1.0  0.61984  0.05612  0.82162  1.0000
  C   C1795     1.0  0.61658  0.06449  0.85240  1.0000
  C   C1796     1.0  0.63318  0.07469  0.84416  1.0000
  C   C1797     1.0  0.60720  0.06463  0.87166  1.0000
  C   C1798     1.0  0.63970  0.08454  0.85460  1.0000
  C   C1799     1.0  0.61365  0.07482  0.88185  1.0000
  C   C1800     1.0  0.62980  0.08484  0.87330  1.0000
  H   H2115     1.0  0.60212  0.02916  0.86530  1.0000
  H   H2116     1.0  0.60607  0.02379  0.84261  1.0000
  H   H2117     1.0  0.62756  0.02487  0.85098  1.0000
  H   H2118     1.0  0.57719  0.06053  0.85659  1.0000
  H   H2119     1.0  0.58087  0.05632  0.83360  1.0000
  H   H2120     1.0  0.58443  0.07997  0.83638  1.0000
  H   H2121     1.0  0.63642  0.04912  0.82014  1.0000
  H   H2122     1.0  0.61373  0.04827  0.81403  1.0000
  H   H2123     1.0  0.61813  0.07241  0.81391  1.0000
  H   H2124     1.0  0.64104  0.07589  0.82951  1.0000
  H   H2125     1.0  0.59453  0.05720  0.87890  1.0000
  H   H2126     1.0  0.65194  0.09280  0.84789  1.0000
  H   H2127     1.0  0.60583  0.07538  0.89633  1.0000
  H   H2128     1.0  0.60552  0.20155  0.93921  1.0000
  N   N116      1.0  0.71806  0.11892  0.90237  1.0000
  H   H2129     1.0  0.74571  0.29491  0.95898  1.0000
  C   C1801     1.0  0.70577  0.13708  0.90996  1.0000
  C   C1802     1.0  0.70750  0.11634  0.88878  1.0000
  C   C1803     1.0  0.73939  0.12151  0.89387  1.0000
  C   C1804     1.0  0.74891  0.12093  0.87467  1.0000
  C   C1805     1.0  0.75147  0.12440  0.90499  1.0000
  C   C1806     1.0  0.76911  0.12338  0.86716  1.0000
  C   C1807     1.0  0.77166  0.12678  0.89732  1.0000
  C   C1808     1.0  0.78043  0.12632  0.87844  1.0000
  H   H2130     1.0  0.59339  0.01410  0.77710  1.0000
  C   C1809     1.0  0.54918  0.00902  0.76720  1.0000
  H   H2131     1.0  0.72773  0.08670  0.91316  1.0000
  H   H2132     1.0  0.71239  0.14044  0.92028  1.0000
  H   H2133     1.0  0.51648  0.01971  0.77207  1.0000
  H   H2134     1.0  0.70437  0.15088  0.89840  1.0000
  H   H2135     1.0  0.71524  0.10239  0.88309  1.0000
  H   H2136     1.0  0.69147  0.11470  0.89553  1.0000
  H   H2137     1.0  0.70650  0.12990  0.87677  1.0000
  H   H2138     1.0  0.74100  0.11901  0.86501  1.0000
  H   H2139     1.0  0.74539  0.12491  0.91969  1.0000
  H   H2140     1.0  0.77601  0.12314  0.85243  1.0000
  H   H2141     1.0  0.78067  0.12903  0.90597  1.0000
  H   H2142     1.0  0.79607  0.12827  0.87255  1.0000
  H   H2143     1.0  0.74870  0.22240  0.82931  1.0000
  H   H2144     1.0  0.54744  0.99612  0.77895  1.0000
  H   H2145     1.0  0.75012  0.22305  0.85279  1.0000
  N   N117      1.0  0.91871  0.14753  0.86204  1.0000
  C   C1810     1.0  0.90844  0.16277  0.87400  1.0000
  C   C1811     1.0  0.91918  0.15790  0.84198  1.0000
  C   C1812     1.0  0.90584  0.13201  0.86733  1.0000
  C   C1813     1.0  0.93998  0.13859  0.86438  1.0000
  C   C1814     1.0  0.94850  0.11727  0.86646  1.0000
  C   C1815     1.0  0.95326  0.15137  0.86342  1.0000
  C   C1816     1.0  0.96871  0.10930  0.86842  1.0000
  C   C1817     1.0  0.97342  0.14322  0.86548  1.0000
  C   C1818     1.0  0.98107  0.12221  0.86812  1.0000
  H   H2146     1.0  0.90935  0.15598  0.88903  1.0000
  H   H2147     1.0  0.91503  0.17669  0.86925  1.0000
  H   H2148     1.0  0.89193  0.16844  0.87358  1.0000
  H   H2149     1.0  0.90347  0.16455  0.83937  1.0000
  H   H2150     1.0  0.92674  0.14697  0.83250  1.0000
  H   H2151     1.0  0.92768  0.17050  0.83729  1.0000
  H   H2152     1.0  0.90626  0.12251  0.88180  1.0000
  H   H2153     1.0  0.88949  0.13923  0.86729  1.0000
  H   H2154     1.0  0.91050  0.12185  0.85709  1.0000
  H   H2155     1.0  0.94000  0.10646  0.86625  1.0000
  H   H2156     1.0  0.94839  0.16781  0.86059  1.0000
  H   H2157     1.0  0.60501  0.02176  0.75286  1.0000
  H   H2158     1.0  0.98347  0.15327  0.86427  1.0000
  S   S477      1.0  0.72941  0.32140  0.86585  1.0000
  H   H2159     1.0  0.61799  0.29651  0.81381  1.0000
  H   H2160     1.0  0.62211  0.30686  0.85828  1.0000
  C   C1819     1.0  0.60635  0.31055  0.85593  1.0000
  C   C1820     1.0  0.74606  0.17312  0.97521  1.0000
  C   C1821     1.0  0.90845  0.00119  0.79336  1.0000
  C   C1822     1.0  0.79921  0.19432  0.98283  1.0000
  H   H2161     1.0  0.72048  0.29211  0.90770  1.0000
  Fe  Fe243     1.0  0.66340  0.30105  0.86986  1.0000
  H   H2162     1.0  0.79876  0.21033  0.98138  1.0000
  C   C1823     1.0  0.71796  0.10058  0.91811  1.0000
  H   H2163     1.0  0.71833  0.24379  0.81617  1.0000
  H   H2164     1.0  0.52173  0.14889  0.74125  1.0000
  H   H2165     1.0  0.61274  0.28102  0.83741  1.0000
  H   H2166     1.0  0.63891  0.25690  0.95221  1.0000
  H   H2167     1.0  0.93675  0.00105  0.75882  1.0000
  H   H2168     1.0  0.65195  0.20278  0.91667  1.0000
  H   H2169     1.0  0.73530  0.14507  0.96313  1.0000
  C   C1824     1.0  0.73954  0.22433  0.84358  1.0000
  C   C1825     1.0  0.62107  0.12849  0.98416  1.0000
  C   C1826     1.0  0.76318  0.27850  0.82054  1.0000
  H   H2170     1.0  0.66995  0.22978  0.97496  1.0000
  H   H2171     1.0  0.75500  0.24689  0.87480  1.0000
  H   H2172     1.0  0.52746  0.08384  0.75296  1.0000
  C   C1827     1.0  0.97808  0.03550  0.85325  1.0000
  H   H2173     1.0  0.73202  0.21102  0.84961  1.0000
  H   H2174     1.0  0.70449  0.28440  0.83724  1.0000
  C   C1828     1.0  0.65638  0.23201  0.91620  1.0000
  C   C1829     1.0  0.72930  0.29963  0.82538  1.0000
  H   H2175     1.0  0.62726  0.19279  0.98222  1.0000
  C   C1830     1.0  0.61802  0.18798  0.94203  1.0000
  C   C1831     1.0  0.72093  0.28215  0.83264  1.0000
  H   H2176     1.0  0.72249  0.24443  0.87147  1.0000
  H   H2177     1.0  0.74865  0.23932  0.96852  1.0000
  N   N118      1.0  0.63079  0.19154  0.95318  1.0000
  N   N119      1.0  0.72428  0.24397  0.84263  1.0000
  C   C1832     1.0  0.71246  0.24470  0.86217  1.0000
  H   H2178     1.0  0.64421  0.15960  0.96133  1.0000
  H   H2179     1.0  0.95903  0.03334  0.75511  1.0000
  H   H2180     1.0  0.70482  0.23152  0.86856  1.0000
  C   C1833     1.0  0.64743  0.26072  0.86603  1.0000
  C   C1834     1.0  0.75884  0.26178  0.87018  1.0000
  S   S478      1.0  0.96408  0.09993  0.74665  1.0000
  C   C1835     1.0  0.98500  0.00156  0.84835  1.0000
  C   C1836     1.0  0.75500  0.26090  0.82794  1.0000
  H   H2181     1.0  0.70010  0.25857  0.86278  1.0000
  Fe  Fe244     1.0  0.69641  0.31914  0.87421  1.0000
  H   H2182     1.0  0.59506  0.13919  0.97115  1.0000
  H   H2183     1.0  0.96991  0.00473  0.84445  1.0000
  H   H2184     1.0  0.77964  0.27712  0.81641  1.0000
  H   H2185     1.0  0.72467  0.32340  0.94756  1.0000
  H   H2186     1.0  0.71616  0.26100  0.98248  1.0000
  H   H2187     1.0  0.65787  0.17251  0.93969  1.0000
  H   H2188     1.0  0.98703  0.00097  0.75748  1.0000
  C   C1837     1.0  0.63785  0.21095  0.94403  1.0000
  H   H2189     1.0  0.62947  0.27712  0.88761  1.0000
  S   S479      1.0  0.57385  0.06314  0.76373  1.0000
  C   C1838     1.0  0.71021  0.24362  0.83114  1.0000
  C   C1839     1.0  0.74824  0.29883  0.86474  1.0000
  C   C1840     1.0  0.55080  0.04421  0.73848  1.0000
  C   C1841     1.0  0.76864  0.30042  0.85712  1.0000
  H   H2190     1.0  0.65806  0.26141  0.91901  1.0000
  N   N120      1.0  0.99061  0.03145  0.75496  1.0000
  H   H2191     1.0  0.74491  0.18184  0.98591  1.0000
  H   H2192     1.0  0.79970  0.28418  0.84922  1.0000
  C   C1842     1.0  0.78402  0.28281  0.85556  1.0000
  H   H2193     1.0  0.76596  0.24653  0.82907  1.0000
  H   H2194     1.0  0.69709  0.25692  0.83120  1.0000
  H   H2195     1.0  0.70994  0.28269  0.93235  1.0000
  C   C1843     1.0  0.96839  0.04027  0.76040  1.0000
  C   C1844     1.0  0.78177  0.25968  0.93826  1.0000
  C   C1845     1.0  0.77091  0.27149  0.95146  1.0000
  H   H2196     1.0  0.97509  0.09308  0.86950  1.0000
  H   H2197     1.0  0.70345  0.22970  0.83662  1.0000
  C   C1846     1.0  0.74335  0.27946  0.87133  1.0000
  H   H2198     1.0  0.72770  0.27805  0.87707  1.0000
  H   H2199     1.0  0.61597  0.99799  0.76644  1.0000
  H   H2200     1.0  0.62615  0.22604  0.96814  1.0000
  S   S480      1.0  0.65967  0.29267  0.93819  1.0000
  C   C1847     1.0  0.53932  0.99639  0.82084  1.0000
  H   H2201     1.0  0.72360  0.10222  0.92991  1.0000
  S   S481      1.0  0.68549  0.29026  0.88883  1.0000
  C   C1848     1.0  0.74606  0.28946  0.93152  1.0000
  C   C1849     1.0  0.75775  0.27736  0.91826  1.0000
  S   S482      1.0  0.53432  0.11415  0.76911  1.0000
  H   H2202     1.0  0.73412  0.21964  0.97770  1.0000
  S   S483      1.0  0.66165  0.27947  0.85342  1.0000
  C   C1850     1.0  0.66470  0.29606  0.97180  1.0000
  C   C1851     1.0  0.77520  0.26260  0.92170  1.0000
  H   H2203     1.0  0.78386  0.25351  0.91134  1.0000
  H   H2204     1.0  0.70221  0.09761  0.92428  1.0000
  N   N121      1.0  0.72554  0.17347  0.97261  1.0000
  H   H2205     1.0  0.79541  0.24827  0.94080  1.0000
  C   C1852     1.0  0.75325  0.28617  0.94827  1.0000
  H   H2206     1.0  0.75873  0.21555  0.98270  1.0000
  C   C1853     1.0  0.55819  0.00055  0.82027  1.0000
  H   H2207     1.0  0.61331  0.17627  0.97923  1.0000
  H   H2208     1.0  0.66453  0.23422  0.90154  1.0000
  H   H2209     1.0  0.71944  0.31470  0.82490  1.0000
  S   S484      1.0  0.63843  0.31751  0.88985  1.0000
  N   N122      1.0  0.58805  0.99789  0.75918  1.0000
  Fe  Fe245     1.0  0.60352  0.07150  0.74675  1.0000
  C   C1854     1.0  0.49946  0.09626  0.81285  1.0000
  C   C1855     1.0  0.92846  0.99927  0.81581  1.0000
  S   S485      1.0  0.99196  0.08725  0.82478  1.0000
  C   C1856     1.0  0.66103  0.30654  0.95390  1.0000
  H   H2210     1.0  0.65920  0.17686  0.96170  1.0000
  H   H2211     1.0  0.60433  0.20337  0.97301  1.0000
  H   H2212     1.0  0.97637  0.03025  0.86883  1.0000
  N   N123      1.0  0.72792  0.30535  0.92724  1.0000
  H   H2213     1.0  0.59928  0.29752  0.86498  1.0000
  H   H2214     1.0  0.96273  0.03770  0.77605  1.0000
  S   S486      1.0  0.59422  0.10381  0.75081  1.0000
  H   H2215     1.0  0.50797  0.10814  0.81022  1.0000
  H   H2216     1.0  0.73804  0.16728  0.94466  1.0000
  H   H2217     1.0  0.98125  0.02951  0.81809  1.0000
  C   C1857     1.0  0.56866  0.01235  0.75621  1.0000
  N   N124      1.0  0.60599  0.31361  0.83573  1.0000
  H   H2218     1.0  0.51802  0.05029  0.74570  1.0000
  H   H2219     1.0  0.71019  0.30323  0.95589  1.0000
  C   C1858     1.0  0.98960  0.12842  0.82085  1.0000
  S   S487      1.0  0.50003  0.00749  0.81522  1.0000
  H   H2220     1.0  0.75438  0.15723  0.98020  1.0000
  C   C1859     1.0  0.71581  0.31484  0.94341  1.0000
  C   C1860     1.0  0.58446  0.31556  0.83483  1.0000
  H   H2221     1.0  0.69932  0.30749  0.91999  1.0000
  H   H2222     1.0  0.50715  0.08140  0.83977  1.0000
  H   H2223     1.0  0.64383  0.32056  0.83349  1.0000
  H   H2224     1.0  0.58308  0.31664  0.82022  1.0000
  C   C1861     1.0  0.49909  0.08117  0.82944  1.0000
  H   H2225     1.0  0.96494  0.05710  0.75503  1.0000
  C   C1862     1.0  0.93095  0.08958  0.74109  1.0000
  H   H2226     1.0  0.98261  0.99490  0.86380  1.0000
  C   C1863     1.0  0.73477  0.32183  0.91136  1.0000
  H   H2227     1.0  0.49921  0.06379  0.77298  1.0000
  H   H2228     1.0  0.59804  0.32452  0.86143  1.0000
  C   C1864     1.0  0.94666  0.00185  0.74485  1.0000
  N   N125      1.0  0.99340  0.02037  0.84327  1.0000
  C   C1865     1.0  0.52038  0.13547  0.73746  1.0000
  Fe  Fe246     1.0  0.61217  0.59751  0.17498  1.0000
  S   S488      1.0  0.63260  0.57892  0.15441  1.0000
  S   S489      1.0  0.62478  0.59386  0.20044  1.0000
  Fe  Fe247     1.0  0.57663  0.60644  0.15577  1.0000
  S   S490      1.0  0.59461  0.58847  0.13361  1.0000
  S   S491      1.0  0.54254  0.61956  0.16083  1.0000
  Fe  Fe248     1.0  0.60579  0.56534  0.15783  1.0000
  S   S492      1.0  0.61066  0.53098  0.16417  1.0000
  Fe  Fe249     1.0  0.61990  0.60392  0.13202  1.0000
  S   S493      1.0  0.64358  0.61030  0.10474  1.0000
  S   S494      1.0  0.58626  0.58208  0.17997  1.0000
  S   S495      1.0  0.60113  0.62383  0.15249  1.0000
  H   H2229     1.0  0.93704  0.57104  0.04699  1.0000
  H   H2230     1.0  0.65173  0.52568  0.12687  1.0000
  C   C1866     1.0  0.97359  0.54515  0.09066  1.0000
  H   H2231     1.0  0.50077  0.60315  0.09290  1.0000
  H   H2232     1.0  0.75712  0.63838  0.01490  1.0000
  H   H2233     1.0  0.53931  0.37901  0.20102  1.0000
  C   C1867     1.0  0.60440  0.44578  0.20230  1.0000
  C   C1868     1.0  0.53015  0.49788  0.22182  1.0000
  H   H2234     1.0  0.95770  0.59649  0.16426  1.0000
  Fe  Fe250     1.0  0.55873  0.45890  0.14283  1.0000
  S   S496      1.0  0.58902  0.43766  0.14484  1.0000
  S   S497      1.0  0.55015  0.49283  0.14191  1.0000
  Fe  Fe251     1.0  0.53741  0.42394  0.14774  1.0000
  S   S498      1.0  0.56582  0.39974  0.15054  1.0000
  S   S499      1.0  0.98764  0.53862  0.13331  1.0000
  Fe  Fe252     1.0  0.57110  0.41771  0.16869  1.0000
  S   S500      1.0  0.57601  0.40387  0.19818  1.0000
  Fe  Fe253     1.0  0.58124  0.42167  0.12632  1.0000
  S   S501      1.0  0.60586  0.41365  0.10118  1.0000
  S   S502      1.0  0.54155  0.44005  0.16782  1.0000
  S   S503      1.0  0.55214  0.44483  0.12222  1.0000
  C   C1869     1.0  0.65684  0.63007  0.16343  1.0000
  H   H2235     1.0  0.65930  0.62047  0.19251  1.0000
  H   H2236     1.0  0.81363  0.63771  0.03967  1.0000
  C   C1870     1.0  0.61569  0.51295  0.21955  1.0000
  C   C1871     1.0  0.67970  0.65238  0.14219  1.0000
  C   C1872     1.0  0.63178  0.38394  0.03078  1.0000
  S   S504      1.0  0.93325  0.64956  0.06920  1.0000
  C   C1873     1.0  0.52067  0.46792  0.21929  1.0000
  H   H2237     1.0  0.70630  0.63207  0.99739  1.0000
  H   H2238     1.0  0.70612  0.63820  0.11292  1.0000
  C   C1874     1.0  0.90941  0.52820  0.19569  1.0000
  H   H2239     1.0  0.97792  0.61568  0.20648  1.0000
  H   H2240     1.0  0.91878  0.58088  0.13739  1.0000
  C   C1875     1.0  0.61318  0.38796  0.09876  1.0000
  C   C1876     1.0  0.60103  0.37371  0.10891  1.0000
  C   C1877     1.0  0.60679  0.35362  0.10600  1.0000
  C   C1878     1.0  0.62475  0.34761  0.09298  1.0000
  C   C1879     1.0  0.63699  0.36181  0.08297  1.0000
  C   C1880     1.0  0.63116  0.38193  0.08578  1.0000
  H   H2241     1.0  0.58704  0.37822  0.11880  1.0000
  Fe  Fe254     1.0  0.91416  0.65867  0.19702  1.0000
  H   H2242     1.0  0.65105  0.35728  0.07321  1.0000
  H   H2243     1.0  0.64070  0.39284  0.07795  1.0000
  H   H2244     1.0  0.65922  0.53795  0.09052  1.0000
  C   C1881     1.0  0.59563  0.43448  0.19507  1.0000
  C   C1882     1.0  0.58686  0.41834  0.20707  1.0000
  H   H2245     1.0  0.94709  0.51895  0.21372  1.0000
  H   H2246     1.0  0.62289  0.37334  0.00386  1.0000
  H   H2247     1.0  0.59609  0.43798  0.18014  1.0000
  H   H2248     1.0  0.72371  0.63014  0.02262  1.0000
  H   H2249     1.0  0.54282  0.50557  0.22034  1.0000
  N   N126      1.0  0.50659  0.38520  0.21243  1.0000
  C   C1883     1.0  0.55096  0.48024  0.19756  1.0000
  H   H2250     1.0  0.98784  0.58118  0.10257  1.0000
  C   C1884     1.0  0.99294  0.49136  0.22345  1.0000
  C   C1885     1.0  0.92851  0.57299  0.22644  1.0000
  C   C1886     1.0  0.54599  0.61843  0.22459  1.0000
  H   H2251     1.0  0.51799  0.41368  0.11706  1.0000
  C   C1887     1.0  0.50618  0.61070  0.16123  1.0000
  C   C1888     1.0  0.72128  0.63576  0.99375  1.0000
  C   C1889     1.0  0.59280  0.52046  0.15942  1.0000
  C   C1890     1.0  0.57543  0.53292  0.15321  1.0000
  C   C1891     1.0  0.56227  0.52422  0.14811  1.0000
  C   C1892     1.0  0.56651  0.50313  0.14906  1.0000
  C   C1893     1.0  0.58365  0.49067  0.15563  1.0000
  C   C1894     1.0  0.59670  0.49931  0.16088  1.0000
  H   H2252     1.0  0.57234  0.54927  0.15201  1.0000
  H   H2253     1.0  0.54895  0.53386  0.14312  1.0000
  H   H2254     1.0  0.58696  0.47439  0.15657  1.0000
  H   H2255     1.0  0.61010  0.48959  0.16572  1.0000
  C   C1895     1.0  0.52760  0.60580  0.15570  1.0000
  C   C1896     1.0  0.53686  0.59023  0.14582  1.0000
  C   C1897     1.0  0.52486  0.58007  0.14092  1.0000
  H   H2256     1.0  0.52210  0.47078  0.18928  1.0000
  C   C1898     1.0  0.75038  0.63960  0.00323  1.0000
  C   C1899     1.0  0.69366  0.65139  0.10909  1.0000
  H   H2257     1.0  0.55326  0.58635  0.14146  1.0000
  H   H2258     1.0  0.53217  0.56848  0.13275  1.0000
  C   C1900     1.0  0.85115  0.64965  0.98839  1.0000
  H   H2259     1.0  0.67768  0.62143  0.07590  1.0000
  N   N127      1.0  0.63410  0.52193  0.21409  1.0000
  H   H2260     1.0  0.96768  0.64634  0.08938  1.0000
  H   H2261     1.0  0.92107  0.64023  0.10941  1.0000
  H   H2262     1.0  0.65695  0.64175  0.13427  1.0000
  C   C1901     1.0  0.89758  0.52755  0.21397  1.0000
  H   H2263     1.0  0.52588  0.40460  0.19240  1.0000
  C   C1902     1.0  0.61200  0.63350  0.20569  1.0000
  C   C1903     1.0  0.59484  0.42548  0.23379  1.0000
  C   C1904     1.0  0.99303  0.54890  0.08190  1.0000
  H   H2264     1.0  0.50832  0.52739  0.13201  1.0000
  H   H2265     1.0  0.64530  0.37776  0.02038  1.0000
  H   H2266     1.0  0.60847  0.63795  0.19183  1.0000
  C   C1905     1.0  0.97699  0.63283  0.09651  1.0000
  H   H2267     1.0  0.68112  0.64505  0.10797  1.0000
  H   H2268     1.0  0.91048  0.51646  0.18834  1.0000
  H   H2269     1.0  0.54706  0.37423  0.06779  1.0000
  H   H2270     1.0  0.93864  0.57667  0.21230  1.0000
  H   H2271     1.0  0.69937  0.65921  0.15705  1.0000
  S   S505      1.0  0.77011  0.65302  0.04332  1.0000
  H   H2272     1.0  0.94692  0.55297  0.12716  1.0000
  C   C1906     1.0  0.78730  0.65460  0.99436  1.0000
  H   H2273     1.0  0.49893  0.62272  0.16893  1.0000
  H   H2274     1.0  0.64289  0.45360  0.10089  1.0000
  C   C1907     1.0  0.50648  0.39205  0.22941  1.0000
  C   C1908     1.0  0.64660  0.51309  0.12417  1.0000
  H   H2275     1.0  0.88959  0.51515  0.22089  1.0000
  H   H2276     1.0  0.50324  0.61514  0.21298  1.0000
  H   H2277     1.0  0.57394  0.54082  0.20603  1.0000
  C   C1909     1.0  0.62809  0.50343  0.10624  1.0000
  C   C1910     1.0  0.96814  0.55877  0.14012  1.0000
  C   C1911     1.0  0.57782  0.37422  0.05128  1.0000
  C   C1912     1.0  0.67364  0.65425  0.07052  1.0000
  H   H2278     1.0  0.51013  0.53144  0.16593  1.0000
  H   H2279     1.0  0.56211  0.61738  0.21820  1.0000
  C   C1913     1.0  0.90735  0.55853  0.21521  1.0000
  H   H2280     1.0  0.64626  0.52945  0.07741  1.0000
  C   C1914     1.0  0.61211  0.47099  0.10363  1.0000
  C   C1915     1.0  0.59910  0.48958  0.10617  1.0000
  H   H2281     1.0  0.92159  0.56678  0.07057  1.0000
  C   C1916     1.0  0.62101  0.35206  0.03992  1.0000
  H   H2282     1.0  0.56615  0.46999  0.22706  1.0000
  H   H2283     1.0  0.89812  0.60703  0.22204  1.0000
  H   H2284     1.0  0.55579  0.44851  0.22840  1.0000
  C   C1917     1.0  0.92119  0.65640  0.10473  1.0000
  Fe  Fe255     1.0  0.95696  0.65162  0.17444  1.0000
  H   H2285     1.0  0.62796  0.40078  0.02539  1.0000
  H   H2286     1.0  0.58282  0.49146  0.10742  1.0000
  H   H2287     1.0  0.60979  0.51368  0.20701  1.0000
  C   C1918     1.0  0.49963  0.51704  0.13100  1.0000
  C   C1919     1.0  0.73108  0.63472  0.00790  1.0000
  H   H2288     1.0  0.60326  0.52114  0.22935  1.0000
  S   S506      1.0  0.67648  0.33559  0.04423  1.0000
  H   H2289     1.0  0.64172  0.55093  0.19843  1.0000
  C   C1920     1.0  0.65010  0.51060  0.20090  1.0000
  H   H2290     1.0  0.60978  0.53696  0.12293  1.0000
  C   C1921     1.0  0.97846  0.50308  0.21286  1.0000
  H   H2291     1.0  0.50683  0.35719  0.20526  1.0000
  N   N128      1.0  0.53808  0.47750  0.21704  1.0000
  H   H2292     1.0  0.60327  0.39504  0.00951  1.0000
  C   C1922     1.0  0.66398  0.64148  0.14550  1.0000
  H   H2293     1.0  0.52512  0.50051  0.11387  1.0000
  H   H2294     1.0  0.63562  0.50744  0.13720  1.0000
  C   C1923     1.0  0.91906  0.55879  0.19651  1.0000
  H   H2295     1.0  0.51981  0.35406  0.22382  1.0000
  H   H2296     1.0  0.59724  0.34274  0.11381  1.0000
  S   S507      1.0  0.90191  0.62072  0.00788  1.0000
  C   C1924     1.0  0.93651  0.59051  0.15137  1.0000
  C   C1925     1.0  0.62840  0.54332  0.20361  1.0000
  H   H2297     1.0  0.61406  0.54558  0.09754  1.0000
  H   H2298     1.0  0.98662  0.61690  0.15436  1.0000
  C   C1926     1.0  0.95543  0.58711  0.15603  1.0000
  H   H2299     1.0  0.66017  0.50041  0.12249  1.0000
  H   H2300     1.0  0.55102  0.56036  0.18433  1.0000
  S   S508      1.0  0.93745  0.62985  0.19364  1.0000
  C   C1927     1.0  0.49848  0.45566  0.20639  1.0000
  C   C1928     1.0  0.54532  0.55846  0.19950  1.0000
  H   H2301     1.0  0.50215  0.57229  0.23114  1.0000
  H   H2302     1.0  0.50158  0.62855  0.07919  1.0000
  H   H2303     1.0  0.61878  0.49657  0.22678  1.0000
  C   C1929     1.0  0.56052  0.38063  0.06468  1.0000
  S   S509      1.0  0.91590  0.60858  0.16014  1.0000
  S   S510      1.0  0.94798  0.65086  0.14844  1.0000
  C   C1930     1.0  0.60398  0.44135  0.22166  1.0000
  C   C1931     1.0  0.97116  0.57104  0.15060  1.0000
  S   S511      1.0  0.88767  0.64264  0.05376  1.0000
  H   H2304     1.0  0.51993  0.50803  0.21241  1.0000
  C   C1932     1.0  0.62167  0.53928  0.10972  1.0000
  H   H2305     1.0  0.57804  0.41412  0.07828  1.0000
  H   H2306     1.0  0.59751  0.37009  0.01490  1.0000
  H   H2307     1.0  0.60602  0.45853  0.10273  1.0000
  C   C1933     1.0  0.58655  0.41380  0.22644  1.0000
  C   C1934     1.0  0.55163  0.46465  0.22996  1.0000
  C   C1935     1.0  0.97827  0.57907  0.06090  1.0000
  H   H2308     1.0  0.96764  0.61237  0.08546  1.0000
  C   C1936     1.0  0.51785  0.56516  0.22622  1.0000
  N   N129      1.0  0.63695  0.52001  0.10759  1.0000
  C   C1937     1.0  0.56060  0.39502  0.07433  1.0000
  H   H2309     1.0  0.62274  0.54414  0.19097  1.0000
  C   C1938     1.0  0.64983  0.63442  0.09357  1.0000
  C   C1939     1.0  0.49802  0.48846  0.11936  1.0000
  H   H2310     1.0  0.78944  0.64078  0.00593  1.0000
  C   C1940     1.0  0.51274  0.61724  0.22126  1.0000
  Fe  Fe256     1.0  0.92553  0.63265  0.16813  1.0000
  C   C1941     1.0  0.52527  0.56752  0.20669  1.0000
  H   H2311     1.0  0.62317  0.65198  0.10877  1.0000
  H   H2312     1.0  0.62442  0.34834  0.05419  1.0000
  C   C1942     1.0  0.94939  0.56257  0.13504  1.0000
  H   H2313     1.0  0.49758  0.40920  0.09647  1.0000
  H   H2314     1.0  0.63103  0.59157  0.23662  1.0000
  C   C1943     1.0  0.93350  0.57832  0.14082  1.0000
  C   C1944     1.0  0.64087  0.48419  0.10385  1.0000
  H   H2315     1.0  0.94160  0.55501  0.09233  1.0000
  H   H2316     1.0  0.66593  0.51195  0.08843  1.0000
  H   H2317     1.0  0.98752  0.65004  0.10952  1.0000
  C   C1945     1.0  0.65277  0.52500  0.09025  1.0000
  H   H2318     1.0  0.62878  0.55146  0.11066  1.0000
  H   H2319     1.0  0.61151  0.45799  0.19288  1.0000
  C   C1946     1.0  0.63293  0.46826  0.10256  1.0000
  C   C1947     1.0  0.66791  0.63539  0.07956  1.0000
  S   S512      1.0  0.50563  0.41776  0.15660  1.0000
  N   N130      1.0  0.93956  0.58990  0.06422  1.0000
  C   C1948     1.0  0.92669  0.59868  0.08055  1.0000
  C   C1949     1.0  0.94407  0.60713  0.04803  1.0000
  H   H2320     1.0  0.51553  0.57662  0.19704  1.0000
  C   C1950     1.0  0.95814  0.57578  0.06971  1.0000
  C   C1951     1.0  0.99289  0.65209  0.19512  1.0000
  C   C1952     1.0  0.95637  0.55835  0.08474  1.0000
  H   H2321     1.0  0.65710  0.48122  0.10312  1.0000
  H   H2322     1.0  0.92945  0.54425  0.17281  1.0000
  C   C1953     1.0  0.63723  0.65254  0.09815  1.0000
  H   H2323     1.0  0.93541  0.60641  0.08580  1.0000
  H   H2324     1.0  0.91314  0.61035  0.07678  1.0000
  H   H2325     1.0  0.92078  0.58695  0.09270  1.0000
  H   H2326     1.0  0.95238  0.61685  0.05136  1.0000
  H   H2327     1.0  0.92984  0.61749  0.04426  1.0000
  H   H2328     1.0  0.95315  0.60161  0.03506  1.0000
  Fe  Fe257     1.0  0.89707  0.64631  0.02234  1.0000
  C   C1954     1.0  0.50270  0.41089  0.12300  1.0000
  H   H2329     1.0  0.50641  0.47704  0.11129  1.0000
  H   H2330     1.0  0.90927  0.59891  0.20038  1.0000
  H   H2331     1.0  0.68630  0.63937  0.18790  1.0000
  C   C1955     1.0  0.88353  0.62821  0.99410  1.0000
  C   C1956     1.0  0.86451  0.64006  0.00057  1.0000
  C   C1957     1.0  0.52480  0.38823  0.19691  1.0000
  N   N131      1.0  0.61416  0.37441  0.03342  1.0000
  C   C1958     1.0  0.60684  0.50561  0.10753  1.0000
  C   C1959     1.0  0.80922  0.65104  0.04578  1.0000
  C   C1960     1.0  0.60917  0.37843  0.01465  1.0000
  C   C1961     1.0  0.59584  0.38200  0.04721  1.0000
  C   C1962     1.0  0.59533  0.39681  0.05721  1.0000
  C   C1963     1.0  0.62467  0.60738  0.23094  1.0000
  C   C1964     1.0  0.55819  0.54746  0.21178  1.0000
  C   C1965     1.0  0.98840  0.59619  0.10380  1.0000
  C   C1966     1.0  0.92757  0.57867  0.05866  1.0000
  H   H2332     1.0  0.64488  0.62180  0.16565  1.0000
  C   C1967     1.0  0.61977  0.61298  0.21315  1.0000
  H   H2333     1.0  0.97188  0.53221  0.10252  1.0000
  H   H2334     1.0  0.55679  0.46542  0.19293  1.0000
  C   C1968     1.0  0.89931  0.59486  0.21456  1.0000
  C   C1969     1.0  0.50904  0.50193  0.12069  1.0000
  C   C1970     1.0  0.68758  0.65133  0.15804  1.0000
  H   H2335     1.0  0.59576  0.51939  0.10991  1.0000
  H   H2336     1.0  0.54732  0.39972  0.08495  1.0000
  H   H2337     1.0  0.60831  0.40342  0.05541  1.0000
  H   H2338     1.0  0.65350  0.49387  0.20697  1.0000
  C   C1971     1.0  0.97689  0.61364  0.09432  1.0000
  C   C1972     1.0  0.82410  0.65822  0.05003  1.0000
  H   H2339     1.0  0.64525  0.51241  0.18751  1.0000
  C   C1973     1.0  0.95823  0.51001  0.22199  1.0000
  H   H2340     1.0  0.63864  0.55318  0.22912  1.0000
  H   H2341     1.0  0.86026  0.64220  0.01490  1.0000
  C   C1974     1.0  0.49827  0.52931  0.17871  1.0000
  S   S513      1.0  0.98998  0.64718  0.17460  1.0000
  H   H2342     1.0  0.92768  0.57054  0.18919  1.0000
  C   C1975     1.0  0.55105  0.54542  0.23133  1.0000
  H   H2343     1.0  0.56467  0.48624  0.19649  1.0000
  H   H2344     1.0  0.91400  0.58915  0.05355  1.0000
  H   H2345     1.0  0.88386  0.59598  0.21229  1.0000
  C   C1976     1.0  0.52356  0.39809  0.23157  1.0000
  C   C1977     1.0  0.92010  0.54382  0.18697  1.0000
  C   C1978     1.0  0.57791  0.40316  0.07051  1.0000
  H   H2346     1.0  0.49744  0.55782  0.18490  1.0000
  H   H2347     1.0  0.57710  0.36284  0.04435  1.0000
  H   H2348     1.0  0.98123  0.59193  0.04942  1.0000
  H   H2349     1.0  0.63699  0.38073  0.04420  1.0000
  C   C1979     1.0  0.51456  0.46544  0.20370  1.0000
  H   H2350     1.0  0.54255  0.49143  0.18712  1.0000
  H   H2351     1.0  0.98567  0.56824  0.15435  1.0000
  H   H2352     1.0  0.53725  0.39891  0.22062  1.0000
  H   H2353     1.0  0.61589  0.55257  0.21257  1.0000
  H   H2354     1.0  0.66459  0.51617  0.19720  1.0000
  C   C1980     1.0  0.50638  0.36308  0.21772  1.0000
  C   C1981     1.0  0.89643  0.54249  0.22364  1.0000
  H   H2355     1.0  0.68779  0.65473  0.06003  1.0000
  H   H2356     1.0  0.54040  0.61253  0.20008  1.0000
  C   C1982     1.0  0.66495  0.62929  0.17861  1.0000
  C   C1983     1.0  0.64164  0.52032  0.23112  1.0000
  H   H2357     1.0  0.63510  0.34593  0.03016  1.0000
  S   S514      1.0  0.66396  0.34204  0.99547  1.0000
  H   H2358     1.0  0.83996  0.65038  0.04728  1.0000
  C   C1984     1.0  0.53365  0.61574  0.21403  1.0000
  H   H2359     1.0  0.60947  0.34331  0.04076  1.0000
  S   S515      1.0  0.61479  0.45602  0.23030  1.0000
  C   C1985     1.0  0.60933  0.64839  0.21606  1.0000
  C   C1986     1.0  0.98133  0.58338  0.20955  1.0000
  H   H2360     1.0  0.98675  0.55094  0.21524  1.0000
  H   H2361     1.0  0.97279  0.58533  0.19892  1.0000
  H   H2362     1.0  0.98273  0.50649  0.19759  1.0000
  H   H2363     1.0  0.56980  0.64159  0.22989  1.0000
  H   H2364     1.0  0.93531  0.55733  0.23364  1.0000
  H   H2365     1.0  0.52417  0.38359  0.18410  1.0000
  C   C1987     1.0  0.98861  0.63471  0.10816  1.0000
  N   N132      1.0  0.90729  0.57415  0.22519  1.0000
  C   C1988     1.0  0.98976  0.56378  0.21870  1.0000
  H   H2366     1.0  0.57988  0.40125  0.23578  1.0000
  C   C1989     1.0  0.68022  0.63993  0.17594  1.0000
  C   C1990     1.0  0.98431  0.60052  0.21369  1.0000
  C   C1991     1.0  0.50351  0.58510  0.14618  1.0000
  H   H2367     1.0  0.92516  0.62586  0.23316  1.0000
  H   H2368     1.0  0.92911  0.58401  0.23439  1.0000
  H   H2369     1.0  0.80233  0.65927  0.98962  1.0000
  C   C1992     1.0  0.61388  0.64264  0.23405  1.0000
  H   H2370     1.0  0.52124  0.49675  0.23666  1.0000
  C   C1993     1.0  0.64318  0.53768  0.23676  1.0000
  S   S516      1.0  0.53798  0.64248  0.32052  1.0000
  H   H2371     1.0  0.79193  0.43943  0.47354  1.0000
  C   C1994     1.0  0.86426  0.46014  0.33253  1.0000
  H   H2372     1.0  0.49715  0.63902  0.32364  1.0000
  C   C1995     1.0  0.96276  0.50092  0.36772  1.0000
  H   H2373     1.0  0.70689  0.43008  0.47876  1.0000
  C   C1996     1.0  0.76245  0.33254  0.44605  1.0000
  C   C1997     1.0  0.53047  0.55395  0.23918  1.0000
  C   C1998     1.0  0.53667  0.53840  0.27154  1.0000
  S   S517      1.0  0.50115  0.56844  0.32096  1.0000
  S   S518      1.0  0.63143  0.63243  0.29518  1.0000
  H   H2374     1.0  0.72255  0.36719  0.46617  1.0000
  Fe  Fe258     1.0  0.57230  0.63804  0.31306  1.0000
  S   S519      1.0  0.58994  0.62131  0.29047  1.0000
  C   C1999     1.0  0.85483  0.32952  0.39624  1.0000
  Fe  Fe259     1.0  0.61290  0.60784  0.30857  1.0000
  S   S520      1.0  0.62414  0.57345  0.31339  1.0000
  Fe  Fe260     1.0  0.60668  0.64686  0.27869  1.0000
  H   H2375     1.0  0.50849  0.52714  0.25855  1.0000
  S   S521      1.0  0.59385  0.62286  0.33250  1.0000
  H   H2376     1.0  0.78811  0.34550  0.32268  1.0000
  Fe  Fe261     1.0  0.85743  0.36484  0.42307  1.0000
  S   S522      1.0  0.86009  0.38413  0.39370  1.0000
  C   C2000     1.0  0.98406  0.56877  0.32542  1.0000
  Fe  Fe262     1.0  0.84868  0.40132  0.44112  1.0000
  S   S523      1.0  0.85061  0.42366  0.41313  1.0000
  C   C2001     1.0  0.96995  0.62612  0.29537  1.0000
  Fe  Fe263     1.0  0.83267  0.40555  0.40626  1.0000
  S   S524      1.0  0.80553  0.42208  0.39346  1.0000
  Fe  Fe264     1.0  0.87801  0.40049  0.40309  1.0000
  S   S525      1.0  0.90588  0.40913  0.38178  1.0000
  S   S526      1.0  0.82846  0.38493  0.43491  1.0000
  S   S527      1.0  0.87767  0.37935  0.43180  1.0000
  H   H2377     1.0  0.55015  0.43784  0.34114  1.0000
  H   H2378     1.0  0.96137  0.59020  0.29795  1.0000
  H   H2379     1.0  0.93495  0.51364  0.38675  1.0000
  Fe  Fe265     1.0  0.69439  0.38833  0.36577  1.0000
  S   S528      1.0  0.68222  0.41812  0.34689  1.0000
  Fe  Fe266     1.0  0.69242  0.36020  0.40442  1.0000
  S   S529      1.0  0.70735  0.38714  0.39062  1.0000
  C   C2002     1.0  0.97179  0.46409  0.37024  1.0000
  Fe  Fe267     1.0  0.58723  0.50170  0.27393  1.0000
  S   S530      1.0  0.61204  0.47355  0.27624  1.0000
  S   S531      1.0  0.59153  0.53416  0.26390  1.0000
  Fe  Fe268     1.0  0.55397  0.47780  0.27977  1.0000
  S   S532      1.0  0.57591  0.44741  0.28239  1.0000
  S   S533      1.0  0.52086  0.48630  0.27762  1.0000
  Fe  Fe269     1.0  0.58876  0.45997  0.30028  1.0000
  H   H2380     1.0  0.93762  0.59988  0.29087  1.0000
  Fe  Fe270     1.0  0.59742  0.46336  0.25827  1.0000
  H   H2381     1.0  0.51966  0.43066  0.33545  1.0000
  S   S534      1.0  0.56493  0.48933  0.29943  1.0000
  S   S535      1.0  0.57441  0.49250  0.25419  1.0000
  S   S536      1.0  0.92688  0.54171  0.32336  1.0000
  S   S537      1.0  0.89738  0.53697  0.29810  1.0000
  Fe  Fe271     1.0  0.91459  0.55999  0.29791  1.0000
  S   S538      1.0  0.89755  0.59217  0.29834  1.0000
  Fe  Fe272     1.0  0.91173  0.51765  0.32215  1.0000
  S   S539      1.0  0.89313  0.50447  0.35018  1.0000
  H   H2382     1.0  0.74659  0.38405  0.44248  1.0000
  H   H2383     1.0  0.93224  0.46563  0.37840  1.0000
  C   C2003     1.0  0.96615  0.61916  0.26701  1.0000
  C   C2004     1.0  0.65855  0.42143  0.34093  1.0000
  C   C2005     1.0  0.64212  0.41427  0.35419  1.0000
  C   C2006     1.0  0.61940  0.43232  0.33253  1.0000
  C   C2007     1.0  0.63609  0.43848  0.31889  1.0000
  C   C2008     1.0  0.65552  0.43333  0.32320  1.0000
  H   H2384     1.0  0.63394  0.44787  0.30529  1.0000
  H   H2385     1.0  0.66820  0.43883  0.31286  1.0000
  C   C2009     1.0  0.90370  0.43560  0.37339  1.0000
  C   C2010     1.0  0.89170  0.44907  0.38485  1.0000
  C   C2011     1.0  0.88874  0.47022  0.37756  1.0000
  C   C2012     1.0  0.89784  0.47797  0.35883  1.0000
  C   C2013     1.0  0.91051  0.46457  0.34755  1.0000
  C   C2014     1.0  0.91353  0.44336  0.35488  1.0000
  H   H2386     1.0  0.88473  0.44320  0.39936  1.0000
  H   H2387     1.0  0.87920  0.48059  0.38643  1.0000
  H   H2388     1.0  0.91761  0.47050  0.33310  1.0000
  H   H2389     1.0  0.92295  0.43294  0.34602  1.0000
  C   C2015     1.0  0.79425  0.40415  0.38994  1.0000
  C   C2016     1.0  0.77472  0.41004  0.38593  1.0000
  C   C2017     1.0  0.76587  0.39560  0.38292  1.0000
  C   C2018     1.0  0.77680  0.37544  0.38356  1.0000
  C   C2019     1.0  0.79626  0.36961  0.38764  1.0000
  C   C2020     1.0  0.80483  0.38386  0.39111  1.0000
  H   H2390     1.0  0.76649  0.42575  0.38505  1.0000
  H   H2391     1.0  0.75084  0.40014  0.37972  1.0000
  H   H2392     1.0  0.52972  0.53662  0.28695  1.0000
  H   H2393     1.0  0.81981  0.37913  0.39435  1.0000
  Fe  Fe273     1.0  0.95321  0.52784  0.30283  1.0000
  C   C2021     1.0  0.93839  0.64088  0.28441  1.0000
  H   H2394     1.0  0.96285  0.55117  0.32567  1.0000
  S   S540      1.0  0.94247  0.54862  0.27728  1.0000
  H   H2395     1.0  0.57846  0.60452  0.24196  1.0000
  C   C2022     1.0  0.51816  0.48438  0.34227  1.0000
  C   C2023     1.0  0.95020  0.51506  0.37886  1.0000
  H   H2396     1.0  0.50847  0.56957  0.28067  1.0000
  H   H2397     1.0  0.66106  0.51471  0.27682  1.0000
  C   C2024     1.0  0.93646  0.47959  0.37944  1.0000
  H   H2398     1.0  0.63845  0.64651  0.44029  1.0000
  H   H2399     1.0  0.53123  0.44299  0.29479  1.0000
  C   C2025     1.0  0.52806  0.62152  0.32115  1.0000
  H   H2400     1.0  0.72526  0.34234  0.43751  1.0000
  H   H2401     1.0  0.78631  0.39516  0.45740  1.0000
  H   H2402     1.0  0.79402  0.35028  0.34259  1.0000
  C   C2026     1.0  0.53252  0.58614  0.31951  1.0000
  C   C2027     1.0  0.54082  0.60240  0.31967  1.0000
  H   H2403     1.0  0.90030  0.55666  0.25376  1.0000
  S   S541      1.0  0.67448  0.40986  0.48558  1.0000
  H   H2404     1.0  0.54248  0.57150  0.31808  1.0000
  H   H2405     1.0  0.55706  0.60017  0.31865  1.0000
  C   C2028     1.0  0.61595  0.56216  0.29924  1.0000
  C   C2029     1.0  0.61307  0.54201  0.30578  1.0000
  C   C2030     1.0  0.60555  0.53310  0.29513  1.0000
  C   C2031     1.0  0.60133  0.54431  0.27765  1.0000
  C   C2032     1.0  0.60504  0.56412  0.27075  1.0000
  C   C2033     1.0  0.61232  0.57301  0.28150  1.0000
  H   H2406     1.0  0.61638  0.53357  0.31924  1.0000
  H   H2407     1.0  0.60293  0.51771  0.30041  1.0000
  H   H2408     1.0  0.60261  0.57249  0.25690  1.0000
  H   H2409     1.0  0.61562  0.58806  0.27587  1.0000
  C   C2034     1.0  0.64781  0.50084  0.24264  1.0000
  H   H2410     1.0  0.64701  0.48696  0.23929  1.0000
  S   S542      1.0  0.92732  0.51513  0.25300  1.0000
  C   C2035     1.0  0.73388  0.35243  0.46598  1.0000
  C   C2036     1.0  0.65594  0.51620  0.26409  1.0000
  C   C2037     1.0  0.50667  0.40209  0.26338  1.0000
  H   H2411     1.0  0.97397  0.63175  0.25837  1.0000
  C   C2038     1.0  0.75684  0.42898  0.45508  1.0000
  C   C2039     1.0  0.51916  0.44565  0.33748  1.0000
  C   C2040     1.0  0.67445  0.40037  0.45272  1.0000
  C   C2041     1.0  0.67603  0.39291  0.47161  1.0000
  C   C2042     1.0  0.95340  0.48605  0.34677  1.0000
  C   C2043     1.0  0.50406  0.62143  0.23913  1.0000
  H   H2412     1.0  0.67502  0.39249  0.42680  1.0000
  H   H2413     1.0  0.57809  0.60735  0.26456  1.0000
  C   C2044     1.0  0.98890  0.52172  0.35862  1.0000
  H   H2414     1.0  0.57049  0.64538  0.25212  1.0000
  H   H2415     1.0  0.60976  0.41492  0.36065  1.0000
  H   H2416     1.0  0.98143  0.54840  0.37027  1.0000
  C   C2045     1.0  0.60007  0.65868  0.39502  1.0000
  H   H2417     1.0  0.81916  0.44451  0.35294  1.0000
  H   H2418     1.0  0.72487  0.34020  0.47096  1.0000
  C   C2046     1.0  0.99301  0.54009  0.31020  1.0000
  H   H2419     1.0  0.54990  0.54560  0.26905  1.0000
  H   H2420     1.0  0.65913  0.48384  0.26758  1.0000
  H   H2421     1.0  0.86915  0.50764  0.30473  1.0000
  H   H2422     1.0  0.88863  0.43288  0.32895  1.0000
  H   H2423     1.0  0.72164  0.36947  0.43416  1.0000
  H   H2424     1.0  0.51044  0.41625  0.30625  1.0000
  C   C2047     1.0  0.51480  0.57118  0.26518  1.0000
  C   C2048     1.0  0.56805  0.60645  0.25576  1.0000
  H   H2425     1.0  0.90218  0.48766  0.29044  1.0000
  H   H2426     1.0  0.77046  0.34329  0.34548  1.0000
  H   H2427     1.0  0.87124  0.42535  0.36070  1.0000
  H   H2428     1.0  0.83347  0.45235  0.37676  1.0000
  C   C2049     1.0  0.53579  0.46890  0.34320  1.0000
  C   C2050     1.0  0.98218  0.50502  0.35735  1.0000
  S   S543      1.0  0.85738  0.33120  0.43162  1.0000
  H   H2429     1.0  0.93726  0.47754  0.39439  1.0000
  H   H2430     1.0  0.68206  0.34209  0.47421  1.0000
  C   C2051     1.0  0.71786  0.43032  0.44916  1.0000
  H   H2431     1.0  0.65088  0.54899  0.25725  1.0000
  C   C2052     1.0  0.87304  0.49125  0.31003  1.0000
  S   S544      1.0  0.59415  0.44196  0.32906  1.0000
  H   H2432     1.0  0.98629  0.46409  0.35936  1.0000
  C   C2053     1.0  0.89457  0.57162  0.24473  1.0000
  C   C2054     1.0  0.73926  0.42894  0.47009  1.0000
  H   H2433     1.0  0.91144  0.45037  0.30283  1.0000
  S   S545      1.0  0.72239  0.36785  0.35218  1.0000
  C   C2055     1.0  0.85722  0.42803  0.35517  1.0000
  H   H2434     1.0  0.51242  0.46282  0.25000  1.0000
  C   C2056     1.0  0.78690  0.34027  0.33820  1.0000
  C   C2057     1.0  0.75413  0.42907  0.43700  1.0000
  H   H2435     1.0  0.94898  0.47267  0.34478  1.0000
  C   C2058     1.0  0.89166  0.48002  0.30201  1.0000
  H   H2436     1.0  0.83400  0.44537  0.32916  1.0000
  H   H2437     1.0  0.94078  0.60471  0.31215  1.0000
  C   C2059     1.0  0.89681  0.45900  0.30897  1.0000
  H   H2438     1.0  0.76876  0.45573  0.46726  1.0000
  H   H2439     1.0  0.84524  0.49095  0.33065  1.0000
  C   C2060     1.0  0.50705  0.62427  0.32246  1.0000
  C   C2061     1.0  0.78464  0.40514  0.46720  1.0000
  C   C2062     1.0  0.79244  0.43319  0.44126  1.0000
  C   C2063     1.0  0.98708  0.48656  0.24320  1.0000
  C   C2064     1.0  0.85948  0.48152  0.32499  1.0000
  C   C2065     1.0  0.73486  0.42984  0.43417  1.0000
  N   N133      1.0  0.95610  0.48301  0.36621  1.0000
  C   C2066     1.0  0.91234  0.62591  0.24508  1.0000
  C   C2067     1.0  0.62256  0.41987  0.35005  1.0000
  H   H2440     1.0  0.96754  0.48848  0.33587  1.0000
  H   H2441     1.0  0.85785  0.45953  0.36928  1.0000
  C   C2068     1.0  0.84397  0.46008  0.36448  1.0000
  C   C2069     1.0  0.87993  0.62688  0.27668  1.0000
  C   C2070     1.0  0.87923  0.64267  0.26056  1.0000
  C   C2071     1.0  0.51539  0.44690  0.29374  1.0000
  H   H2442     1.0  0.70292  0.43083  0.44702  1.0000
  C   C2072     1.0  0.50434  0.54086  0.26474  1.0000
  H   H2443     1.0  0.54929  0.47178  0.34568  1.0000
  H   H2444     1.0  0.83611  0.47637  0.36118  1.0000
  H   H2445     1.0  0.96658  0.45018  0.37045  1.0000
  H   H2446     1.0  0.96219  0.62983  0.30939  1.0000
  H   H2447     1.0  0.66128  0.65136  0.42302  1.0000
  H   H2448     1.0  0.97825  0.60494  0.26770  1.0000
  C   C2073     1.0  0.96696  0.49392  0.25235  1.0000
  H   H2449     1.0  0.84574  0.42113  0.36698  1.0000
  H   H2450     1.0  0.74302  0.35064  0.47656  1.0000
  H   H2451     1.0  0.92628  0.59760  0.26181  1.0000
  C   C2074     1.0  0.67897  0.37188  0.47927  1.0000
  H   H2452     1.0  0.67205  0.41665  0.44677  1.0000
  C   C2075     1.0  0.68008  0.35833  0.46816  1.0000
  H   H2453     1.0  0.62552  0.61775  0.25509  1.0000
  H   H2454     1.0  0.73313  0.43000  0.42025  1.0000
  C   C2076     1.0  0.88342  0.44911  0.32403  1.0000
  H   H2455     1.0  0.92345  0.49243  0.37617  1.0000
  C   C2077     1.0  0.65479  0.49888  0.25889  1.0000
  C   C2078     1.0  0.54052  0.62752  0.27339  1.0000
  C   C2079     1.0  0.73349  0.35508  0.43376  1.0000
  H   H2456     1.0  0.82278  0.46853  0.33760  1.0000
  C   C2080     1.0  0.91300  0.60995  0.26130  1.0000
  H   H2457     1.0  0.99214  0.49570  0.34772  1.0000
  H   H2458     1.0  0.86063  0.41923  0.34400  1.0000
  C   C2081     1.0  0.83054  0.45227  0.34165  1.0000
  H   H2459     1.0  0.76670  0.42844  0.42483  1.0000
  H   H2460     1.0  0.98237  0.61237  0.29771  1.0000
  S   S546      1.0  0.68141  0.34830  0.43545  1.0000
  H   H2461     1.0  0.80475  0.35399  0.38820  1.0000
  H   H2462     1.0  0.91280  0.62629  0.30146  1.0000
  C   C2082     1.0  0.62154  0.62213  0.24144  1.0000
  H   H2463     1.0  0.86745  0.62749  0.28896  1.0000
  H   H2464     1.0  0.97767  0.63884  0.28676  1.0000
  H   H2465     1.0  0.51886  0.49896  0.34420  1.0000
  H   H2466     1.0  0.64429  0.40512  0.36792  1.0000
  C   C2083     1.0  0.50359  0.43179  0.30026  1.0000
  C   C2084     1.0  0.67618  0.38673  0.44141  1.0000
  H   H2467     1.0  0.76880  0.36700  0.44998  1.0000
  H   H2468     1.0  0.52760  0.57935  0.26131  1.0000
  H   H2469     1.0  0.52846  0.64177  0.27330  1.0000
  C   C2085     1.0  0.50659  0.46699  0.28608  1.0000
  H   H2470     1.0  0.85977  0.34388  0.39105  1.0000
  H   H2471     1.0  0.50250  0.58123  0.25819  1.0000
  Fe  Fe274     1.0  0.70635  0.34261  0.36918  1.0000
  S   S547      1.0  0.67730  0.36306  0.38078  1.0000
  H   H2472     1.0  0.97539  0.46210  0.38422  1.0000
  H   H2473     1.0  0.96262  0.49030  0.26759  1.0000
  C   C2086     1.0  0.75761  0.36932  0.44112  1.0000
  C   C2087     1.0  0.49876  0.60802  0.32234  1.0000
  H   H2474     1.0  0.80713  0.43340  0.44434  1.0000
  C   C2088     1.0  0.91755  0.64012  0.29280  1.0000
  C   C2089     1.0  0.52357  0.40297  0.24835  1.0000
  N   N134      1.0  0.74708  0.35190  0.44687  1.0000
  N   N135      1.0  0.55125  0.62482  0.25399  1.0000
  N   N136      1.0  0.52189  0.55107  0.25980  1.0000
  H   H2475     1.0  0.97278  0.57884  0.33369  1.0000
  H   H2476     1.0  0.50856  0.62704  0.26372  1.0000
  H   H2477     1.0  0.98607  0.53807  0.26485  1.0000
  N   N137      1.0  0.77724  0.42689  0.45874  1.0000
  C   C2090     1.0  0.51146  0.58890  0.32099  1.0000
  H   H2478     1.0  0.95533  0.61798  0.25908  1.0000
  C   C2091     1.0  0.53633  0.44966  0.34068  1.0000
  C   C2092     1.0  0.77637  0.43956  0.47205  1.0000
  H   H2479     1.0  0.86617  0.65534  0.26041  1.0000
  H   H2480     1.0  0.74191  0.35631  0.41878  1.0000
  C   C2093     1.0  0.89674  0.61051  0.27711  1.0000
  N   N138      1.0  0.61783  0.48781  0.34842  1.0000
  C   C2094     1.0  0.63253  0.49415  0.35557  1.0000
  C   C2095     1.0  0.61374  0.46807  0.36089  1.0000
  C   C2096     1.0  0.62809  0.48444  0.32915  1.0000
  C   C2097     1.0  0.59826  0.50291  0.34785  1.0000
  C   C2098     1.0  0.59383  0.52151  0.35407  1.0000
  C   C2099     1.0  0.58297  0.49934  0.34067  1.0000
  C   C2100     1.0  0.57549  0.53575  0.35263  1.0000
  C   C2101     1.0  0.56469  0.51369  0.33934  1.0000
  C   C2102     1.0  0.56096  0.53184  0.34532  1.0000
  H   H2481     1.0  0.64711  0.48248  0.35563  1.0000
  H   H2482     1.0  0.63670  0.50871  0.34649  1.0000
  H   H2483     1.0  0.62627  0.49609  0.37037  1.0000
  H   H2484     1.0  0.60589  0.46988  0.37551  1.0000
  H   H2485     1.0  0.62814  0.45625  0.36168  1.0000
  H   H2486     1.0  0.60391  0.46151  0.35577  1.0000
  H   H2487     1.0  0.63132  0.49888  0.31919  1.0000
  H   H2488     1.0  0.64297  0.47327  0.32910  1.0000
  H   H2489     1.0  0.61880  0.47821  0.32312  1.0000
  H   H2490     1.0  0.60452  0.52581  0.35950  1.0000
  H   H2491     1.0  0.58520  0.48550  0.33578  1.0000
  H   H2492     1.0  0.57271  0.55016  0.35684  1.0000
  H   H2493     1.0  0.55349  0.51089  0.33337  1.0000
  H   H2494     1.0  0.54683  0.54301  0.34416  1.0000
  Fe  Fe275     1.0  0.92649  0.52372  0.27969  1.0000
  S   S548      1.0  0.98622  0.52050  0.30434  1.0000
  H   H2495     1.0  0.64642  0.63238  0.37627  1.0000
  H   H2496     1.0  0.94114  0.49968  0.34355  1.0000
  C   C2103     1.0  0.61461  0.64580  0.38432  1.0000
  H   H2497     1.0  0.61011  0.63942  0.37483  1.0000
  H   H2498     1.0  0.89476  0.58364  0.25181  1.0000
  S   S549      1.0  0.93923  0.50199  0.30370  1.0000
  S   S550      1.0  0.71977  0.33773  0.39396  1.0000
  H   H2499     1.0  0.56202  0.59223  0.26245  1.0000
  C   C2104     1.0  0.72008  0.42990  0.46705  1.0000
  C   C2105     1.0  0.90194  0.65737  0.28977  1.0000
  H   H2500     1.0  0.68672  0.65086  0.34141  1.0000
  H   H2501     1.0  0.88746  0.54069  0.23794  1.0000
  N   N139      1.0  0.84941  0.45018  0.34816  1.0000
  C   C2106     1.0  0.50146  0.46094  0.33655  1.0000
  C   C2107     1.0  0.50042  0.48083  0.33882  1.0000
  C   C2108     1.0  0.89536  0.64229  0.24470  1.0000
  H   H2502     1.0  0.77560  0.34146  0.41602  1.0000
  C   C2109     1.0  0.94837  0.60360  0.29731  1.0000
  H   H2503     1.0  0.87827  0.57282  0.24483  1.0000
  H   H2504     1.0  0.81052  0.33885  0.48280  1.0000
  C   C2110     1.0  0.64116  0.65100  0.39644  1.0000
  S   S551      1.0  0.76664  0.35692  0.37968  1.0000
  H   H2505     1.0  0.79666  0.42238  0.43177  1.0000
  C   C2111     1.0  0.95249  0.50563  0.24175  1.0000
  H   H2506     1.0  0.76609  0.37145  0.42610  1.0000
  H   H2507     1.0  0.77387  0.39968  0.48045  1.0000
  Fe  Fe276     1.0  0.61038  0.64875  0.31774  1.0000
  H   H2508     1.0  0.78664  0.44878  0.43331  1.0000
  C   C2112     1.0  0.51627  0.62402  0.24992  1.0000
  N   N140      1.0  0.95528  0.62268  0.28612  1.0000
  Fe  Fe277     1.0  0.73365  0.36459  0.37815  1.0000
  C   C2113     1.0  0.65027  0.53552  0.25299  1.0000
  H   H2509     1.0  0.59463  0.42190  0.24873  1.0000
  C   C2114     1.0  0.67887  0.36572  0.44920  1.0000
  H   H2510     1.0  0.87440  0.38695  0.47333  1.0000
  H   H2511     1.0  0.54216  0.52274  0.26885  1.0000
  H   H2512     1.0  0.50682  0.40555  0.27647  1.0000
  C   C2115     1.0  0.53774  0.62245  0.24297  1.0000
  C   C2116     1.0  0.63508  0.64184  0.38515  1.0000
  H   H2513     1.0  0.65776  0.64693  0.33016  1.0000
  H   H2514     1.0  0.54826  0.65718  0.24235  1.0000
  C   C2117     1.0  0.97839  0.55325  0.32071  1.0000
  C   C2118     1.0  0.95699  0.53188  0.37982  1.0000
  H   H2515     1.0  0.54460  0.46470  0.24509  1.0000
  H   H2516     1.0  0.53690  0.40725  0.24973  1.0000
  C   C2119     1.0  0.77624  0.32976  0.42875  1.0000
  H   H2517     1.0  0.94710  0.54262  0.38820  1.0000
  H   H2518     1.0  0.55109  0.62904  0.28139  1.0000
  C   C2120     1.0  0.97632  0.53515  0.36979  1.0000
  H   H2519     1.0  0.49932  0.53554  0.28027  1.0000
  H   H2520     1.0  0.98364  0.52883  0.24576  1.0000
  C   C2121     1.0  0.56030  0.64300  0.24413  1.0000
  C   C2122     1.0  0.50898  0.46107  0.23753  1.0000
  H   H2521     1.0  0.88611  0.65625  0.29584  1.0000
  S   S552      1.0  0.83575  0.41437  0.46723  1.0000
  H   H2522     1.0  0.53363  0.61420  0.28181  1.0000
  H   H2523     1.0  0.65739  0.64836  0.39566  1.0000
  H   H2524     1.0  0.83479  0.34240  0.46692  1.0000
  H   H2525     1.0  0.56198  0.53724  0.24001  1.0000
  H   H2526     1.0  0.79964  0.40264  0.47091  1.0000
  H   H2527     1.0  0.74016  0.42775  0.48444  1.0000
  C   C2123     1.0  0.82543  0.33090  0.47542  1.0000
  C   C2124     1.0  0.99472  0.52966  0.25355  1.0000
  C   C2125     1.0  0.64664  0.65876  0.43129  1.0000
  C   C2126     1.0  0.65562  0.65886  0.33761  1.0000
  H   H2528     1.0  0.85440  0.32671  0.36856  1.0000
  H   H2529     1.0  0.76833  0.43373  0.48670  1.0000
  H   H2530     1.0  0.82573  0.32698  0.33825  1.0000
  H   H2531     1.0  0.76203  0.32712  0.32763  1.0000
  C   C2127     1.0  0.84723  0.40556  0.48684  1.0000
  C   C2128     1.0  0.86629  0.39214  0.48617  1.0000
  Fe  Fe278     1.0  0.91722  0.43268  0.67974  1.0000
  S   S553      1.0  0.91428  0.46644  0.66705  1.0000
  S   S554      1.0  0.91036  0.40889  0.66844  1.0000
  C   C2129     1.0  0.59361  0.38980  0.58045  1.0000
  S   S555      1.0  0.92896  0.46888  0.70408  1.0000
  H   H2532     1.0  0.78141  0.36247  0.54879  1.0000
  Fe  Fe279     1.0  0.89965  0.46992  0.69691  1.0000
  C   C2130     1.0  0.66102  0.64908  0.53583  1.0000
  Fe  Fe280     1.0  0.94386  0.46220  0.67565  1.0000
  S   S556      1.0  0.97059  0.47688  0.66037  1.0000
  C   C2131     1.0  0.60857  0.39050  0.56367  1.0000
  S   S557      1.0  0.94817  0.42820  0.68596  1.0000
  Fe  Fe281     1.0  0.96913  0.58193  0.65684  1.0000
  H   H2533     1.0  0.50708  0.45524  0.72816  1.0000
  S   S558      1.0  0.94502  0.57310  0.64810  1.0000
  H   H2534     1.0  0.80401  0.34619  0.53914  1.0000
  Fe  Fe282     1.0  0.69057  0.39355  0.50931  1.0000
  C   C2132     1.0  0.57064  0.47034  0.70563  1.0000
  C   C2133     1.0  0.91652  0.39379  0.59310  1.0000
  C   C2134     1.0  0.91943  0.37388  0.60414  1.0000
  H   H2535     1.0  0.64629  0.39964  0.54487  1.0000
  C   C2135     1.0  0.79630  0.35293  0.55170  1.0000
  C   C2136     1.0  0.96890  0.48708  0.71393  1.0000
  H   H2536     1.0  0.53331  0.54173  0.59604  1.0000
  C   C2137     1.0  0.91048  0.59821  0.72448  1.0000
  C   C2138     1.0  0.84532  0.56828  0.71765  1.0000
  Fe  Fe283     1.0  0.71600  0.35259  0.52500  1.0000
  C   C2139     1.0  0.87247  0.49326  0.73018  1.0000
  Fe  Fe284     1.0  0.93076  0.43529  0.71398  1.0000
  S   S559      1.0  0.54830  0.65549  0.64880  1.0000
  S   S560      1.0  0.59018  0.62199  0.65800  1.0000
  S   S561      1.0  0.97058  0.59605  0.71859  1.0000
  S   S562      1.0  0.54469  0.60958  0.67517  1.0000
  Fe  Fe285     1.0  0.55929  0.63500  0.67436  1.0000
  Fe  Fe286     1.0  0.57454  0.59813  0.65670  1.0000
  S   S563      1.0  0.58918  0.56456  0.66117  1.0000
  S   S564      1.0  0.56477  0.61537  0.62974  1.0000
  Fe  Fe287     1.0  0.84701  0.41056  0.59848  1.0000
  S   S565      1.0  0.86640  0.38088  0.59189  1.0000
  S   S566      1.0  0.85801  0.43448  0.60592  1.0000
  Fe  Fe288     1.0  0.81041  0.40482  0.58779  1.0000
  S   S567      1.0  0.82671  0.37507  0.57953  1.0000
  S   S568      1.0  0.77703  0.41708  0.58833  1.0000
  H   H2537     1.0  0.83752  0.36776  0.51626  1.0000
  Fe  Fe289     1.0  0.85340  0.39013  0.56593  1.0000
  S   S569      1.0  0.87512  0.38329  0.53902  1.0000
  S   S570      1.0  0.82000  0.39681  0.61538  1.0000
  S   S571      1.0  0.83592  0.42090  0.57133  1.0000
  S   S572      1.0  0.69464  0.40920  0.52997  1.0000
  S   S573      1.0  0.66685  0.37956  0.57979  1.0000
  S   S574      1.0  0.75641  0.40239  0.51761  1.0000
  C   C2140     1.0  0.91519  0.38047  0.56707  1.0000
  Fe  Fe290     1.0  0.57093  0.45454  0.61723  1.0000
  S   S575      1.0  0.56136  0.42639  0.63720  1.0000
  S   S576      1.0  0.59358  0.45567  0.58934  1.0000
  Fe  Fe291     1.0  0.54560  0.48297  0.64296  1.0000
  S   S577      1.0  0.53398  0.45744  0.66486  1.0000
  S   S578      1.0  0.53240  0.51442  0.64876  1.0000
  Fe  Fe292     1.0  0.56597  0.43974  0.65920  1.0000
  S   S579      1.0  0.57852  0.42078  0.68433  1.0000
  Fe  Fe293     1.0  0.52994  0.44650  0.64109  1.0000
  S   S580      1.0  0.57826  0.46622  0.63901  1.0000
  S   S581      1.0  0.53893  0.47379  0.61934  1.0000
  C   C2141     1.0  0.57655  0.43650  0.69961  1.0000
  Fe  Fe294     1.0  0.68860  0.38039  0.55120  1.0000
  C   C2142     1.0  0.57124  0.45778  0.69374  1.0000
  C   C2143     1.0  0.91432  0.39769  0.57414  1.0000
  H   H2538     1.0  0.56831  0.46464  0.67980  1.0000
  H   H2539     1.0  0.60252  0.41983  0.50989  1.0000
  H   H2540     1.0  0.55438  0.60589  0.73446  1.0000
  C   C2144     1.0  0.91815  0.36063  0.57821  1.0000
  H   H2541     1.0  0.90904  0.45022  0.56176  1.0000
  C   C2145     1.0  0.50132  0.63227  0.73184  1.0000
  H   H2542     1.0  0.79221  0.35131  0.62714  1.0000
  H   H2543     1.0  0.75665  0.36356  0.57521  1.0000
  C   C2146     1.0  0.64713  0.40110  0.58306  1.0000
  C   C2147     1.0  0.62984  0.39890  0.59773  1.0000
  C   C2148     1.0  0.61339  0.41562  0.59995  1.0000
  C   C2149     1.0  0.61415  0.43458  0.58744  1.0000
  C   C2150     1.0  0.63171  0.43693  0.57317  1.0000
  C   C2151     1.0  0.64826  0.42030  0.57114  1.0000
  H   H2544     1.0  0.62896  0.38410  0.60710  1.0000
  H   H2545     1.0  0.59993  0.41366  0.61100  1.0000
  H   H2546     1.0  0.63253  0.45166  0.56366  1.0000
  H   H2547     1.0  0.66178  0.42231  0.56018  1.0000
  C   C2152     1.0  0.76186  0.40695  0.53714  1.0000
  C   C2153     1.0  0.74626  0.41069  0.55281  1.0000
  C   C2154     1.0  0.75090  0.41443  0.56834  1.0000
  C   C2155     1.0  0.77120  0.41361  0.56847  1.0000
  C   C2156     1.0  0.78679  0.40963  0.55286  1.0000
  C   C2157     1.0  0.78208  0.40661  0.53707  1.0000
  H   H2548     1.0  0.73062  0.41101  0.55285  1.0000
  H   H2549     1.0  0.73884  0.41764  0.58038  1.0000
  H   H2550     1.0  0.80244  0.40919  0.55287  1.0000
  C   C2158     1.0  0.97278  0.51156  0.73680  1.0000
  C   C2159     1.0  0.84531  0.40541  0.51961  1.0000
  C   C2160     1.0  0.86441  0.39211  0.51895  1.0000
  H   H2551     1.0  0.88639  0.43918  0.54930  1.0000
  Fe  Fe295     1.0  0.72713  0.39172  0.52475  1.0000
  H   H2552     1.0  0.95466  0.63018  0.62042  1.0000
  H   H2553     1.0  0.83714  0.41058  0.53244  1.0000
  H   H2554     1.0  0.92661  0.43202  0.57489  1.0000
  C   C2161     1.0  0.57316  0.54982  0.65944  1.0000
  C   C2162     1.0  0.55315  0.55900  0.65763  1.0000
  C   C2163     1.0  0.54071  0.54759  0.65513  1.0000
  C   C2164     1.0  0.54821  0.52712  0.65396  1.0000
  C   C2165     1.0  0.56806  0.51762  0.65643  1.0000
  C   C2166     1.0  0.58047  0.52899  0.65931  1.0000
  H   H2555     1.0  0.54741  0.57500  0.65777  1.0000
  H   H2556     1.0  0.52543  0.55485  0.65347  1.0000
  H   H2557     1.0  0.57391  0.50170  0.65591  1.0000
  H   H2558     1.0  0.59587  0.52187  0.66104  1.0000
  H   H2559     1.0  0.82528  0.33259  0.57121  1.0000
  N   N141      1.0  0.79387  0.33691  0.56936  1.0000
  H   H2560     1.0  0.82922  0.57536  0.71945  1.0000
  H   H2561     1.0  0.80546  0.36350  0.55244  1.0000
  H   H2562     1.0  0.61339  0.48762  0.67977  1.0000
  H   H2563     1.0  0.56424  0.40435  0.59467  1.0000
  H   H2564     1.0  0.55847  0.43184  0.56671  1.0000
  H   H2565     1.0  0.80809  0.33314  0.60208  1.0000
  H   H2566     1.0  0.89948  0.60285  0.71558  1.0000
  H   H2567     1.0  0.60019  0.60552  0.72844  1.0000
  C   C2167     1.0  0.96014  0.63385  0.58246  1.0000
  C   C2168     1.0  0.57234  0.42008  0.56567  1.0000
  H   H2568     1.0  0.53549  0.41409  0.70286  1.0000
  C   C2169     1.0  0.76475  0.36021  0.58641  1.0000
  C   C2170     1.0  0.58040  0.42780  0.71771  1.0000
  C   C2171     1.0  0.56300  0.52738  0.60091  1.0000
  H   H2569     1.0  0.60869  0.58325  0.71835  1.0000
  C   C2172     1.0  0.54567  0.56208  0.60538  1.0000
  H   H2570     1.0  0.91817  0.34783  0.57262  1.0000
  S   S582      1.0  0.50492  0.63527  0.64188  1.0000
  H   H2571     1.0  0.97400  0.41109  0.71299  1.0000
  H   H2572     1.0  0.94857  0.60334  0.61037  1.0000
  H   H2573     1.0  0.76561  0.33302  0.56530  1.0000
  H   H2574     1.0  0.80842  0.44340  0.64831  1.0000
  C   C2173     1.0  0.93101  0.59941  0.71651  1.0000
  N   N142      1.0  0.51591  0.42310  0.72839  1.0000
  Fe  Fe296     1.0  0.53611  0.62894  0.64833  1.0000
  N   N143      1.0  0.97299  0.61952  0.59534  1.0000
  C   C2174     1.0  0.91154  0.43474  0.57118  1.0000
  H   H2575     1.0  0.93583  0.60506  0.70147  1.0000
  H   H2576     1.0  0.49539  0.56580  0.67384  1.0000
  H   H2577     1.0  0.61280  0.43817  0.51570  1.0000
  C   C2175     1.0  0.89718  0.41599  0.65001  1.0000
  C   C2176     1.0  0.89070  0.40096  0.64527  1.0000
  C   C2177     1.0  0.87881  0.40640  0.63160  1.0000
  C   C2178     1.0  0.87340  0.42690  0.62263  1.0000
  C   C2179     1.0  0.88049  0.44181  0.62688  1.0000
  C   C2180     1.0  0.89248  0.43636  0.64043  1.0000
  H   H2578     1.0  0.89446  0.38514  0.65254  1.0000
  H   H2579     1.0  0.87354  0.39479  0.62827  1.0000
  H   H2580     1.0  0.87656  0.45766  0.61975  1.0000
  H   H2581     1.0  0.89797  0.44791  0.64355  1.0000
  C   C2181     1.0  0.96321  0.50360  0.65634  1.0000
  C   C2182     1.0  0.94288  0.51355  0.65608  1.0000
  C   C2183     1.0  0.93734  0.53501  0.65283  1.0000
  C   C2184     1.0  0.95200  0.54643  0.65051  1.0000
  C   C2185     1.0  0.97222  0.53637  0.65100  1.0000
  C   C2186     1.0  0.97788  0.51508  0.65360  1.0000
  H   H2582     1.0  0.93149  0.50474  0.65811  1.0000
  H   H2583     1.0  0.92167  0.54268  0.65244  1.0000
  C   C2187     1.0  0.60414  0.64716  0.71156  1.0000
  H   H2584     1.0  0.90649  0.51026  0.71460  1.0000
  C   C2188     1.0  0.87494  0.38555  0.50219  1.0000
  H   H2585     1.0  0.92457  0.43558  0.53522  1.0000
  C   C2189     1.0  0.78414  0.34665  0.58572  1.0000
  H   H2586     1.0  0.58369  0.43337  0.53716  1.0000
  H   H2587     1.0  0.54777  0.40803  0.72197  1.0000
  H   H2588     1.0  0.79414  0.40372  0.52493  1.0000
  C   C2190     1.0  0.56354  0.55627  0.71173  1.0000
  N   N144      1.0  0.84408  0.45623  0.68710  1.0000
  C   C2191     1.0  0.86481  0.45938  0.67690  1.0000
  C   C2192     1.0  0.83021  0.47670  0.68651  1.0000
  C   C2193     1.0  0.84444  0.44669  0.70727  1.0000
  C   C2194     1.0  0.83811  0.44278  0.67827  1.0000
  C   C2195     1.0  0.82351  0.45022  0.66664  1.0000
  C   C2196     1.0  0.84810  0.42187  0.67998  1.0000
  C   C2197     1.0  0.81912  0.43736  0.65759  1.0000
  C   C2198     1.0  0.84325  0.40908  0.67120  1.0000
  C   C2199     1.0  0.82891  0.41683  0.65991  1.0000
  S   S583      1.0  0.83754  0.33652  0.62375  1.0000
  H   H2589     1.0  0.91606  0.55923  0.68146  1.0000
  H   H2590     1.0  0.92068  0.37134  0.61867  1.0000
  C   C2200     1.0  0.58708  0.42077  0.54871  1.0000
  H   H2591     1.0  0.86985  0.46982  0.68268  1.0000
  H   H2592     1.0  0.81412  0.47534  0.69329  1.0000
  H   H2593     1.0  0.59634  0.37808  0.59291  1.0000
  H   H2594     1.0  0.52636  0.50071  0.72029  1.0000
  H   H2595     1.0  0.82948  0.44271  0.71521  1.0000
  H   H2596     1.0  0.83462  0.48601  0.69410  1.0000
  H   H2597     1.0  0.86037  0.41535  0.68747  1.0000
  N   N145      1.0  0.52755  0.57915  0.60468  1.0000
  H   H2598     1.0  0.85135  0.39325  0.67246  1.0000
  H   H2599     1.0  0.82581  0.40705  0.65251  1.0000
  C   C2201     1.0  0.97899  0.50324  0.70582  1.0000
  H   H2600     1.0  0.68018  0.36599  0.49381  1.0000
  H   H2601     1.0  0.94359  0.63607  0.58944  1.0000
  H   H2602     1.0  0.59285  0.51605  0.60724  1.0000
  C   C2202     1.0  0.98132  0.51504  0.71706  1.0000
  C   C2203     1.0  0.52623  0.58808  0.58470  1.0000
  H   H2603     1.0  0.54111  0.60369  0.60497  1.0000
  H   H2604     1.0  0.74119  0.38104  0.60122  1.0000
  H   H2605     1.0  0.98367  0.54491  0.64929  1.0000
  S   S584      1.0  0.90013  0.43660  0.70897  1.0000
  H   H2606     1.0  0.70055  0.64800  0.53621  1.0000
  C   C2204     1.0  0.65511  0.64129  0.59494  1.0000
  H   H2607     1.0  0.56390  0.58715  0.71040  1.0000
  H   H2608     1.0  0.86535  0.46618  0.66161  1.0000
  H   H2609     1.0  0.88512  0.55088  0.68453  1.0000
  H   H2610     1.0  0.85650  0.43256  0.70906  1.0000
  C   C2205     1.0  0.58938  0.64616  0.70246  1.0000
  H   H2611     1.0  0.66284  0.64984  0.61700  1.0000
  C   C2206     1.0  0.57911  0.44037  0.72988  1.0000
  H   H2612     1.0  0.97313  0.55229  0.72827  1.0000
  H   H2613     1.0  0.53421  0.44535  0.72390  1.0000
  H   H2614     1.0  0.52088  0.44939  0.70573  1.0000
  S   S585      1.0  0.87277  0.49394  0.70658  1.0000
  C   C2207     1.0  0.97940  0.41445  0.72369  1.0000
  N   N146      1.0  0.63850  0.42849  0.63958  1.0000
  C   C2208     1.0  0.62253  0.41628  0.64441  1.0000
  C   C2209     1.0  0.64296  0.43617  0.61875  1.0000
  C   C2210     1.0  0.65750  0.41479  0.64466  1.0000
  C   C2211     1.0  0.63154  0.44499  0.65027  1.0000
  C   C2212     1.0  0.62701  0.44011  0.67034  1.0000
  C   C2213     1.0  0.62917  0.46612  0.64131  1.0000
  C   C2214     1.0  0.62082  0.45535  0.68076  1.0000
  C   C2215     1.0  0.62277  0.48124  0.65190  1.0000
  C   C2216     1.0  0.61858  0.47588  0.67157  1.0000
  H   H2615     1.0  0.61921  0.40871  0.65964  1.0000
  H   H2616     1.0  0.60787  0.42607  0.64115  1.0000
  H   H2617     1.0  0.62709  0.40392  0.63639  1.0000
  H   H2618     1.0  0.62905  0.44589  0.61378  1.0000
  H   H2619     1.0  0.64835  0.42342  0.61112  1.0000
  H   H2620     1.0  0.65528  0.44506  0.61399  1.0000
  H   H2621     1.0  0.66369  0.40269  0.63627  1.0000
  H   H2622     1.0  0.66963  0.42357  0.64204  1.0000
  H   H2623     1.0  0.65501  0.40669  0.65977  1.0000
  H   H2624     1.0  0.62793  0.42445  0.67819  1.0000
  H   H2625     1.0  0.63197  0.47144  0.62615  1.0000
  H   H2626     1.0  0.84873  0.56634  0.68897  1.0000
  H   H2627     1.0  0.62096  0.49725  0.64479  1.0000
  H   H2628     1.0  0.50124  0.64791  0.73154  1.0000
  H   H2629     1.0  0.88855  0.41283  0.54994  1.0000
  H   H2630     1.0  0.94195  0.41485  0.54677  1.0000
  H   H2631     1.0  0.61723  0.45125  0.69609  1.0000
  H   H2632     1.0  0.51294  0.59468  0.66564  1.0000
  S   S586      1.0  0.96747  0.61174  0.66381  1.0000
  H   H2633     1.0  0.92207  0.34200  0.60546  1.0000
  C   C2217     1.0  0.51962  0.44419  0.72121  1.0000
  C   C2218     1.0  0.91828  0.53683  0.72704  1.0000
  H   H2634     1.0  0.90969  0.52345  0.69038  1.0000
  H   H2635     1.0  0.93115  0.51482  0.70105  1.0000
  H   H2636     1.0  0.96554  0.59311  0.59105  1.0000
  H   H2637     1.0  0.85927  0.34442  0.53762  1.0000
  S   S587      1.0  0.68229  0.36586  0.53075  1.0000
  H   H2638     1.0  0.55777  0.56022  0.69893  1.0000
  C   C2219     1.0  0.57557  0.40461  0.58148  1.0000
  C   C2220     1.0  0.56735  0.57155  0.71829  1.0000
  H   H2639     1.0  0.58457  0.41135  0.72228  1.0000
  S   S588      1.0  0.97860  0.56302  0.68333  1.0000
  H   H2640     1.0  0.56731  0.48681  0.70075  1.0000
  H   H2641     1.0  0.62864  0.42207  0.50035  1.0000
  S   S589      1.0  0.72175  0.36415  0.54763  1.0000
  H   H2642     1.0  0.58719  0.60281  0.71237  1.0000
  H   H2643     1.0  0.98550  0.50644  0.69075  1.0000
  C   C2221     1.0  0.76561  0.36719  0.61586  1.0000
  H   H2644     1.0  0.89928  0.43564  0.58423  1.0000
  H   H2645     1.0  0.75896  0.37568  0.62694  1.0000
  C   C2222     1.0  0.83635  0.34437  0.50312  1.0000
  C   C2223     1.0  0.92086  0.55581  0.69505  1.0000
  C   C2224     1.0  0.51033  0.50829  0.72288  1.0000
  H   H2646     1.0  0.65239  0.41309  0.52095  1.0000
  C   C2225     1.0  0.89011  0.42341  0.55790  1.0000
  C   C2226     1.0  0.99473  0.61624  0.58518  1.0000
  H   H2647     1.0  0.87635  0.44474  0.67789  1.0000
  H   H2648     1.0  0.91562  0.40584  0.59996  1.0000
  H   H2649     1.0  0.61554  0.38187  0.52223  1.0000
  H   H2650     1.0  0.56530  0.52396  0.71590  1.0000
  H   H2651     1.0  0.66914  0.63302  0.54037  1.0000
  S   S590      1.0  0.49999  0.43619  0.65013  1.0000
  H   H2652     1.0  0.82723  0.35560  0.49397  1.0000
  C   C2227     1.0  0.96097  0.48272  0.73335  1.0000
  Fe  Fe297     1.0  0.57797  0.64048  0.63226  1.0000
  H   H2653     1.0  0.92483  0.40997  0.53528  1.0000
  H   H2654     1.0  0.50463  0.56174  0.60785  1.0000
  H   H2655     1.0  0.85257  0.52280  0.73079  1.0000
  H   H2656     1.0  0.63531  0.42642  0.53820  1.0000
  N   N147      1.0  0.90987  0.54117  0.70992  1.0000
  H   H2657     1.0  0.86710  0.33833  0.58842  1.0000
  C   C2228     1.0  0.91448  0.52165  0.70371  1.0000
  S   S591      1.0  0.72358  0.37920  0.50194  1.0000
  C   C2229     1.0  0.88761  0.54989  0.71302  1.0000
  H   H2658     1.0  0.91282  0.38225  0.55306  1.0000
  C   C2230     1.0  0.87718  0.55428  0.69815  1.0000
  C   C2231     1.0  0.49929  0.59655  0.66064  1.0000
  C   C2232     1.0  0.85634  0.56324  0.70051  1.0000
  C   C2233     1.0  0.83682  0.41223  0.50355  1.0000
  C   C2234     1.0  0.92620  0.41977  0.54411  1.0000
  C   C2235     1.0  0.50263  0.52384  0.70889  1.0000
  H   H2659     1.0  0.91796  0.57066  0.69923  1.0000
  C   C2236     1.0  0.85442  0.33851  0.52802  1.0000
  S   S592      1.0  0.59441  0.65690  0.60408  1.0000
  H   H2660     1.0  0.56477  0.57656  0.61446  1.0000
  H   H2661     1.0  0.97439  0.64393  0.60745  1.0000
  H   H2662     1.0  0.59386  0.64411  0.68807  1.0000
  H   H2663     1.0  0.56278  0.51328  0.59750  1.0000
  H   H2664     1.0  0.64828  0.63625  0.57125  1.0000
  C   C2237     1.0  0.58001  0.52891  0.60635  1.0000
  H   H2665     1.0  0.88969  0.37518  0.50166  1.0000
  C   C2238     1.0  0.57464  0.46165  0.72367  1.0000
  H   H2666     1.0  0.91628  0.55106  0.73201  1.0000
  H   H2667     1.0  0.49867  0.49560  0.67807  1.0000
  H   H2668     1.0  0.51271  0.52820  0.69527  1.0000
  H   H2669     1.0  0.96763  0.47766  0.70517  1.0000
  C   C2239     1.0  0.53292  0.40904  0.71851  1.0000
  N   N148      1.0  0.62211  0.40671  0.52981  1.0000
  C   C2240     1.0  0.62870  0.38665  0.52423  1.0000
  C   C2241     1.0  0.61609  0.42241  0.51330  1.0000
  C   C2242     1.0  0.63978  0.41163  0.53365  1.0000
  C   C2243     1.0  0.60568  0.40587  0.54718  1.0000
  C   C2244     1.0  0.58033  0.54689  0.61092  1.0000
  H   H2670     1.0  0.51420  0.60808  0.61316  1.0000
  H   H2671     1.0  0.59344  0.54795  0.61548  1.0000
  C   C2245     1.0  0.87582  0.55492  0.73039  1.0000
  C   C2246     1.0  0.56891  0.64761  0.71212  1.0000
  H   H2672     1.0  0.93769  0.54980  0.69201  1.0000
  C   C2247     1.0  0.56782  0.53588  0.72121  1.0000
  C   C2248     1.0  0.56319  0.65052  0.73065  1.0000
  H   H2673     1.0  0.97332  0.58917  0.61299  1.0000
  Fe  Fe298     1.0  0.98040  0.59239  0.68867  1.0000
  C   C2249     1.0  0.59489  0.59405  0.72414  1.0000
  H   H2674     1.0  0.51290  0.60116  0.58350  1.0000
  C   C2250     1.0  0.50849  0.57168  0.61503  1.0000
  H   H2675     1.0  0.93496  0.53016  0.72417  1.0000
  H   H2676     1.0  0.63580  0.37427  0.53482  1.0000
  C   C2251     1.0  0.92023  0.35735  0.59672  1.0000
  C   C2252     1.0  0.54612  0.54373  0.60029  1.0000
  H   H2677     1.0  0.82212  0.42269  0.50410  1.0000
  H   H2678     1.0  0.62274  0.37928  0.56395  1.0000
  C   C2253     1.0  0.94507  0.59399  0.72813  1.0000
  Fe  Fe299     1.0  0.83827  0.36810  0.60595  1.0000
  C   C2254     1.0  0.56353  0.56332  0.61036  1.0000
  H   H2679     1.0  0.62000  0.64575  0.70419  1.0000
  C   C2255     1.0  0.75567  0.37026  0.60131  1.0000
  H   H2680     1.0  0.81561  0.46600  0.66393  1.0000
  C   C2256     1.0  0.57597  0.56676  0.73439  1.0000
  H   H2681     1.0  0.64430  0.65025  0.54168  1.0000
  C   C2257     1.0  0.49630  0.42229  0.72472  1.0000
  H   H2682     1.0  0.87811  0.42223  0.57116  1.0000
  H   H2683     1.0  0.96225  0.62802  0.56956  1.0000
  H   H2684     1.0  0.84792  0.45707  0.71438  1.0000
  C   C2258     1.0  0.84225  0.35167  0.51590  1.0000
  N   N149      1.0  0.91066  0.41859  0.56216  1.0000
  C   C2259     1.0  0.96486  0.60045  0.60264  1.0000
  C   C2260     1.0  0.79346  0.34324  0.60119  1.0000
  H   H2685     1.0  0.50266  0.57540  0.73527  1.0000
  H   H2686     1.0  0.98088  0.61880  0.62108  1.0000
  C   C2261     1.0  0.85506  0.56414  0.73254  1.0000
  H   H2687     1.0  0.52995  0.39329  0.72241  1.0000
  H   H2688     1.0  0.50879  0.43711  0.60947  1.0000
  C   C2262     1.0  0.65654  0.64469  0.57550  1.0000
  C   C2263     1.0  0.97056  0.62855  0.61170  1.0000
  S   S593      1.0  0.55009  0.64498  0.70200  1.0000
  H   H2689     1.0  0.50574  0.43078  0.69393  1.0000
  H   H2690     1.0  0.83094  0.48588  0.67178  1.0000
  H   H2691     1.0  0.89238  0.46352  0.73421  1.0000
  H   H2692     1.0  0.66309  0.65232  0.52018  1.0000
  H   H2693     1.0  0.51392  0.64676  0.68614  1.0000
  H   H2694     1.0  0.52996  0.58997  0.62800  1.0000
  H   H2695     1.0  0.64052  0.38718  0.51075  1.0000
  C   C2264     1.0  0.78436  0.35356  0.61589  1.0000
  H   H2696     1.0  0.64593  0.63081  0.60475  1.0000
  C   C2265     1.0  0.59846  0.64926  0.73039  1.0000
  H   H2697     1.0  0.52450  0.57668  0.57772  1.0000
  C   C2266     1.0  0.52834  0.59585  0.61307  1.0000
  H   H2698     1.0  0.54029  0.59383  0.57642  1.0000
  H   H2699     1.0  0.50973  0.56268  0.62949  1.0000
  C   C2267     1.0  0.50246  0.59127  0.73419  1.0000
  C   C2268     1.0  0.66457  0.65204  0.60189  1.0000
  H   H2700     1.0  0.99030  0.52653  0.70999  1.0000
  H   H2701     1.0  0.96388  0.64929  0.57779  1.0000
  C   C2269     1.0  0.49965  0.65648  0.69267  1.0000
  C   C2270     1.0  0.66766  0.65907  0.56238  1.0000
  H   H2702     1.0  0.99360  0.50755  0.65384  1.0000
  Fe  Fe300     1.0  0.86011  0.55136  0.82200  1.0000
  S   S594      1.0  0.88417  0.56959  0.80665  1.0000
  S   S595      1.0  0.83675  0.56187  0.84650  1.0000
  Fe  Fe301     1.0  0.87623  0.52050  0.79706  1.0000
  S   S596      1.0  0.90178  0.53593  0.77969  1.0000
  S   S597      1.0  0.87543  0.49105  0.79061  1.0000
  Fe  Fe302     1.0  0.90553  0.53910  0.80717  1.0000
  S   S598      1.0  0.93726  0.53514  0.81110  1.0000
  Fe  Fe303     1.0  0.87827  0.56492  0.78063  1.0000
  C   C2271     1.0  0.88484  0.47605  0.75880  1.0000
  S   S599      1.0  0.88196  0.52100  0.82485  1.0000
  S   S600      1.0  0.85205  0.54937  0.79570  1.0000
  C   C2272     1.0  0.75104  0.64695  0.87645  1.0000
  C   C2273     1.0  0.52752  0.54040  0.78061  1.0000
  H   H2703     1.0  0.58603  0.47921  0.87103  1.0000
  S   S601      1.0  0.61242  0.56048  0.79530  1.0000
  Fe  Fe304     1.0  0.60334  0.59295  0.79962  1.0000
  C   C2274     1.0  0.52652  0.62706  0.80883  1.0000
  S   S602      1.0  0.67455  0.33756  0.89431  1.0000
  H   H2704     1.0  0.90721  0.41638  0.83017  1.0000
  H   H2705     1.0  0.72309  0.65119  0.89760  1.0000
  H   H2706     1.0  0.88824  0.43907  0.79589  1.0000
  C   C2275     1.0  0.52599  0.59292  0.80716  1.0000
  H   H2707     1.0  0.85202  0.62797  0.83456  1.0000
  H   H2708     1.0  0.56565  0.60987  0.75137  1.0000
  Fe  Fe305     1.0  0.65312  0.34456  0.87469  1.0000
  S   S603      1.0  0.63819  0.37752  0.86435  1.0000
  H   H2709     1.0  0.54196  0.54364  0.78048  1.0000
  H   H2710     1.0  0.51425  0.40118  0.75509  1.0000
  H   H2711     1.0  0.95653  0.54045  0.77039  1.0000
  C   C2276     1.0  0.65338  0.64945  0.84412  1.0000
  H   H2712     1.0  0.91375  0.57913  0.77046  1.0000
  H   H2713     1.0  0.53265  0.54592  0.75041  1.0000
  Fe  Fe306     1.0  0.56275  0.46593  0.76869  1.0000
  S   S604      1.0  0.54388  0.44189  0.77937  1.0000
  H   H2714     1.0  0.53158  0.41765  0.75100  1.0000
  Fe  Fe307     1.0  0.55182  0.47853  0.80648  1.0000
  S   S605      1.0  0.53207  0.45546  0.82028  1.0000
  S   S606      1.0  0.55034  0.50091  0.82371  1.0000
  Fe  Fe308     1.0  0.55758  0.43419  0.80506  1.0000
  S   S607      1.0  0.56648  0.40129  0.82044  1.0000
  Fe  Fe309     1.0  0.52042  0.46520  0.79361  1.0000
  S   S608      1.0  0.57844  0.45669  0.79312  1.0000
  S   S609      1.0  0.53833  0.48971  0.78105  1.0000
  H   H2715     1.0  0.94915  0.51756  0.77198  1.0000
  C   C2277     1.0  0.57006  0.44632  0.85505  1.0000
  C   C2278     1.0  0.76039  0.64586  0.98407  1.0000
  S   S610      1.0  0.62831  0.61069  0.78850  1.0000
  H   H2716     1.0  0.66865  0.64936  0.80209  1.0000
  C   C2279     1.0  0.49748  0.50275  0.74036  1.0000
  C   C2280     1.0  0.88405  0.47643  0.74039  1.0000
  C   C2281     1.0  0.50931  0.61707  0.74597  1.0000
  S   S611      1.0  0.87067  0.64488  0.90362  1.0000
  C   C2282     1.0  0.65958  0.33863  0.96160  1.0000
  C   C2283     1.0  0.86432  0.61529  0.83949  1.0000
  C   C2284     1.0  0.55968  0.43026  0.86305  1.0000
  C   C2285     1.0  0.53532  0.60618  0.81128  1.0000
  H   H2717     1.0  0.90824  0.62995  0.75533  1.0000
  H   H2718     1.0  0.65742  0.35512  0.95767  1.0000
  C   C2286     1.0  0.97169  0.39627  0.80479  1.0000
  C   C2287     1.0  0.77234  0.64120  0.87300  1.0000
  C   C2288     1.0  0.61925  0.38307  0.85118  1.0000
  C   C2289     1.0  0.61642  0.40185  0.83819  1.0000
  C   C2290     1.0  0.60024  0.40761  0.82876  1.0000
  C   C2291     1.0  0.58675  0.39462  0.83230  1.0000
  C   C2292     1.0  0.58970  0.37571  0.84517  1.0000
  C   C2293     1.0  0.60599  0.36988  0.85452  1.0000
  H   H2719     1.0  0.62664  0.41208  0.83560  1.0000
  H   H2720     1.0  0.59820  0.42208  0.81880  1.0000
  H   H2721     1.0  0.57931  0.36561  0.84795  1.0000
  H   H2722     1.0  0.60796  0.35551  0.86469  1.0000
  C   C2294     1.0  0.78223  0.63619  0.88799  1.0000
  H   H2723     1.0  0.50259  0.65103  0.79888  1.0000
  C   C2295     1.0  0.95365  0.41105  0.80735  1.0000
  S   S612      1.0  0.87929  0.58752  0.89768  1.0000
  C   C2296     1.0  0.90330  0.62849  0.77051  1.0000
  S   S613      1.0  0.58237  0.61616  0.78268  1.0000
  C   C2297     1.0  0.59427  0.54490  0.80252  1.0000
  C   C2298     1.0  0.57632  0.54899  0.81609  1.0000
  C   C2299     1.0  0.56273  0.53556  0.82229  1.0000
  C   C2300     1.0  0.56671  0.51837  0.81452  1.0000
  C   C2301     1.0  0.58420  0.51476  0.80036  1.0000
  C   C2302     1.0  0.59812  0.52782  0.79461  1.0000
  H   H2724     1.0  0.57321  0.56219  0.82218  1.0000
  H   H2725     1.0  0.54914  0.53848  0.83319  1.0000
  H   H2726     1.0  0.58731  0.50163  0.79419  1.0000
  H   H2727     1.0  0.61195  0.52467  0.78402  1.0000
  H   H2728     1.0  0.74484  0.56192  0.88130  1.0000
  C   C2303     1.0  0.84844  0.56667  0.86228  1.0000
  C   C2304     1.0  0.83666  0.57805  0.87568  1.0000
  C   C2305     1.0  0.84592  0.58307  0.88764  1.0000
  C   C2306     1.0  0.86714  0.57742  0.88577  1.0000
  C   C2307     1.0  0.87885  0.56528  0.87291  1.0000
  C   C2308     1.0  0.86953  0.56000  0.86109  1.0000
  H   H2729     1.0  0.82041  0.58347  0.87653  1.0000
  H   H2730     1.0  0.83663  0.59156  0.89815  1.0000
  H   H2731     1.0  0.89523  0.56060  0.87158  1.0000
  H   H2732     1.0  0.87874  0.55106  0.85088  1.0000
  C   C2309     1.0  0.95002  0.50960  0.81250  1.0000
  C   C2310     1.0  0.97139  0.50468  0.80843  1.0000
  C   C2311     1.0  0.61478  0.33158  0.82441  1.0000
  C   C2312     1.0  0.97065  0.46900  0.81272  1.0000
  C   C2313     1.0  0.94931  0.47384  0.81747  1.0000
  C   C2314     1.0  0.93900  0.49418  0.81696  1.0000
  H   H2733     1.0  0.97872  0.48436  0.86888  1.0000
  C   C2315     1.0  0.98173  0.48441  0.80821  1.0000
  H   H2734     1.0  0.94072  0.46194  0.82125  1.0000
  H   H2735     1.0  0.92252  0.49785  0.82023  1.0000
  C   C2316     1.0  0.66741  0.64021  0.76808  1.0000
  H   H2736     1.0  0.87967  0.63757  0.85260  1.0000
  C   C2317     1.0  0.52229  0.54166  0.76374  1.0000
  S   S614      1.0  0.78294  0.63317  0.92468  1.0000
  C   C2318     1.0  0.87435  0.49259  0.76719  1.0000
  H   H2737     1.0  0.51879  0.53450  0.81052  1.0000
  H   H2738     1.0  0.91554  0.60612  0.83563  1.0000
  H   H2739     1.0  0.89694  0.41181  0.80172  1.0000
  H   H2740     1.0  0.79573  0.61857  0.98411  1.0000
  H   H2741     1.0  0.85449  0.52240  0.76345  1.0000
  N   N150      1.0  0.60045  0.46210  0.84933  1.0000
  H   H2742     1.0  0.57332  0.65338  0.75414  1.0000
  S   S615      1.0  0.53787  0.64345  0.81457  1.0000
  H   H2743     1.0  0.53274  0.57673  0.80921  1.0000
  C   C2319     1.0  0.95521  0.53051  0.76162  1.0000
  H   H2744     1.0  0.49573  0.49389  0.82098  1.0000
  H   H2745     1.0  0.56013  0.40023  0.88099  1.0000
  C   C2320     1.0  0.89984  0.60316  0.83987  1.0000
  H   H2746     1.0  0.54915  0.60018  0.81665  1.0000
  C   C2321     1.0  0.88469  0.63913  0.83698  1.0000
  H   H2747     1.0  0.54541  0.43106  0.85941  1.0000
  H   H2748     1.0  0.57300  0.48575  0.85214  1.0000
  H   H2749     1.0  0.50496  0.50836  0.83194  1.0000
  C   C2322     1.0  0.74951  0.64210  0.90980  1.0000
  H   H2750     1.0  0.74456  0.32963  0.91522  1.0000
  H   H2751     1.0  0.56302  0.45943  0.84566  1.0000
  H   H2752     1.0  0.79456  0.56419  0.84802  1.0000
  Fe  Fe310     1.0  0.61411  0.62600  0.81300  1.0000
  H   H2753     1.0  0.62000  0.45618  0.86888  1.0000
  H   H2754     1.0  0.61243  0.47768  0.82090  1.0000
  H   H2755     1.0  0.75698  0.65005  0.95519  1.0000
  Fe  Fe311     1.0  0.81507  0.63752  0.91396  1.0000
  H   H2756     1.0  0.58894  0.34896  0.81112  1.0000
  C   C2323     1.0  0.87492  0.63385  0.96370  1.0000
  H   H2757     1.0  0.58869  0.47109  0.82383  1.0000
  S   S616      1.0  0.87873  0.58892  0.75387  1.0000
  C   C2324     1.0  0.93876  0.58673  0.74758  1.0000
  H   H2758     1.0  0.76135  0.61185  0.86182  1.0000
  C   C2325     1.0  0.77083  0.63718  0.90627  1.0000
  H   H2759     1.0  0.94959  0.58256  0.75661  1.0000
  H   H2760     1.0  0.92093  0.62894  0.80788  1.0000
  S   S617      1.0  0.61707  0.64828  0.74257  1.0000
  S   S618      1.0  0.98323  0.44371  0.81218  1.0000
  H   H2761     1.0  0.86259  0.61893  0.80554  1.0000
  H   H2762     1.0  0.87398  0.62316  0.77162  1.0000
  H   H2763     1.0  0.58185  0.56850  0.76940  1.0000
  H   H2764     1.0  0.87400  0.65254  0.83044  1.0000
  H   H2765     1.0  0.65779  0.35080  0.81649  1.0000
  H   H2766     1.0  0.74065  0.64275  0.92397  1.0000
  C   C2326     1.0  0.91847  0.58476  0.75542  1.0000
  C   C2327     1.0  0.93935  0.39666  0.78937  1.0000
  H   H2767     1.0  0.95363  0.46972  0.73966  1.0000
  H   H2768     1.0  0.66394  0.63504  0.84732  1.0000
  C   C2328     1.0  0.50871  0.63476  0.80176  1.0000
  H   H2769     1.0  0.76073  0.60142  0.89455  1.0000
  H   H2770     1.0  0.51592  0.58493  0.75819  1.0000
  C   C2329     1.0  0.85658  0.64700  0.96982  1.0000
  H   H2771     1.0  0.87907  0.63164  0.94937  1.0000
  H   H2772     1.0  0.98317  0.55233  0.74766  1.0000
  N   N151      1.0  0.91890  0.42898  0.80090  1.0000
  C   C2330     1.0  0.91068  0.43105  0.82082  1.0000
  C   C2331     1.0  0.92510  0.44828  0.78941  1.0000
  C   C2332     1.0  0.90189  0.42640  0.79400  1.0000
  C   C2333     1.0  0.93697  0.41189  0.79956  1.0000
  H   H2773     1.0  0.95920  0.37090  0.77851  1.0000
  C   C2334     1.0  0.62101  0.45794  0.85355  1.0000
  H   H2774     1.0  0.60610  0.56342  0.75285  1.0000
  H   H2775     1.0  0.84658  0.56814  0.74588  1.0000
  Fe  Fe312     1.0  0.84493  0.64913  0.92890  1.0000
  S   S619      1.0  0.83659  0.61914  0.93246  1.0000
  H   H2776     1.0  0.89636  0.44307  0.82230  1.0000
  H   H2777     1.0  0.98396  0.49754  0.77035  1.0000
  H   H2778     1.0  0.93824  0.45104  0.79336  1.0000
  H   H2779     1.0  0.91241  0.46180  0.79110  1.0000
  H   H2780     1.0  0.92972  0.44805  0.77410  1.0000
  C   C2335     1.0  0.49911  0.62144  0.79801  1.0000
  H   H2781     1.0  0.77829  0.58482  0.83582  1.0000
  H   H2782     1.0  0.90054  0.58870  0.83580  1.0000
  H   H2783     1.0  0.79467  0.58986  0.84802  1.0000
  C   C2336     1.0  0.91640  0.63002  0.78085  1.0000
  H   H2784     1.0  0.68386  0.63530  0.76164  1.0000
  H   H2785     1.0  0.94352  0.53949  0.75332  1.0000
  N   N152      1.0  0.88486  0.62029  0.83128  1.0000
  H   H2786     1.0  0.95713  0.49030  0.75976  1.0000
  Fe  Fe313     1.0  0.85948  0.61675  0.90524  1.0000
  C   C2337     1.0  0.89073  0.62340  0.81041  1.0000
  S   S620      1.0  0.59072  0.60605  0.82567  1.0000
  H   H2787     1.0  0.92140  0.43579  0.82647  1.0000
  H   H2788     1.0  0.63094  0.44385  0.84905  1.0000
  Fe  Fe314     1.0  0.57164  0.63091  0.80756  1.0000
  C   C2338     1.0  0.56790  0.41291  0.87526  1.0000
  H   H2789     1.0  0.59599  0.49433  0.84834  1.0000
  H   H2790     1.0  0.61169  0.42502  0.87514  1.0000
  H   H2791     1.0  0.49983  0.53833  0.75089  1.0000
  H   H2792     1.0  0.80355  0.56110  0.92600  1.0000
  S   S621      1.0  0.73859  0.65571  0.85778  1.0000
  H   H2793     1.0  0.61143  0.45138  0.82341  1.0000
  H   H2794     1.0  0.78117  0.64107  0.85875  1.0000
  H   H2795     1.0  0.90630  0.42664  0.77856  1.0000
  C   C2339     1.0  0.75013  0.64624  0.97005  1.0000
  C   C2340     1.0  0.58839  0.48113  0.85549  1.0000
  H   H2796     1.0  0.89388  0.46295  0.76638  1.0000
  H   H2797     1.0  0.59310  0.39785  0.88876  1.0000
  C   C2341     1.0  0.58642  0.41165  0.87968  1.0000
  Fe  Fe315     1.0  0.60633  0.63484  0.77342  1.0000
  C   C2342     1.0  0.79606  0.63255  0.97257  1.0000
  H   H2798     1.0  0.79756  0.54560  0.87713  1.0000
  H   H2799     1.0  0.91081  0.52562  0.73876  1.0000
  N   N153      1.0  0.97509  0.52384  0.74902  1.0000
  H   H2800     1.0  0.76722  0.54765  0.86840  1.0000
  H   H2801     1.0  0.90002  0.64302  0.83289  1.0000
  H   H2802     1.0  0.90321  0.61524  0.97086  1.0000
  C   C2343     1.0  0.61274  0.36521  0.80247  1.0000
  C   C2344     1.0  0.64292  0.34994  0.81519  1.0000
  C   C2345     1.0  0.63194  0.36617  0.80400  1.0000
  H   H2803     1.0  0.89575  0.60032  0.85560  1.0000
  H   H2804     1.0  0.81337  0.53767  0.90408  1.0000
  C   C2346     1.0  0.99368  0.42202  0.75178  1.0000
  H   H2805     1.0  0.74949  0.56626  0.85595  1.0000
  H   H2806     1.0  0.77721  0.59274  0.92090  1.0000
  H   H2807     1.0  0.97992  0.51664  0.80494  1.0000
  C   C2347     1.0  0.73961  0.64701  0.89487  1.0000
  C   C2348     1.0  0.87764  0.62220  0.79937  1.0000
  H   H2808     1.0  0.79280  0.62908  0.96027  1.0000
  H   H2809     1.0  0.58522  0.54081  0.75693  1.0000
  H   H2810     1.0  0.95325  0.42237  0.81482  1.0000
  H   H2811     1.0  0.60401  0.37812  0.79411  1.0000
  C   C2349     1.0  0.88851  0.62452  0.97586  1.0000
  H   H2812     1.0  0.63816  0.37969  0.79674  1.0000
  C   C2350     1.0  0.91022  0.62765  0.80048  1.0000
  S   S622      1.0  0.63708  0.62860  0.82808  1.0000
  H   H2813     1.0  0.93151  0.63280  0.77359  1.0000
  H   H2814     1.0  0.72328  0.64218  0.96379  1.0000
  H   H2815     1.0  0.74046  0.59990  0.87635  1.0000
  C   C2351     1.0  0.59707  0.42752  0.87159  1.0000
  C   C2352     1.0  0.97275  0.42364  0.75378  1.0000
  C   C2353     1.0  0.60339  0.46566  0.82851  1.0000
  C   C2354     1.0  0.63462  0.33278  0.82508  1.0000
  C   C2355     1.0  0.88397  0.62467  0.77974  1.0000
  C   C2356     1.0  0.58931  0.44528  0.85874  1.0000
  C   C2357     1.0  0.86282  0.50961  0.75700  1.0000
  C   C2358     1.0  0.97362  0.38172  0.79456  1.0000
  N   N154      1.0  0.58124  0.58302  0.74023  1.0000
  C   C2359     1.0  0.60416  0.34824  0.81251  1.0000
  C   C2360     1.0  0.51656  0.41709  0.74875  1.0000
  C   C2361     1.0  0.96291  0.49470  0.74470  1.0000
  H   H2816     1.0  0.72160  0.33360  0.90678  1.0000
  S   S623      1.0  0.83716  0.63307  0.88687  1.0000
  C   C2362     1.0  0.73083  0.64143  0.97486  1.0000
  N   N155      1.0  0.76818  0.57904  0.86631  1.0000
  C   C2363     1.0  0.75360  0.59909  0.86398  1.0000
  C   C2364     1.0  0.78456  0.57949  0.84883  1.0000
  C   C2365     1.0  0.75696  0.56301  0.86806  1.0000
  C   C2366     1.0  0.77736  0.57426  0.88298  1.0000
  C   C2367     1.0  0.79232  0.55604  0.88659  1.0000
  C   C2368     1.0  0.77191  0.58724  0.89602  1.0000
  C   C2369     1.0  0.80146  0.55130  0.90204  1.0000
  C   C2370     1.0  0.78124  0.58238  0.91138  1.0000
  C   C2371     1.0  0.79602  0.56452  0.91434  1.0000
  H   H2817     1.0  0.74691  0.60230  0.85139  1.0000
  H   H2818     1.0  0.62910  0.47071  0.84599  1.0000
  H   H2819     1.0  0.92788  0.39637  0.78234  1.0000
  H   H2820     1.0  0.55141  0.59005  0.75804  1.0000
  C   C2372     1.0  0.95744  0.38185  0.78697  1.0000
  C   C2373     1.0  0.51411  0.53500  0.79785  1.0000
  C   C2374     1.0  0.63796  0.65070  0.83492  1.0000
  H   H2821     1.0  0.79862  0.63166  0.88536  1.0000
  H   H2822     1.0  0.49721  0.43451  0.79268  1.0000
  N   N156      1.0  0.78112  0.65041  0.97865  1.0000
  S   S624      1.0  0.59394  0.65181  0.79689  1.0000
  C   C2375     1.0  0.50773  0.60051  0.80084  1.0000
  H   H2823     1.0  0.96227  0.42794  0.76616  1.0000
  H   H2824     1.0  0.65829  0.63484  0.76104  1.0000
  H   H2825     1.0  0.86062  0.61257  0.85519  1.0000
  H   H2826     1.0  0.98341  0.49180  0.84392  1.0000
  C   C2376     1.0  0.90422  0.59085  0.74393  1.0000
  H   H2827     1.0  0.50365  0.49097  0.75140  1.0000
  H   H2828     1.0  0.86343  0.60100  0.83607  1.0000
  C   C2377     1.0  0.66313  0.32818  0.97953  1.0000
  H   H2829     1.0  0.65549  0.33602  0.93510  1.0000
  S   S625      1.0  0.93914  0.42270  0.74223  1.0000
  H   H2830     1.0  0.66462  0.63169  0.78308  1.0000
  C   C2378     1.0  0.86164  0.50979  0.73859  1.0000
  H   H2831     1.0  0.81196  0.63519  0.96831  1.0000
  C   C2379     1.0  0.59194  0.57512  0.75614  1.0000
  S   S626      1.0  0.67634  0.32856  0.85338  1.0000
  H   H2832     1.0  0.59696  0.58738  0.75944  1.0000
  C   C2380     1.0  0.50372  0.53743  0.76405  1.0000
  H   H2833     1.0  0.57434  0.32924  0.83994  1.0000
  C   C2381     1.0  0.65858  0.32782  0.94878  1.0000
  H   H2834     1.0  0.50480  0.42765  0.75691  1.0000
  H   H2835     1.0  0.88223  0.55196  0.74261  1.0000
  H   H2836     1.0  0.51489  0.62119  0.75622  1.0000
  C   C2382     1.0  0.50991  0.59661  0.74710  1.0000
  C   C2383     1.0  0.56232  0.59780  0.74625  1.0000
  H   H2837     1.0  0.58236  0.43364  0.74377  1.0000
  H   H2838     1.0  0.99072  0.44934  0.86406  1.0000
  C   C2384     1.0  0.57792  0.65120  0.73980  1.0000
  C   C2385     1.0  0.57932  0.54591  0.74421  1.0000
  S   S627      1.0  0.49602  0.58353  0.79652  1.0000
  C   C2386     1.0  0.96551  0.42003  0.73970  1.0000
  H   H2839     1.0  0.98784  0.37064  0.79213  1.0000
  H   H2840     1.0  0.99417  0.50302  0.85700  1.0000
  H   H2841     1.0  0.57848  0.51491  0.74502  1.0000
  C   C2387     1.0  0.99070  0.48863  0.85613  1.0000
  H   H2842     1.0  0.54735  0.65186  0.73813  1.0000
  C   C2388     1.0  0.57540  0.53078  0.73755  1.0000
  H   H2843     1.0  0.99287  0.51978  0.76963  1.0000
  C   C2389     1.0  0.98289  0.54260  0.73825  1.0000
  H   H2844     1.0  0.98445  0.39656  0.81030  1.0000
  S   S628      1.0  0.57492  0.47761  0.73787  1.0000
  C   C2390     1.0  0.98967  0.51107  0.76078  1.0000
  H   H2845     1.0  0.70203  0.32631  0.93978  1.0000
  H   H2846     1.0  0.91827  0.89182  0.20121  1.0000
  C   C2391     1.0  0.89070  0.78126  0.09317  1.0000
  C   C2392     1.0  0.95886  0.98635  0.10605  1.0000
  Fe  Fe316     1.0  0.90031  0.69042  0.01522  1.0000
  H   H2847     1.0  0.84273  0.71975  0.03511  1.0000
  S   S629      1.0  0.90484  0.71909  0.99340  1.0000
  H   H2848     1.0  0.93866  0.97056  0.16995  1.0000
  H   H2849     1.0  0.95714  0.92929  0.20956  1.0000
  S   S630      1.0  0.89367  0.66283  0.22503  1.0000
  H   H2850     1.0  0.66205  0.68014  0.03361  1.0000
  C   C2393     1.0  0.92299  0.82608  0.09226  1.0000
  C   C2394     1.0  0.98669  0.97814  0.21137  1.0000
  Fe  Fe317     1.0  0.74440  0.67986  0.03892  1.0000
  S   S631      1.0  0.72506  0.69887  0.05983  1.0000
  H   H2851     1.0  0.69983  0.68519  0.13086  1.0000
  Fe  Fe318     1.0  0.72536  0.70616  0.00652  1.0000
  S   S632      1.0  0.70420  0.72726  0.02458  1.0000
  S   S633      1.0  0.87480  0.67607  0.01621  1.0000
  Fe  Fe319     1.0  0.73143  0.72571  0.03590  1.0000
  S   S634      1.0  0.73837  0.75630  0.03428  1.0000
  Fe  Fe320     1.0  0.69969  0.69863  0.04678  1.0000
  H   H2852     1.0  0.92257  0.94990  0.21995  1.0000
  S   S635      1.0  0.75282  0.70651  0.01629  1.0000
  Fe  Fe321     1.0  0.92336  0.67795  0.15480  1.0000
  Fe  Fe322     1.0  0.86553  0.79736  0.04722  1.0000
  S   S636      1.0  0.84287  0.79863  0.07463  1.0000
  S   S637      1.0  0.89591  0.77600  0.04782  1.0000
  Fe  Fe323     1.0  0.83635  0.82672  0.02401  1.0000
  S   S638      1.0  0.81094  0.83051  0.04961  1.0000
  H   H2853     1.0  0.94051  0.89896  0.21800  1.0000
  Fe  Fe324     1.0  0.83573  0.83247  0.06293  1.0000
  S   S639      1.0  0.83160  0.85702  0.07927  1.0000
  Fe  Fe325     1.0  0.82049  0.79630  0.05907  1.0000
  S   S640      1.0  0.80302  0.77070  0.07213  1.0000
  S   S641      1.0  0.86029  0.83125  0.03645  1.0000
  S   S642      1.0  0.84394  0.79254  0.03255  1.0000
  Fe  Fe326     1.0  0.89089  0.89978  0.17664  1.0000
  S   S643      1.0  0.91126  0.87304  0.16516  1.0000
  S   S644      1.0  0.87444  0.89859  0.20718  1.0000
  Fe  Fe327     1.0  0.93288  0.89405  0.15003  1.0000
  S   S645      1.0  0.96661  0.88368  0.14942  1.0000
  Fe  Fe328     1.0  0.89639  0.88570  0.14003  1.0000
  S   S646      1.0  0.88946  0.85997  0.13078  1.0000
  H   H2854     1.0  0.98343  0.96004  0.10883  1.0000
  C   C2395     1.0  0.84807  0.75772  0.99614  1.0000
  Fe  Fe329     1.0  0.89907  0.92927  0.13894  1.0000
  N   N157      1.0  0.94647  0.96091  0.19738  1.0000
  H   H2855     1.0  0.96083  0.66418  0.20461  1.0000
  H   H2856     1.0  0.52488  0.95576  0.19091  1.0000
  H   H2857     1.0  0.97339  0.87302  0.22061  1.0000
  H   H2858     1.0  0.70441  0.68330  0.98839  1.0000
  C   C2396     1.0  0.66106  0.67235  0.07513  1.0000
  C   C2397     1.0  0.97810  0.90365  0.14851  1.0000
  C   C2398     1.0  0.94744  0.97454  0.17828  1.0000
  C   C2399     1.0  0.51439  0.96776  0.19823  1.0000
  C   C2400     1.0  0.85480  0.75407  0.13360  1.0000
  C   C2401     1.0  0.97537  0.93934  0.14772  1.0000
  C   C2402     1.0  0.96686  0.92375  0.14660  1.0000
  H   H2859     1.0  0.67333  0.73174  0.00157  1.0000
  H   H2860     1.0  0.96641  0.95475  0.14645  1.0000
  H   H2861     1.0  0.95162  0.92735  0.14417  1.0000
  C   C2403     1.0  0.84893  0.85786  0.09238  1.0000
  C   C2404     1.0  0.86143  0.84008  0.10046  1.0000
  C   C2405     1.0  0.87365  0.84108  0.11217  1.0000
  C   C2406     1.0  0.87405  0.85990  0.11550  1.0000
  C   C2407     1.0  0.86174  0.87774  0.10724  1.0000
  C   C2408     1.0  0.84908  0.87666  0.09593  1.0000
  H   H2862     1.0  0.86123  0.82550  0.09809  1.0000
  H   H2863     1.0  0.88279  0.82716  0.11879  1.0000
  H   H2864     1.0  0.86179  0.89232  0.10973  1.0000
  H   H2865     1.0  0.83935  0.89049  0.08986  1.0000
  S   S647      1.0  0.90038  0.65961  0.17316  1.0000
  C   C2409     1.0  0.75733  0.75943  0.04418  1.0000
  C   C2410     1.0  0.76578  0.74398  0.05791  1.0000
  C   C2411     1.0  0.77977  0.74763  0.06639  1.0000
  C   C2412     1.0  0.78577  0.76656  0.06088  1.0000
  C   C2413     1.0  0.77788  0.78174  0.04667  1.0000
  C   C2414     1.0  0.76356  0.77825  0.03850  1.0000
  H   H2866     1.0  0.76111  0.72943  0.06238  1.0000
  H   H2867     1.0  0.78590  0.73576  0.07730  1.0000
  H   H2868     1.0  0.78237  0.79638  0.04235  1.0000
  H   H2869     1.0  0.75703  0.79036  0.02799  1.0000
  C   C2415     1.0  0.84207  0.76296  0.12084  1.0000
  H   H2870     1.0  0.81015  0.74247  0.03258  1.0000
  C   C2416     1.0  0.91790  0.79074  0.10103  1.0000
  H   H2871     1.0  0.62695  0.73122  0.02441  1.0000
  C   C2417     1.0  0.85062  0.72977  0.02268  1.0000
  H   H2872     1.0  0.92774  0.74817  0.11415  1.0000
  H   H2873     1.0  0.88052  0.70060  0.09242  1.0000
  S   S648      1.0  0.91989  0.90483  0.12401  1.0000
  C   C2418     1.0  0.91209  0.75520  0.11156  1.0000
  H   H2874     1.0  0.62658  0.68526  0.03183  1.0000
  H   H2875     1.0  0.67427  0.69079  0.10332  1.0000
  H   H2876     1.0  0.92527  0.78151  0.06651  1.0000
  H   H2877     1.0  0.86213  0.69195  0.08577  1.0000
  H   H2878     1.0  0.94990  0.93363  0.18740  1.0000
  N   N158      1.0  0.68682  0.66457  0.12309  1.0000
  C   C2419     1.0  0.89556  0.97693  0.14134  1.0000
  H   H2879     1.0  0.61665  0.70440  0.01327  1.0000
  H   H2880     1.0  0.83054  0.75953  0.09880  1.0000
  H   H2881     1.0  0.91336  0.81286  0.07481  1.0000
  H   H2882     1.0  0.94208  0.76383  0.08077  1.0000
  H   H2883     1.0  0.88526  0.76892  0.09036  1.0000
  H   H2884     1.0  0.87633  0.72732  0.14368  1.0000
  C   C2420     1.0  0.91780  0.80999  0.08812  1.0000
  H   H2885     1.0  0.58771  0.96325  0.16747  1.0000
  C   C2421     1.0  0.64267  0.67146  0.08871  1.0000
  C   C2422     1.0  0.78315  0.67867  0.05689  1.0000
  H   H2886     1.0  0.82003  0.70858  0.02700  1.0000
  H   H2887     1.0  0.79343  0.69879  0.06777  1.0000
  C   C2423     1.0  0.92906  0.80476  0.12218  1.0000
  H   H2888     1.0  0.76745  0.68675  0.05947  1.0000
  C   C2424     1.0  0.89023  0.90361  0.21936  1.0000
  C   C2425     1.0  0.90636  0.73612  0.00604  1.0000
  C   C2426     1.0  0.89698  0.75679  0.00158  1.0000
  C   C2427     1.0  0.89432  0.76938  0.01412  1.0000
  C   C2428     1.0  0.90156  0.76139  0.03081  1.0000
  C   C2429     1.0  0.91241  0.74118  0.03446  1.0000
  C   C2430     1.0  0.91476  0.72855  0.02208  1.0000
  H   H2889     1.0  0.89112  0.76291  0.98885  1.0000
  H   H2890     1.0  0.88658  0.78524  0.01093  1.0000
  H   H2891     1.0  0.91831  0.73503  0.04720  1.0000
  H   H2892     1.0  0.92278  0.71278  0.02516  1.0000
  S   S649      1.0  0.91376  0.91965  0.16378  1.0000
  S   S650      1.0  0.56855  0.96393  0.20605  1.0000
  N   N159      1.0  0.83695  0.74234  0.00982  1.0000
  H   H2893     1.0  0.76704  0.76199  0.99939  1.0000
  H   H2894     1.0  0.80959  0.81210  0.00587  1.0000
  C   C2431     1.0  0.81836  0.75324  0.02108  1.0000
  H   H2895     1.0  0.67791  0.69722  0.01865  1.0000
  H   H2896     1.0  0.52408  0.97682  0.20051  1.0000
  C   C2432     1.0  0.86646  0.73434  0.13369  1.0000
  C   C2433     1.0  0.92597  0.76861  0.07907  1.0000
  C   C2434     1.0  0.92573  0.68626  0.07957  1.0000
  C   C2435     1.0  0.94676  0.97217  0.22677  1.0000
  H   H2897     1.0  0.63595  0.68207  0.00814  1.0000
  C   C2436     1.0  0.92393  0.78851  0.11818  1.0000
  H   H2898     1.0  0.85679  0.73941  0.02846  1.0000
  H   H2899     1.0  0.92469  0.77443  0.12879  1.0000
  S   S651      1.0  0.83652  0.68473  0.06341  1.0000
  H   H2900     1.0  0.86229  0.75019  0.98741  1.0000
  Fe  Fe330     1.0  0.54716  0.97048  0.23306  1.0000
  C   C2437     1.0  0.97696  0.97090  0.20139  1.0000
  C   C2438     1.0  0.63971  0.71846  0.02829  1.0000
  H   H2901     1.0  0.66421  0.69170  0.12787  1.0000
  H   H2902     1.0  0.80038  0.79185  0.98825  1.0000
  H   H2903     1.0  0.94101  0.99080  0.17922  1.0000
  H   H2904     1.0  0.51751  0.97923  0.15922  1.0000
  H   H2905     1.0  0.63423  0.70983  0.04288  1.0000
  H   H2906     1.0  0.80737  0.76258  0.01217  1.0000
  S   S652      1.0  0.93435  0.68048  0.17919  1.0000
  Fe  Fe331     1.0  0.86784  0.67372  0.04736  1.0000
  H   H2907     1.0  0.92219  0.75580  0.07539  1.0000
  C   C2439     1.0  0.91820  0.68891  0.11235  1.0000
  H   H2908     1.0  0.85262  0.76723  0.00337  1.0000
  H   H2909     1.0  0.73234  0.76197  0.99692  1.0000
  C   C2440     1.0  0.92458  0.96056  0.20594  1.0000
  C   C2441     1.0  0.92850  0.82351  0.10930  1.0000
  H   H2910     1.0  0.98555  0.96759  0.18789  1.0000
  S   S653      1.0  0.66787  0.69631  0.06443  1.0000
  H   H2911     1.0  0.88187  0.95698  0.16620  1.0000
  C   C2442     1.0  0.66544  0.68980  0.01911  1.0000
  C   C2443     1.0  0.83089  0.72923  0.00068  1.0000
  H   H2912     1.0  0.67153  0.67948  0.00900  1.0000
  H   H2913     1.0  0.83687  0.65951  0.99331  1.0000
  H   H2914     1.0  0.90154  0.75805  0.12507  1.0000
  S   S654      1.0  0.91639  0.70242  0.12947  1.0000
  C   C2444     1.0  0.88845  0.97046  0.16079  1.0000
  C   C2445     1.0  0.95653  0.96808  0.20857  1.0000
  C   C2446     1.0  0.84089  0.75211  0.10823  1.0000
  N   N160      1.0  0.91181  0.77416  0.09645  1.0000
  H   H2915     1.0  0.92293  0.71406  0.08849  1.0000
  N   N161      1.0  0.85075  0.72080  0.09454  1.0000
  C   C2447     1.0  0.86405  0.69999  0.09586  1.0000
  C   C2448     1.0  0.82929  0.71847  0.09845  1.0000
  C   C2449     1.0  0.85634  0.73244  0.07482  1.0000
  C   C2450     1.0  0.85262  0.73202  0.10786  1.0000
  N   N162      1.0  0.64708  0.70505  0.01444  1.0000
  H   H2916     1.0  0.87212  0.73526  0.07153  1.0000
  H   H2917     1.0  0.86031  0.69007  0.11017  1.0000
  C   C2451     1.0  0.92204  0.69809  0.09304  1.0000
  S   S655      1.0  0.83525  0.84183  0.99354  1.0000
  H   H2918     1.0  0.82725  0.70979  0.08897  1.0000
  H   H2919     1.0  0.81838  0.73339  0.09620  1.0000
  H   H2920     1.0  0.82436  0.71021  0.11327  1.0000
  H   H2921     1.0  0.86394  0.71997  0.01513  1.0000
  H   H2922     1.0  0.85557  0.76241  0.14350  1.0000
  H   H2923     1.0  0.83291  0.77831  0.12076  1.0000
  C   C2452     1.0  0.92413  0.90274  0.22290  1.0000
  C   C2453     1.0  0.91149  0.89882  0.21327  1.0000
  C   C2454     1.0  0.86552  0.72343  0.12101  1.0000
  C   C2455     1.0  0.99212  0.98725  0.10961  1.0000
  N   N163      1.0  0.84015  0.86608  0.18770  1.0000
  C   C2456     1.0  0.86267  0.86104  0.18105  1.0000
  C   C2457     1.0  0.83304  0.88864  0.18324  1.0000
  C   C2458     1.0  0.83559  0.85910  0.20861  1.0000
  C   C2459     1.0  0.83041  0.85669  0.17800  1.0000
  C   C2460     1.0  0.81733  0.84274  0.18787  1.0000
  C   C2461     1.0  0.83390  0.86149  0.15796  1.0000
  C   C2462     1.0  0.80840  0.83424  0.17814  1.0000
  C   C2463     1.0  0.82489  0.85293  0.14841  1.0000
  C   C2464     1.0  0.81218  0.83933  0.15846  1.0000
  H   H2924     1.0  0.86768  0.86810  0.16592  1.0000
  H   H2925     1.0  0.87066  0.86669  0.18891  1.0000
  H   H2926     1.0  0.86856  0.84424  0.18266  1.0000
  H   H2927     1.0  0.83680  0.89529  0.16783  1.0000
  H   H2928     1.0  0.84034  0.89630  0.19005  1.0000
  H   H2929     1.0  0.81617  0.89310  0.18808  1.0000
  H   H2930     1.0  0.81893  0.86314  0.21477  1.0000
  H   H2931     1.0  0.84118  0.84229  0.21298  1.0000
  H   H2932     1.0  0.84332  0.86652  0.21526  1.0000
  H   H2933     1.0  0.81380  0.83809  0.20308  1.0000
  H   H2934     1.0  0.84380  0.87184  0.14944  1.0000
  H   H2935     1.0  0.79852  0.82360  0.18588  1.0000
  H   H2936     1.0  0.82788  0.85680  0.13307  1.0000
  H   H2937     1.0  0.80529  0.83274  0.15091  1.0000
  C   C2465     1.0  0.88943  0.98162  0.17331  1.0000
  C   C2466     1.0  0.63082  0.69377  0.01693  1.0000
  H   H2938     1.0  0.93150  0.96983  0.23372  1.0000
  C   C2467     1.0  0.95720  0.93985  0.19544  1.0000
  H   H2939     1.0  0.90709  0.74326  0.10769  1.0000
  H   H2940     1.0  0.84580  0.74755  0.07200  1.0000
  H   H2941     1.0  0.87500  0.70824  0.12191  1.0000
  H   H2942     1.0  0.85571  0.72404  0.06445  1.0000
  H   H2943     1.0  0.65196  0.72521  0.02951  1.0000
  H   H2944     1.0  0.82202  0.76363  0.02800  1.0000
  H   H2945     1.0  0.96328  0.97371  0.16968  1.0000
  C   C2468     1.0  0.65255  0.71736  0.99503  1.0000
  C   C2469     1.0  0.97861  0.97639  0.10810  1.0000
  H   H2946     1.0  0.88377  0.97656  0.18832  1.0000
  S   S656      1.0  0.89135  0.69070  0.04607  1.0000
  C   C2470     1.0  0.92590  0.66526  0.08550  1.0000
  S   S657      1.0  0.89453  0.96300  0.12552  1.0000
  H   H2947     1.0  0.88951  0.79411  0.08064  1.0000
  C   C2471     1.0  0.79787  0.68547  0.06164  1.0000
  H   H2948     1.0  0.58496  0.98903  0.13761  1.0000
  C   C2472     1.0  0.81607  0.81334  0.99090  1.0000
  H   H2949     1.0  0.87977  0.78658  0.10557  1.0000
  S   S658      1.0  0.87432  0.91127  0.15279  1.0000
  H   H2950     1.0  0.63275  0.68543  0.09222  1.0000
  H   H2951     1.0  0.93327  0.80295  0.13545  1.0000
  H   H2952     1.0  0.97339  0.93912  0.18777  1.0000
  H   H2953     1.0  0.91754  0.95515  0.19712  1.0000
  S   S659      1.0  0.71868  0.67762  0.02758  1.0000
  C   C2473     1.0  0.81622  0.69977  0.00356  1.0000
  C   C2474     1.0  0.66971  0.68135  0.11776  1.0000
  H   H2954     1.0  0.92937  0.69314  0.06464  1.0000
  H   H2955     1.0  0.91300  0.66128  0.13288  1.0000
  C   C2475     1.0  0.57770  0.97809  0.16785  1.0000
  C   C2476     1.0  0.82228  0.71225  0.01179  1.0000
  H   H2956     1.0  0.92218  0.84085  0.08247  1.0000
  C   C2477     1.0  0.56629  0.98262  0.18517  1.0000
  H   H2957     1.0  0.93194  0.83624  0.11270  1.0000
  H   H2958     1.0  0.91554  0.97603  0.20750  1.0000
  H   H2959     1.0  0.80988  0.68676  0.01245  1.0000
  C   C2478     1.0  0.81833  0.67530  0.05817  1.0000
  H   H2960     1.0  0.74357  0.79019  0.00073  1.0000
  H   H2961     1.0  0.73079  0.82690  0.99732  1.0000
  H   H2962     1.0  0.70934  0.68265  0.10697  1.0000
  C   C2479     1.0  0.91690  0.66831  0.11807  1.0000
  H   H2963     1.0  0.77582  0.66701  0.00044  1.0000
  C   C2480     1.0  0.97651  0.98250  0.22894  1.0000
  C   C2481     1.0  0.70417  0.67399  0.12163  1.0000
  H   H2964     1.0  0.50688  0.96004  0.21249  1.0000
  H   H2965     1.0  0.94831  0.97775  0.10526  1.0000
  H   H2966     1.0  0.65638  0.67551  0.11768  1.0000
  H   H2967     1.0  0.60351  0.66431  0.21028  1.0000
  C   C2482     1.0  0.98228  0.88369  0.22058  1.0000
  C   C2483     1.0  0.88168  0.91246  0.23518  1.0000
  C   C2484     1.0  0.97816  0.66405  0.22419  1.0000
  H   H2968     1.0  0.96495  0.67092  0.23358  1.0000
  C   C2485     1.0  0.66641  0.73055  0.99086  1.0000
  S   S660      1.0  0.92339  0.66098  0.01846  1.0000
  C   C2486     1.0  0.78873  0.66132  0.04920  1.0000
  H   H2969     1.0  0.99375  0.88906  0.19048  1.0000
  C   C2487     1.0  0.99374  0.89273  0.20356  1.0000
  N   N164      1.0  0.49901  0.98077  0.18732  1.0000
  Fe  Fe332     1.0  0.91212  0.65993  0.04944  1.0000
  H   H2970     1.0  0.49729  0.95624  0.17565  1.0000
  H   H2971     1.0  0.50107  0.99213  0.12718  1.0000
  C   C2488     1.0  0.50976  0.99046  0.16834  1.0000
  C   C2489     1.0  0.57617  0.99268  0.15097  1.0000
  H   H2972     1.0  0.60100  0.99266  0.20284  1.0000
  H   H2973     1.0  0.69943  0.66001  0.09458  1.0000
  C   C2490     1.0  0.97583  0.66041  0.20765  1.0000
  H   H2974     1.0  0.71768  0.66217  0.12535  1.0000
  C   C2491     1.0  0.95667  0.97938  0.23666  1.0000
  H   H2975     1.0  0.98406  0.98813  0.23667  1.0000
  Fe  Fe333     1.0  0.61012  0.86937  0.36983  1.0000
  S   S661      1.0  0.61685  0.89598  0.34618  1.0000
  S   S662      1.0  0.59949  0.84260  0.36795  1.0000
  Fe  Fe334     1.0  0.62164  0.88493  0.39839  1.0000
  S   S663      1.0  0.62888  0.91346  0.37756  1.0000
  S   S664      1.0  0.62525  0.87440  0.42849  1.0000
  Fe  Fe335     1.0  0.60069  0.91451  0.36817  1.0000
  S   S665      1.0  0.57863  0.94413  0.36105  1.0000
  Fe  Fe336     1.0  0.64442  0.89257  0.35758  1.0000
  S   S666      1.0  0.67586  0.89483  0.34013  1.0000
  S   S667      1.0  0.59178  0.88800  0.39098  1.0000
  S   S668      1.0  0.63934  0.86396  0.37905  1.0000
  Fe  Fe337     1.0  0.68409  0.75231  0.36507  1.0000
  S   S669      1.0  0.68100  0.78122  0.34281  1.0000
  H   H2976     1.0  0.62011  0.91815  0.41517  1.0000
  Fe  Fe338     1.0  0.80024  0.85472  0.39027  1.0000
  S   S670      1.0  0.77698  0.86685  0.41401  1.0000
  S   S671      1.0  0.83138  0.86279  0.38052  1.0000
  Fe  Fe339     1.0  0.77339  0.82897  0.38614  1.0000
  S   S672      1.0  0.74767  0.83884  0.40938  1.0000
  S   S673      1.0  0.77064  0.81046  0.36697  1.0000
  Fe  Fe340     1.0  0.75447  0.87001  0.39668  1.0000
  S   S674      1.0  0.72833  0.89681  0.39542  1.0000
  Fe  Fe341     1.0  0.77217  0.83478  0.42500  1.0000
  S   S675      1.0  0.76496  0.82218  0.45641  1.0000
  S   S676      1.0  0.77799  0.86087  0.37184  1.0000
  S   S677      1.0  0.79758  0.82190  0.40287  1.0000
  Fe  Fe342     1.0  0.87965  0.94285  0.30431  1.0000
  S   S678      1.0  0.90424  0.91455  0.30318  1.0000
  S   S679      1.0  0.84664  0.93981  0.31405  1.0000
  N   N165      1.0  0.69888  0.77128  0.44331  1.0000
  Fe  Fe343     1.0  0.91763  0.93179  0.27472  1.0000
  H   H2977     1.0  0.63519  0.91653  0.25814  1.0000
  Fe  Fe344     1.0  0.92092  0.93038  0.31443  1.0000
  S   S680      1.0  0.93601  0.91269  0.33839  1.0000
  S   S681      1.0  0.89189  0.95915  0.27467  1.0000
  S   S682      1.0  0.89517  0.95753  0.31797  1.0000
  H   H2978     1.0  0.71583  0.79472  0.37923  1.0000
  H   H2979     1.0  0.64816  0.70207  0.36381  1.0000
  S   S683      1.0  0.64514  0.72983  0.43239  1.0000
  Fe  Fe345     1.0  0.53818  0.95425  0.27546  1.0000
  C   C2492     1.0  0.69360  0.81117  0.48013  1.0000
  S   S684      1.0  0.54552  0.92731  0.29874  1.0000
  C   C2493     1.0  0.54284  0.94437  0.43360  1.0000
  H   H2980     1.0  0.70206  0.70141  0.46472  1.0000
  C   C2494     1.0  0.61320  0.93652  0.30699  1.0000
  H   H2981     1.0  0.67085  0.76092  0.45713  1.0000
  H   H2982     1.0  0.66311  0.79400  0.46286  1.0000
  H   H2983     1.0  0.86902  0.88843  0.31235  1.0000
  H   H2984     1.0  0.63947  0.71913  0.31186  1.0000
  H   H2985     1.0  0.68002  0.71382  0.33244  1.0000
  N   N166      1.0  0.99335  0.90811  0.25549  1.0000
  C   C2495     1.0  0.63505  0.73155  0.31917  1.0000
  C   C2496     1.0  0.95611  0.92187  0.34089  1.0000
  C   C2497     1.0  0.96959  0.93083  0.32517  1.0000
  H   H2986     1.0  0.80274  0.73956  0.47897  1.0000
  H   H2987     1.0  0.53626  0.95671  0.42262  1.0000
  C   C2498     1.0  0.92684  0.67724  0.27061  1.0000
  C   C2499     1.0  0.95907  0.91939  0.35906  1.0000
  H   H2988     1.0  0.96752  0.93256  0.31110  1.0000
  Fe  Fe346     1.0  0.71362  0.72635  0.38936  1.0000
  C   C2500     1.0  0.69427  0.90132  0.44251  1.0000
  H   H2989     1.0  0.72512  0.90449  0.44177  1.0000
  C   C2501     1.0  0.65561  0.92492  0.30174  1.0000
  H   H2990     1.0  0.82304  0.91213  0.38559  1.0000
  H   H2991     1.0  0.75665  0.75044  0.41755  1.0000
  H   H2992     1.0  0.89435  0.68895  0.27575  1.0000
  C   C2502     1.0  0.98565  0.93044  0.25381  1.0000
  C   C2503     1.0  0.81295  0.90940  0.39995  1.0000
  C   C2504     1.0  0.72336  0.87334  0.44937  1.0000
  C   C2505     1.0  0.83512  0.88438  0.36214  1.0000
  C   C2506     1.0  0.81941  0.89635  0.35314  1.0000
  C   C2507     1.0  0.82292  0.91359  0.33864  1.0000
  C   C2508     1.0  0.84209  0.91899  0.33314  1.0000
  C   C2509     1.0  0.85763  0.90725  0.34244  1.0000
  C   C2510     1.0  0.85420  0.88992  0.35678  1.0000
  H   H2993     1.0  0.80460  0.89230  0.35725  1.0000
  H   H2994     1.0  0.81080  0.92266  0.33156  1.0000
  H   H2995     1.0  0.87237  0.91142  0.33854  1.0000
  H   H2996     1.0  0.86642  0.88079  0.36372  1.0000
  H   H2997     1.0  0.80103  0.92364  0.40085  1.0000
  H   H2998     1.0  0.68787  0.73680  0.28064  1.0000
  C   C2511     1.0  0.79469  0.83944  0.45995  1.0000
  H   H2999     1.0  0.68511  0.74860  0.32545  1.0000
  C   C2512     1.0  0.67637  0.92671  0.41981  1.0000
  C   C2513     1.0  0.64591  0.73131  0.46835  1.0000
  H   H3000     1.0  0.88531  0.88951  0.28948  1.0000
  H   H3001     1.0  0.80055  0.84076  0.44491  1.0000
  H   H3002     1.0  0.67810  0.76699  0.30489  1.0000
  C   C2514     1.0  0.74916  0.74994  0.39183  1.0000
  C   C2515     1.0  0.74939  0.75982  0.37296  1.0000
  C   C2516     1.0  0.75699  0.77784  0.36532  1.0000
  C   C2517     1.0  0.76324  0.78676  0.37675  1.0000
  C   C2518     1.0  0.76303  0.77691  0.39565  1.0000
  C   C2519     1.0  0.75649  0.75823  0.40303  1.0000
  H   H3003     1.0  0.74406  0.75336  0.36415  1.0000
  H   H3004     1.0  0.75759  0.78514  0.35057  1.0000
  H   H3005     1.0  0.76817  0.78354  0.40446  1.0000
  H   H3006     1.0  0.61386  0.94585  0.43212  1.0000
  C   C2520     1.0  0.56571  0.94051  0.34572  1.0000
  C   C2521     1.0  0.55882  0.95687  0.33170  1.0000
  C   C2522     1.0  0.55150  0.95317  0.31760  1.0000
  C   C2523     1.0  0.55063  0.93320  0.31789  1.0000
  C   C2524     1.0  0.55597  0.91720  0.33278  1.0000
  C   C2525     1.0  0.56390  0.92077  0.34644  1.0000
  H   H3007     1.0  0.56023  0.97216  0.33111  1.0000
  H   H3008     1.0  0.54727  0.96561  0.30616  1.0000
  H   H3009     1.0  0.55519  0.90176  0.33311  1.0000
  H   H3010     1.0  0.56902  0.90810  0.35732  1.0000
  C   C2526     1.0  0.62143  0.82517  0.36019  1.0000
  C   C2527     1.0  0.62436  0.80468  0.36984  1.0000
  C   C2528     1.0  0.64270  0.79107  0.36452  1.0000
  C   C2529     1.0  0.65775  0.79782  0.34914  1.0000
  C   C2530     1.0  0.65451  0.81814  0.33910  1.0000
  C   C2531     1.0  0.63655  0.83195  0.34491  1.0000
  H   H3011     1.0  0.61274  0.79952  0.38180  1.0000
  H   H3012     1.0  0.64517  0.77543  0.37241  1.0000
  H   H3013     1.0  0.66614  0.82336  0.32719  1.0000
  H   H3014     1.0  0.63433  0.84784  0.33754  1.0000
  C   C2532     1.0  0.69105  0.89409  0.35550  1.0000
  C   C2533     1.0  0.68308  0.89058  0.37503  1.0000
  C   C2534     1.0  0.69473  0.89103  0.38730  1.0000
  C   C2535     1.0  0.71446  0.89480  0.38011  1.0000
  C   C2536     1.0  0.72288  0.89728  0.36070  1.0000
  C   C2537     1.0  0.71112  0.89703  0.34837  1.0000
  H   H3015     1.0  0.66790  0.88761  0.38076  1.0000
  H   H3016     1.0  0.68840  0.88845  0.40236  1.0000
  H   H3017     1.0  0.73824  0.90000  0.35514  1.0000
  H   H3018     1.0  0.71742  0.89950  0.33331  1.0000
  C   C2538     1.0  0.62227  0.89400  0.43995  1.0000
  C   C2539     1.0  0.61960  0.91440  0.43011  1.0000
  S   S685      1.0  0.51131  0.97975  0.28066  1.0000
  C   C2540     1.0  0.71436  0.78901  0.45915  1.0000
  C   C2541     1.0  0.87444  0.88070  0.30024  1.0000
  H   H3019     1.0  0.82535  0.93507  0.41384  1.0000
  H   H3020     1.0  0.59673  0.94068  0.31022  1.0000
  H   H3021     1.0  0.53838  0.87242  0.41685  1.0000
  H   H3022     1.0  0.61676  0.90140  0.26138  1.0000
  H   H3023     1.0  0.69817  0.79784  0.36469  1.0000
  C   C2542     1.0  0.86605  0.87138  0.27548  1.0000
  C   C2543     1.0  0.62675  0.66408  0.40768  1.0000
  C   C2544     1.0  0.68405  0.75051  0.31058  1.0000
  H   H3024     1.0  0.66053  0.94611  0.44825  1.0000
  H   H3025     1.0  0.73037  0.83386  0.35660  1.0000
  C   C2545     1.0  0.78777  0.89547  0.47190  1.0000
  H   H3026     1.0  0.72581  0.82666  0.38176  1.0000
  H   H3027     1.0  0.72957  0.78211  0.45250  1.0000
  H   H3028     1.0  0.57537  0.92138  0.44726  1.0000
  H   H3029     1.0  0.55311  0.88742  0.43399  1.0000
  H   H3030     1.0  0.83762  0.99242  0.29940  1.0000
  N   N167      1.0  0.55846  0.92818  0.42530  1.0000
  C   C2546     1.0  0.57486  0.93768  0.41133  1.0000
  H   H3031     1.0  0.54943  0.95182  0.44120  1.0000
  C   C2547     1.0  0.56785  0.91368  0.44071  1.0000
  C   C2548     1.0  0.54881  0.91838  0.41588  1.0000
  H   H3032     1.0  0.69659  0.71142  0.30999  1.0000
  C   C2549     1.0  0.54053  0.92985  0.39995  1.0000
  S   S686      1.0  0.73921  0.72760  0.40175  1.0000
  H   H3033     1.0  0.56900  0.95037  0.40023  1.0000
  H   H3034     1.0  0.58312  0.94433  0.41810  1.0000
  H   H3035     1.0  0.58632  0.92625  0.40395  1.0000
  H   H3036     1.0  0.52998  0.93796  0.44385  1.0000
  H   H3037     1.0  0.63023  0.73966  0.46935  1.0000
  C   C2550     1.0  0.62341  0.94305  0.31708  1.0000
  H   H3038     1.0  0.57994  0.90117  0.43529  1.0000
  C   C2551     1.0  0.65554  0.72782  0.48347  1.0000
  H   H3039     1.0  0.96400  0.90177  0.27168  1.0000
  S   S687      1.0  0.68741  0.75270  0.39356  1.0000
  H   H3040     1.0  0.59170  0.89568  0.29225  1.0000
  C   C2552     1.0  0.67702  0.71387  0.45058  1.0000
  C   C2553     1.0  0.69673  0.78525  0.45577  1.0000
  C   C2554     1.0  0.67741  0.79569  0.46463  1.0000
  H   H3041     1.0  0.66441  0.72842  0.28664  1.0000
  H   H3042     1.0  0.73933  0.86823  0.45021  1.0000
  S   S688      1.0  0.93218  0.91686  0.24992  1.0000
  C   C2555     1.0  0.83062  0.84724  0.33759  1.0000
  C   C2556     1.0  0.70865  0.78025  0.42377  1.0000
  H   H3043     1.0  0.83424  0.90271  0.27917  1.0000
  C   C2557     1.0  0.61534  0.92525  0.45910  1.0000
  H   H3044     1.0  0.65631  0.92069  0.45646  1.0000
  H   H3045     1.0  0.99103  0.98554  0.27497  1.0000
  H   H3046     1.0  0.52530  0.89307  0.38859  1.0000
  H   H3047     1.0  0.66399  0.75518  0.28282  1.0000
  H   H3048     1.0  0.52664  0.92973  0.37775  1.0000
  H   H3049     1.0  0.70006  0.74657  0.30253  1.0000
  H   H3050     1.0  0.85459  0.87308  0.26711  1.0000
  H   H3051     1.0  0.88342  0.86508  0.30487  1.0000
  N   N168      1.0  0.85713  0.88011  0.29259  1.0000
  H   H3052     1.0  0.81561  0.89182  0.48062  1.0000
  H   H3053     1.0  0.67900  0.83165  0.35302  1.0000
  H   H3054     1.0  0.72393  0.78298  0.42287  1.0000
  C   C2558     1.0  0.82595  0.86496  0.30064  1.0000
  C   C2559     1.0  0.68246  0.88620  0.44664  1.0000
  H   H3055     1.0  0.68125  0.75626  0.43390  1.0000
  C   C2560     1.0  0.61852  0.90482  0.46888  1.0000
  H   H3056     1.0  0.64086  0.82747  0.43327  1.0000
  H   H3057     1.0  0.83818  0.90812  0.29964  1.0000
  N   N169      1.0  0.67106  0.73732  0.30930  1.0000
  H   H3058     1.0  0.61785  0.90110  0.48391  1.0000
  H   H3059     1.0  0.87830  0.87907  0.26561  1.0000
  H   H3060     1.0  0.71340  0.85145  0.36990  1.0000
  C   C2561     1.0  0.81461  0.84435  0.33155  1.0000
  H   H3061     1.0  0.67219  0.70468  0.31607  1.0000
  H   H3062     1.0  0.66402  0.91824  0.42256  1.0000
  C   C2562     1.0  0.68032  0.71591  0.31721  1.0000
  C   C2563     1.0  0.84267  0.86791  0.30622  1.0000
  N   N170      1.0  0.82465  0.90399  0.41505  1.0000
  C   C2564     1.0  0.83956  0.88452  0.41320  1.0000
  C   C2565     1.0  0.83603  0.92044  0.41147  1.0000
  C   C2566     1.0  0.81162  0.90152  0.43439  1.0000
  C   C2567     1.0  0.79034  0.90177  0.43818  1.0000
  C   C2568     1.0  0.82037  0.89788  0.45025  1.0000
  C   C2569     1.0  0.77868  0.89881  0.45671  1.0000
  H   H3063     1.0  0.60660  0.67564  0.44142  1.0000
  C   C2570     1.0  0.63645  0.67187  0.34116  1.0000
  H   H3064     1.0  0.84925  0.88537  0.39863  1.0000
  H   H3065     1.0  0.85009  0.88022  0.42301  1.0000
  H   H3066     1.0  0.83158  0.87166  0.41625  1.0000
  H   H3067     1.0  0.80565  0.89678  0.40045  1.0000
  H   H3068     1.0  0.84717  0.91662  0.42065  1.0000
  H   H3069     1.0  0.84518  0.92330  0.39667  1.0000
  H   H3070     1.0  0.78239  0.90396  0.42712  1.0000
  H   H3071     1.0  0.83654  0.89672  0.44860  1.0000
  H   H3072     1.0  0.58424  0.66204  0.39390  1.0000
  C   C2571     1.0  0.63392  0.68721  0.35092  1.0000
  H   H3073     1.0  0.62394  0.87339  0.46695  1.0000
  C   C2572     1.0  0.64951  0.74237  0.31958  1.0000
  C   C2573     1.0  0.64221  0.75796  0.33013  1.0000
  C   C2574     1.0  0.62170  0.76245  0.33948  1.0000
  C   C2575     1.0  0.60790  0.75163  0.33863  1.0000
  H   H3074     1.0  0.65199  0.76696  0.33144  1.0000
  C   C2576     1.0  0.60592  0.66770  0.40661  1.0000
  H   H3075     1.0  0.80512  0.77256  0.46051  1.0000
  C   C2577     1.0  0.59743  0.93327  0.27568  1.0000
  H   H3076     1.0  0.65503  0.90847  0.28225  1.0000
  C   C2578     1.0  0.60159  0.90112  0.29839  1.0000
  H   H3077     1.0  0.55628  0.90681  0.45239  1.0000
  S   S689      1.0  0.52889  0.94758  0.25199  1.0000
  C   C2579     1.0  0.62192  0.88919  0.45930  1.0000
  C   C2580     1.0  0.68638  0.70982  0.46581  1.0000
  C   C2581     1.0  0.71188  0.75112  0.44981  1.0000
  H   H3078     1.0  0.69598  0.84541  0.39991  1.0000
  H   H3079     1.0  0.58928  0.92802  0.26766  1.0000
  H   H3080     1.0  0.58507  0.94013  0.28640  1.0000
  H   H3081     1.0  0.60488  0.94571  0.26590  1.0000
  H   H3082     1.0  0.68560  0.70860  0.43798  1.0000
  H   H3083     1.0  0.65244  0.94154  0.32291  1.0000
  C   C2582     1.0  0.81220  0.85330  0.31314  1.0000
  H   H3084     1.0  0.61238  0.88761  0.30464  1.0000
  C   C2583     1.0  0.91568  0.91157  0.23867  1.0000
  H   H3085     1.0  0.61474  0.95207  0.32748  1.0000
  C   C2584     1.0  0.61457  0.73621  0.32849  1.0000
  H   H3086     1.0  0.72795  0.75201  0.44837  1.0000
  C   C2585     1.0  0.64602  0.68881  0.40606  1.0000
  C   C2586     1.0  0.67185  0.73954  0.28899  1.0000
  H   H3087     1.0  0.85658  0.91159  0.27776  1.0000
  H   H3088     1.0  0.70574  0.74442  0.46491  1.0000
  H   H3089     1.0  0.69248  0.95324  0.42696  1.0000
  H   H3090     1.0  0.66768  0.80764  0.38156  1.0000
  C   C2587     1.0  0.62590  0.90609  0.26889  1.0000
  Fe  Fe347     1.0  0.66827  0.72901  0.40474  1.0000
  S   S690      1.0  0.93684  0.94496  0.28583  1.0000
  H   H3091     1.0  0.62257  0.69273  0.43999  1.0000
  C   C2588     1.0  0.67909  0.76744  0.44275  1.0000
  H   H3092     1.0  0.71087  0.76998  0.41400  1.0000
  C   C2589     1.0  0.71276  0.80159  0.47132  1.0000
  S   S691      1.0  0.71178  0.72755  0.35974  1.0000
  H   H3093     1.0  0.70241  0.83979  0.34061  1.0000
  C   C2590     1.0  0.62392  0.92402  0.29382  1.0000
  H   H3094     1.0  0.82334  0.87176  0.28656  1.0000
  C   C2591     1.0  0.61601  0.93004  0.43971  1.0000
  Fe  Fe348     1.0  0.90987  0.97118  0.28830  1.0000
  H   H3095     1.0  0.87300  0.85480  0.27935  1.0000
  H   H3096     1.0  0.98558  0.88079  0.27523  1.0000
  H   H3097     1.0  0.60390  0.72754  0.32804  1.0000
  C   C2592     1.0  0.71495  0.89424  0.44445  1.0000
  C   C2593     1.0  0.67599  0.80844  0.47661  1.0000
  C   C2594     1.0  0.84446  0.85888  0.32523  1.0000
  H   H3098     1.0  0.59142  0.90770  0.31035  1.0000
  H   H3099     1.0  0.88777  0.92367  0.25675  1.0000
  H   H3100     1.0  0.63629  0.89180  0.27447  1.0000
  H   H3101     1.0  0.59390  0.67775  0.41425  1.0000
  C   C2595     1.0  0.84606  0.90149  0.28699  1.0000
  H   H3102     1.0  0.72202  0.80471  0.35411  1.0000
  H   H3103     1.0  0.71282  0.73989  0.44134  1.0000
  C   C2596     1.0  0.70954  0.80491  0.36703  1.0000
  C   C2597     1.0  0.53874  0.88856  0.41233  1.0000
  Fe  Fe349     1.0  0.68950  0.70648  0.37296  1.0000
  S   S692      1.0  0.66164  0.73164  0.37642  1.0000
  H   H3104     1.0  0.76255  0.89880  0.45936  1.0000
  C   C2598     1.0  0.98034  0.89771  0.27269  1.0000
  C   C2599     1.0  0.54725  0.89746  0.42207  1.0000
  N   N171      1.0  0.70090  0.82595  0.37022  1.0000
  C   C2600     1.0  0.69118  0.83831  0.35440  1.0000
  C   C2601     1.0  0.71827  0.83487  0.36973  1.0000
  H   H3105     1.0  0.94894  0.98247  0.25048  1.0000
  C   C2602     1.0  0.69104  0.86534  0.45155  1.0000
  C   C2603     1.0  0.67198  0.66111  0.34402  1.0000
  C   C2604     1.0  0.66900  0.81531  0.39171  1.0000
  H   H3106     1.0  0.60741  0.69881  0.42302  1.0000
  H   H3107     1.0  0.70597  0.93616  0.44404  1.0000
  C   C2605     1.0  0.68475  0.83649  0.40171  1.0000
  C   C2606     1.0  0.68523  0.82563  0.38808  1.0000
  H   H3108     1.0  0.64080  0.80832  0.41003  1.0000
  H   H3109     1.0  0.80114  0.79378  0.47067  1.0000
  H   H3110     1.0  0.61651  0.77445  0.34741  1.0000
  C   C2607     1.0  0.65343  0.81566  0.40799  1.0000
  H   H3111     1.0  0.68383  0.85396  0.35668  1.0000
  H   H3112     1.0  0.81899  0.85076  0.46372  1.0000
  H   H3113     1.0  0.66952  0.94312  0.41492  1.0000
  C   C2608     1.0  0.65675  0.72454  0.45175  1.0000
  N   N172      1.0  0.68502  0.92329  0.43662  1.0000
  C   C2609     1.0  0.66833  0.92980  0.45220  1.0000
  H   H3114     1.0  0.93048  0.69159  0.26185  1.0000
  S   S693      1.0  0.69462  0.70236  0.40209  1.0000
  H   H3115     1.0  0.67430  0.92810  0.46489  1.0000
  S   S694      1.0  0.61106  0.94496  0.47075  1.0000
  C   C2610     1.0  0.69979  0.93691  0.43164  1.0000
  C   C2611     1.0  0.65345  0.82640  0.42108  1.0000
  C   C2612     1.0  0.80854  0.89506  0.46867  1.0000
  C   C2613     1.0  0.77715  0.83146  0.46892  1.0000
  H   H3116     1.0  0.66900  0.78157  0.43653  1.0000
  C   C2614     1.0  0.66908  0.83673  0.41797  1.0000
  H   H3117     1.0  0.71842  0.84281  0.45592  1.0000
  H   H3118     1.0  0.66848  0.84579  0.42780  1.0000
  H   H3119     1.0  0.71273  0.93286  0.41982  1.0000
  C   C2615     1.0  0.53135  0.90015  0.39641  1.0000
  H   H3120     1.0  0.85623  0.86072  0.33105  1.0000
  H   H3121     1.0  0.79951  0.85123  0.30864  1.0000
  N   N173      1.0  0.63371  0.67415  0.41902  1.0000
  H   H3122     1.0  0.68847  0.92185  0.40780  1.0000
  H   H3123     1.0  0.68179  0.85413  0.45418  1.0000
  C   C2616     1.0  0.67583  0.71700  0.48216  1.0000
  H   H3124     1.0  0.94877  0.91239  0.37122  1.0000
  C   C2617     1.0  0.89439  0.91653  0.24478  1.0000
  C   C2618     1.0  0.97523  0.92603  0.36162  1.0000
  S   S695      1.0  0.55908  0.97469  0.25624  1.0000
  C   C2619     1.0  0.65034  0.68983  0.35682  1.0000
  N   N174      1.0  0.61257  0.91626  0.28424  1.0000
  C   C2620     1.0  0.64555  0.91835  0.29150  1.0000
  C   C2621     1.0  0.64458  0.93716  0.31454  1.0000
  C   C2622     1.0  0.53208  0.92080  0.39034  1.0000
  H   H3125     1.0  0.96350  0.97830  0.32456  1.0000
  H   H3126     1.0  0.66652  0.89040  0.44586  1.0000
  H   H3127     1.0  0.67204  0.91989  0.30031  1.0000
  H   H3128     1.0  0.98470  0.93514  0.26707  1.0000
  C   C2623     1.0  0.66940  0.67661  0.35367  1.0000
  C   C2624     1.0  0.80519  0.84498  0.47063  1.0000
  H   H3129     1.0  0.95804  0.66200  0.26732  1.0000
  H   H3130     1.0  0.80392  0.83532  0.34124  1.0000
  H   H3131     1.0  0.83219  0.84058  0.35207  1.0000
  C   C2625     1.0  0.99331  0.90256  0.23787  1.0000
  C   C2626     1.0  0.71152  0.85894  0.45269  1.0000
  H   H3132     1.0  0.69916  0.79518  0.41828  1.0000
  S   S696      1.0  0.61492  0.66965  0.33428  1.0000
  H   H3133     1.0  0.82362  0.77367  0.47256  1.0000
  H   H3134     1.0  0.97732  0.92416  0.37573  1.0000
  H   H3135     1.0  0.61907  0.69712  0.35399  1.0000
  H   H3136     1.0  0.59203  0.75514  0.34590  1.0000
  S   S697      1.0  0.69029  0.67921  0.36140  1.0000
  H   H3137     1.0  0.65109  0.66585  0.44073  1.0000
  H   H3138     1.0  0.54109  0.94582  0.39438  1.0000
  H   H3139     1.0  0.97013  0.93521  0.25060  1.0000
  H   H3140     1.0  0.63680  0.70066  0.39666  1.0000
  H   H3141     1.0  0.72648  0.80376  0.47404  1.0000
  S   S698      1.0  0.58709  0.66498  0.29995  1.0000
  H   H3142     1.0  0.98069  0.90227  0.28565  1.0000
  C   C2627     1.0  0.80695  0.77697  0.47298  1.0000
  H   H3143     1.0  0.66106  0.81572  0.48369  1.0000
  C   C2628     1.0  0.61673  0.68571  0.43141  1.0000
  C   C2629     1.0  0.98624  0.93688  0.32771  1.0000
  H   H3144     1.0  0.65151  0.69685  0.41396  1.0000
  C   C2630     1.0  0.90654  0.67580  0.27848  1.0000
  C   C2631     1.0  0.98897  0.93456  0.34599  1.0000
  Fe  Fe350     1.0  0.50340  0.97466  0.25577  1.0000
  H   H3145     1.0  0.49676  0.91159  0.29018  1.0000
  H   H3146     1.0  0.84068  0.98517  0.26839  1.0000
  H   H3147     1.0  0.77121  0.76872  0.47735  1.0000
  H   H3148     1.0  0.65978  0.68124  0.39688  1.0000
  H   H3149     1.0  0.99394  0.98176  0.33186  1.0000
  S   S699      1.0  0.60941  0.66097  0.24752  1.0000
  H   H3150     1.0  0.97223  0.88137  0.25006  1.0000
  C   C2632     1.0  0.94255  0.66013  0.27368  1.0000
  H   H3151     1.0  0.49860  0.93957  0.30339  1.0000
  H   H3152     1.0  0.77891  0.89262  0.48629  1.0000
  H   H3153     1.0  0.86523  0.91646  0.23977  1.0000
  C   C2633     1.0  0.98189  0.88854  0.23751  1.0000
  C   C2634     1.0  0.60924  0.67489  0.60143  1.0000
  H   H3154     1.0  0.71170  0.88733  0.56449  1.0000
  S   S700      1.0  0.65673  0.95040  0.61728  1.0000
  Fe  Fe351     1.0  0.60023  0.95776  0.67478  1.0000
  S   S701      1.0  0.57674  0.93901  0.69074  1.0000
  S   S702      1.0  0.63400  0.94603  0.67163  1.0000
  Fe  Fe352     1.0  0.63100  0.94989  0.52760  1.0000
  S   S703      1.0  0.64444  0.95661  0.49653  1.0000
  S   S704      1.0  0.61842  0.97297  0.54570  1.0000
  Fe  Fe353     1.0  0.63654  0.90470  0.53058  1.0000
  S   S705      1.0  0.65067  0.90678  0.49970  1.0000
  S   S706      1.0  0.63344  0.87614  0.55320  1.0000
  Fe  Fe354     1.0  0.66790  0.92815  0.50292  1.0000
  H   H3155     1.0  0.76707  0.78781  0.49055  1.0000
  H   H3156     1.0  0.67992  0.85232  0.50707  1.0000
  C   C2635     1.0  0.57636  0.72120  0.60537  1.0000
  S   S707      1.0  0.65628  0.92329  0.53426  1.0000
  S   S708      1.0  0.61024  0.93103  0.52605  1.0000
  S   S709      1.0  0.63246  0.80189  0.52082  1.0000
  Fe  Fe355     1.0  0.76484  0.88136  0.55590  1.0000
  S   S710      1.0  0.76739  0.85957  0.58354  1.0000
  S   S711      1.0  0.74352  0.91188  0.55565  1.0000
  Fe  Fe356     1.0  0.79557  0.85262  0.53321  1.0000
  S   S712      1.0  0.80142  0.82847  0.55913  1.0000
  S   S713      1.0  0.81167  0.84955  0.50337  1.0000
  Fe  Fe357     1.0  0.76720  0.83558  0.56896  1.0000
  S   S714      1.0  0.74726  0.81246  0.58377  1.0000
  Fe  Fe358     1.0  0.80120  0.85476  0.57142  1.0000
  S   S715      1.0  0.82164  0.85321  0.59092  1.0000
  S   S716      1.0  0.76140  0.85799  0.54230  1.0000
  S   S717      1.0  0.79855  0.87825  0.54453  1.0000
  Fe  Fe359     1.0  0.86083  0.93542  0.62020  1.0000
  S   S718      1.0  0.87868  0.91141  0.63998  1.0000
  S   S719      1.0  0.84802  0.93167  0.59688  1.0000
  Fe  Fe360     1.0  0.86698  0.97056  0.63360  1.0000
  S   S720      1.0  0.88521  0.94962  0.65415  1.0000
  H   H3157     1.0  0.60023  0.96673  0.58503  1.0000
  Fe  Fe361     1.0  0.90078  0.93251  0.63121  1.0000
  Fe  Fe362     1.0  0.86177  0.93054  0.66141  1.0000
  S   S721      1.0  0.85045  0.91901  0.69260  1.0000
  S   S722      1.0  0.88443  0.95511  0.60979  1.0000
  S   S723      1.0  0.84198  0.95290  0.64249  1.0000
  H   H3158     1.0  0.87676  0.83895  0.59537  1.0000
  H   H3159     1.0  0.78377  0.75839  0.55645  1.0000
  C   C2636     1.0  0.70536  0.85734  0.57713  1.0000
  C   C2637     1.0  0.80979  0.79174  0.52320  1.0000
  H   H3160     1.0  0.88478  0.95904  0.69428  1.0000
  H   H3161     1.0  0.70629  0.87167  0.49237  1.0000
  C   C2638     1.0  0.95175  0.95978  0.64498  1.0000
  C   C2639     1.0  0.94035  0.95047  0.63839  1.0000
  H   H3162     1.0  0.95620  0.91637  0.67515  1.0000
  H   H3163     1.0  0.69085  0.95902  0.62954  1.0000
  C   C2640     1.0  0.80325  0.74384  0.49200  1.0000
  H   H3164     1.0  0.70801  0.88763  0.53353  1.0000
  C   C2641     1.0  0.97035  0.92429  0.63125  1.0000
  C   C2642     1.0  0.95966  0.88012  0.70141  1.0000
  C   C2643     1.0  0.99134  0.89854  0.73412  1.0000
  H   H3165     1.0  0.95374  0.92018  0.69810  1.0000
  C   C2644     1.0  0.67683  0.66998  0.57002  1.0000
  C   C2645     1.0  0.94947  0.93251  0.63180  1.0000
  C   C2646     1.0  0.86948  0.91754  0.70441  1.0000
  C   C2647     1.0  0.72121  0.77934  0.56384  1.0000
  H   H3166     1.0  0.89407  0.91104  0.68090  1.0000
  C   C2648     1.0  0.53809  0.98140  0.70215  1.0000
  H   H3167     1.0  0.77476  0.83340  0.51414  1.0000
  C   C2649     1.0  0.82868  0.87519  0.59258  1.0000
  C   C2650     1.0  0.83598  0.87468  0.60838  1.0000
  C   C2651     1.0  0.84222  0.89175  0.60986  1.0000
  C   C2652     1.0  0.84131  0.90944  0.59547  1.0000
  C   C2653     1.0  0.83424  0.90986  0.57959  1.0000
  C   C2654     1.0  0.82782  0.89288  0.57819  1.0000
  H   H3168     1.0  0.83680  0.86100  0.61952  1.0000
  H   H3169     1.0  0.84759  0.89126  0.62218  1.0000
  H   H3170     1.0  0.83360  0.92346  0.56835  1.0000
  H   H3171     1.0  0.82253  0.89337  0.56584  1.0000
  C   C2655     1.0  0.72618  0.78875  0.57580  1.0000
  C   C2656     1.0  0.74091  0.80097  0.56867  1.0000
  C   C2657     1.0  0.75052  0.80382  0.54957  1.0000
  C   C2658     1.0  0.74595  0.79402  0.53776  1.0000
  H   H3172     1.0  0.76197  0.81308  0.54404  1.0000
  H   H3173     1.0  0.75393  0.79584  0.52313  1.0000
  C   C2659     1.0  0.63180  0.85586  0.54450  1.0000
  C   C2660     1.0  0.63569  0.83590  0.55526  1.0000
  C   C2661     1.0  0.63598  0.81932  0.54798  1.0000
  C   C2662     1.0  0.63213  0.82262  0.53002  1.0000
  C   C2663     1.0  0.62776  0.84263  0.51941  1.0000
  C   C2664     1.0  0.62779  0.85925  0.52657  1.0000
  H   H3174     1.0  0.63888  0.83324  0.56909  1.0000
  H   H3175     1.0  0.63888  0.80406  0.55641  1.0000
  C   C2665     1.0  0.98705  0.88555  0.67434  1.0000
  H   H3176     1.0  0.62459  0.87467  0.51826  1.0000
  C   C2666     1.0  0.71429  0.92506  0.50543  1.0000
  C   C2667     1.0  0.73403  0.91309  0.50487  1.0000
  C   C2668     1.0  0.74342  0.90967  0.52001  1.0000
  C   C2669     1.0  0.73316  0.91847  0.53557  1.0000
  C   C2670     1.0  0.71390  0.93139  0.53561  1.0000
  C   C2671     1.0  0.70445  0.93463  0.52055  1.0000
  N   N175      1.0  0.79561  0.76611  0.49104  1.0000
  H   H3177     1.0  0.75849  0.90002  0.51978  1.0000
  H   H3178     1.0  0.70599  0.93833  0.54755  1.0000
  H   H3179     1.0  0.68945  0.94442  0.52073  1.0000
  H   H3180     1.0  0.58857  0.74191  0.61295  1.0000
  H   H3181     1.0  0.69690  0.67531  0.53263  1.0000
  H   H3182     1.0  0.62555  0.75499  0.57392  1.0000
  C   C2672     1.0  0.57087  0.71599  0.59118  1.0000
  H   H3183     1.0  0.99110  0.97181  0.69049  1.0000
  C   C2673     1.0  0.97941  0.89858  0.72196  1.0000
  H   H3184     1.0  0.63109  0.69488  0.62559  1.0000
  C   C2674     1.0  0.64616  0.95512  0.59746  1.0000
  C   C2675     1.0  0.65902  0.95493  0.57953  1.0000
  C   C2676     1.0  0.65061  0.95974  0.56352  1.0000
  C   C2677     1.0  0.62936  0.96481  0.56549  1.0000
  C   C2678     1.0  0.61661  0.96382  0.58346  1.0000
  C   C2679     1.0  0.62501  0.95883  0.59942  1.0000
  H   H3185     1.0  0.67543  0.95165  0.57792  1.0000
  H   H3186     1.0  0.66053  0.96027  0.54961  1.0000
  Fe  Fe363     1.0  0.67861  0.73296  0.52076  1.0000
  H   H3187     1.0  0.53028  0.96826  0.70660  1.0000
  H   H3188     1.0  0.86931  0.98231  0.70065  1.0000
  C   C2680     1.0  0.90022  0.91752  0.72198  1.0000
  H   H3189     1.0  0.93437  0.97479  0.68742  1.0000
  H   H3190     1.0  0.90319  0.98647  0.62007  1.0000
  C   C2681     1.0  0.79791  0.84307  0.49021  1.0000
  H   H3191     1.0  0.58118  0.77677  0.60778  1.0000
  H   H3192     1.0  0.60345  0.94313  0.71218  1.0000
  N   N176      1.0  0.76825  0.92173  0.60246  1.0000
  C   C2682     1.0  0.78304  0.91975  0.61413  1.0000
  C   C2683     1.0  0.76803  0.90081  0.60141  1.0000
  C   C2684     1.0  0.77598  0.93318  0.58315  1.0000
  C   C2685     1.0  0.74724  0.93226  0.61006  1.0000
  C   C2686     1.0  0.74177  0.93952  0.62705  1.0000
  C   C2687     1.0  0.73141  0.93540  0.60041  1.0000
  C   C2688     1.0  0.72164  0.94908  0.63391  1.0000
  C   C2689     1.0  0.71140  0.94502  0.60735  1.0000
  C   C2690     1.0  0.70648  0.95177  0.62411  1.0000
  H   H3193     1.0  0.77852  0.91072  0.62872  1.0000
  H   H3194     1.0  0.79854  0.91151  0.60821  1.0000
  H   H3195     1.0  0.78484  0.93497  0.61479  1.0000
  H   H3196     1.0  0.76162  0.89184  0.61550  1.0000
  H   H3197     1.0  0.78368  0.89212  0.59628  1.0000
  H   H3198     1.0  0.75874  0.90098  0.59149  1.0000
  H   H3199     1.0  0.77548  0.94932  0.58313  1.0000
  H   H3200     1.0  0.79206  0.92617  0.57729  1.0000
  H   H3201     1.0  0.76701  0.93339  0.57291  1.0000
  H   H3202     1.0  0.75271  0.93798  0.63537  1.0000
  H   H3203     1.0  0.73435  0.93034  0.58741  1.0000
  H   H3204     1.0  0.92151  0.96072  0.70925  1.0000
  C   C2691     1.0  0.86435  0.92071  0.72289  1.0000
  C   C2692     1.0  0.99157  0.98021  0.60092  1.0000
  H   H3205     1.0  0.71207  0.82235  0.52527  1.0000
  H   H3206     1.0  0.62456  0.84530  0.50558  1.0000
  N   N177      1.0  0.90156  0.98208  0.69180  1.0000
  C   C2693     1.0  0.80824  0.78695  0.50687  1.0000
  H   H3207     1.0  0.56910  0.72408  0.56202  1.0000
  H   H3208     1.0  0.70999  0.76979  0.56944  1.0000
  C   C2694     1.0  0.99161  0.96062  0.70419  1.0000
  H   H3209     1.0  0.60593  0.77457  0.54956  1.0000
  C   C2695     1.0  0.58407  0.73887  0.60154  1.0000
  H   H3210     1.0  0.92097  0.91155  0.69608  1.0000
  H   H3211     1.0  0.97722  0.95475  0.70878  1.0000
  H   H3212     1.0  0.94909  0.88563  0.71388  1.0000
  Fe  Fe364     1.0  0.69771  0.75741  0.53673  1.0000
  H   H3213     1.0  0.73175  0.83673  0.51903  1.0000
  C   C2696     1.0  0.70030  0.84053  0.57430  1.0000
  C   C2697     1.0  0.61526  0.76519  0.58322  1.0000
  C   C2698     1.0  0.92102  0.96733  0.69413  1.0000
  H   H3214     1.0  0.61592  0.75683  0.59799  1.0000
  H   H3215     1.0  0.54398  0.92977  0.72250  1.0000
  C   C2699     1.0  0.57406  0.93647  0.71508  1.0000
  H   H3216     1.0  0.72201  0.87536  0.50584  1.0000
  H   H3217     1.0  0.69511  0.88734  0.50916  1.0000
  Fe  Fe365     1.0  0.66331  0.73584  0.56173  1.0000
  S   S724      1.0  0.72683  0.76919  0.52952  1.0000
  S   S725      1.0  0.70104  0.92590  0.48848  1.0000
  C   C2700     1.0  0.90525  0.91403  0.70370  1.0000
  H   H3218     1.0  0.68192  0.67542  0.59498  1.0000
  H   H3219     1.0  0.66919  0.86665  0.52520  1.0000
  H   H3220     1.0  0.69209  0.66514  0.51573  1.0000
  C   C2701     1.0  0.70166  0.85672  0.54076  1.0000
  S   S726      1.0  0.93492  0.92001  0.62457  1.0000
  H   H3221     1.0  0.61377  0.92222  0.65647  1.0000
  H   H3222     1.0  0.90381  0.97501  0.66507  1.0000
  H   H3223     1.0  0.69957  0.94712  0.59975  1.0000
  H   H3224     1.0  0.92325  0.95415  0.68756  1.0000
  C   C2702     1.0  0.61625  0.68584  0.58316  1.0000
  S   S727      1.0  0.68857  0.71180  0.50064  1.0000
  H   H3225     1.0  0.81725  0.80405  0.52201  1.0000
  Fe  Fe366     1.0  0.63386  0.97594  0.67769  1.0000
  C   C2703     1.0  0.70649  0.87316  0.50663  1.0000
  H   H3226     1.0  0.70795  0.85703  0.59074  1.0000
  C   C2704     1.0  0.68088  0.85320  0.52130  1.0000
  Fe  Fe367     1.0  0.63547  0.96358  0.64158  1.0000
  C   C2705     1.0  0.58940  0.93990  0.72183  1.0000
  H   H3227     1.0  0.69522  0.82644  0.55480  1.0000
  S   S728      1.0  0.98554  0.96236  0.65504  1.0000
  C   C2706     1.0  0.67539  0.66636  0.58946  1.0000
  H   H3228     1.0  0.97624  0.92435  0.68031  1.0000
  H   H3229     1.0  0.76436  0.76237  0.50261  1.0000
  H   H3230     1.0  0.94991  0.88051  0.69176  1.0000
  C   C2707     1.0  0.96493  0.91428  0.68615  1.0000
  C   C2708     1.0  0.77002  0.82938  0.48845  1.0000
  H   H3231     1.0  0.64726  0.73338  0.49610  1.0000
  H   H3232     1.0  0.65722  0.68847  0.52050  1.0000
  C   C2709     1.0  0.70571  0.87412  0.54438  1.0000
  H   H3233     1.0  0.63381  0.70829  0.56606  1.0000
  N   N178      1.0  0.91356  0.88921  0.58899  1.0000
  C   C2710     1.0  0.90267  0.91033  0.59064  1.0000
  C   C2711     1.0  0.91840  0.87820  0.60766  1.0000
  C   C2712     1.0  0.93321  0.89014  0.57502  1.0000
  C   C2713     1.0  0.90085  0.87952  0.58263  1.0000
  C   C2714     1.0  0.89429  0.86118  0.59328  1.0000
  C   C2715     1.0  0.89455  0.88856  0.56525  1.0000
  C   C2716     1.0  0.88219  0.85258  0.58683  1.0000
  C   C2717     1.0  0.88241  0.87985  0.55899  1.0000
  C   C2718     1.0  0.87628  0.86189  0.56974  1.0000
  H   H3234     1.0  0.88742  0.91025  0.60033  1.0000
  H   H3235     1.0  0.91133  0.91783  0.59623  1.0000
  H   H3236     1.0  0.89997  0.92047  0.57694  1.0000
  H   H3237     1.0  0.90423  0.87752  0.61897  1.0000
  H   H3238     1.0  0.92741  0.86239  0.60734  1.0000
  H   H3239     1.0  0.93099  0.89982  0.56100  1.0000
  H   H3240     1.0  0.89794  0.85333  0.60680  1.0000
  H   H3241     1.0  0.89865  0.90266  0.55653  1.0000
  S   S729      1.0  0.64924  0.97916  0.69901  1.0000
  H   H3242     1.0  0.87730  0.88730  0.54595  1.0000
  H   H3243     1.0  0.86635  0.85547  0.56515  1.0000
  N   N179      1.0  0.64288  0.89438  0.60240  1.0000
  C   C2719     1.0  0.66310  0.89589  0.60432  1.0000
  C   C2720     1.0  0.64335  0.87251  0.60409  1.0000
  C   C2721     1.0  0.64047  0.90566  0.58310  1.0000
  C   C2722     1.0  0.62552  0.90262  0.61667  1.0000
  C   C2723     1.0  0.60510  0.90334  0.61608  1.0000
  C   C2724     1.0  0.62819  0.90968  0.63167  1.0000
  C   C2725     1.0  0.58845  0.91082  0.62951  1.0000
  C   C2726     1.0  0.61143  0.91696  0.64511  1.0000
  C   C2727     1.0  0.59162  0.91760  0.64401  1.0000
  H   H3244     1.0  0.66670  0.88663  0.61805  1.0000
  H   H3245     1.0  0.67574  0.89032  0.59302  1.0000
  H   H3246     1.0  0.66374  0.91205  0.60310  1.0000
  H   H3247     1.0  0.64451  0.86344  0.61858  1.0000
  H   H3248     1.0  0.65652  0.86569  0.59381  1.0000
  H   H3249     1.0  0.62942  0.87035  0.60097  1.0000
  H   H3250     1.0  0.65367  0.90018  0.57216  1.0000
  H   H3251     1.0  0.62673  0.90376  0.57951  1.0000
  H   H3252     1.0  0.63921  0.92228  0.58137  1.0000
  H   H3253     1.0  0.60187  0.89808  0.60520  1.0000
  H   H3254     1.0  0.64305  0.90999  0.63331  1.0000
  H   H3255     1.0  0.57299  0.91133  0.62871  1.0000
  H   H3256     1.0  0.57876  0.92335  0.65451  1.0000
  C   C2728     1.0  0.58102  0.78409  0.59271  1.0000
  H   H3257     1.0  0.57998  0.78843  0.55655  1.0000
  H   H3258     1.0  0.58605  0.79879  0.58983  1.0000
  H   H3259     1.0  0.56487  0.78781  0.59119  1.0000
  H   H3260     1.0  0.64054  0.68570  0.54356  1.0000
  H   H3261     1.0  0.92770  0.88607  0.61214  1.0000
  H   H3262     1.0  0.56544  0.70194  0.59414  1.0000
  H   H3263     1.0  0.78027  0.74992  0.52838  1.0000
  C   C2729     1.0  0.62851  0.70001  0.58015  1.0000
  H   H3264     1.0  0.94460  0.97368  0.65003  1.0000
  C   C2730     1.0  0.90172  0.98835  0.67130  1.0000
  C   C2731     1.0  0.62683  0.69250  0.61373  1.0000
  H   H3265     1.0  0.55405  0.97509  0.70382  1.0000
  C   C2732     1.0  0.58634  0.75205  0.58331  1.0000
  H   H3266     1.0  0.62197  0.77883  0.58049  1.0000
  S   S730      1.0  0.69453  0.72459  0.54484  1.0000
  H   H3267     1.0  0.57518  0.71111  0.61928  1.0000
  H   H3268     1.0  0.92455  0.95734  0.63821  1.0000
  C   C2733     1.0  0.78924  0.76117  0.52636  1.0000
  C   C2734     1.0  0.58071  0.74621  0.56908  1.0000
  H   H3269     1.0  0.68459  0.68192  0.56111  1.0000
  S   S731      1.0  0.65081  0.71980  0.59166  1.0000
  H   H3270     1.0  0.94335  0.89685  0.57969  1.0000
  H   H3271     1.0  0.67634  0.83933  0.53139  1.0000
  C   C2735     1.0  0.77366  0.77141  0.49036  1.0000
  S   S732      1.0  0.68415  0.76469  0.51135  1.0000
  C   C2736     1.0  0.71660  0.83686  0.51665  1.0000
  C   C2737     1.0  0.69845  0.84015  0.55642  1.0000
  H   H3272     1.0  0.61206  0.68338  0.57132  1.0000
  H   H3273     1.0  0.58220  0.75501  0.55472  1.0000
  H   H3274     1.0  0.71769  0.95437  0.64697  1.0000
  N   N180      1.0  0.59430  0.77082  0.57975  1.0000
  N   N181      1.0  0.70144  0.85517  0.52161  1.0000
  C   C2738     1.0  0.79109  0.76594  0.54257  1.0000
  C   C2739     1.0  0.63413  0.70316  0.59536  1.0000
  H   H3275     1.0  0.79396  0.73445  0.50393  1.0000
  H   H3276     1.0  0.60125  0.79725  0.55791  1.0000
  C   C2740     1.0  0.97239  0.95130  0.64495  1.0000
  H   H3277     1.0  0.97760  0.91054  0.62594  1.0000
  S   S733      1.0  0.60149  0.97319  0.64437  1.0000
  H   H3278     1.0  0.97752  0.97528  0.60254  1.0000
  H   H3279     1.0  0.96690  0.86387  0.70649  1.0000
  C   C2741     1.0  0.97634  0.98626  0.72308  1.0000
  H   H3280     1.0  0.69889  0.82724  0.58580  1.0000
  C   C2742     1.0  0.79794  0.77138  0.50798  1.0000
  C   C2743     1.0  0.59531  0.78320  0.56012  1.0000
  H   H3281     1.0  0.69236  0.82054  0.48989  1.0000
  Fe  Fe368     1.0  0.65428  0.77317  0.53101  1.0000
  H   H3282     1.0  0.88438  0.96411  0.71625  1.0000
  H   H3283     1.0  0.71871  0.78647  0.59062  1.0000
  H   H3284     1.0  0.50414  0.66459  0.70119  1.0000
  H   H3285     1.0  0.94159  0.87460  0.57289  1.0000
  C   C2744     1.0  0.57310  0.72843  0.57307  1.0000
  C   C2745     1.0  0.55592  0.93234  0.72767  1.0000
  C   C2746     1.0  0.78019  0.83540  0.49905  1.0000
  S   S734      1.0  0.64714  0.74193  0.53809  1.0000
  C   C2747     1.0  0.80131  0.78122  0.54099  1.0000
  S   S735      1.0  0.66807  0.76802  0.55593  1.0000
  C   C2748     1.0  0.73136  0.78173  0.54483  1.0000
  C   C2749     1.0  0.88997  0.91395  0.69498  1.0000
  N   N182      1.0  0.97535  0.89265  0.69190  1.0000
  C   C2750     1.0  0.70767  0.87426  0.56230  1.0000
  C   C2751     1.0  0.61437  0.67838  0.61679  1.0000
  H   H3286     1.0  0.66274  0.69628  0.53888  1.0000
  H   H3287     1.0  0.61510  0.95746  0.61321  1.0000
  H   H3288     1.0  0.54246  0.98054  0.73635  1.0000
  H   H3289     1.0  0.80212  0.78532  0.55360  1.0000
  H   H3290     1.0  0.74164  0.90574  0.49317  1.0000
  H   H3291     1.0  0.75682  0.82275  0.49541  1.0000
  C   C2752     1.0  0.87975  0.92081  0.73168  1.0000
  H   H3292     1.0  0.49789  0.99102  0.71638  1.0000
  C   C2753     1.0  0.98183  0.93369  0.63779  1.0000
  H   H3293     1.0  0.71867  0.83629  0.50162  1.0000
  H   H3294     1.0  0.53893  0.98761  0.68680  1.0000
  H   H3295     1.0  0.60902  0.67002  0.63094  1.0000
  C   C2754     1.0  0.65682  0.68439  0.53594  1.0000
  Fe  Fe369     1.0  0.62611  0.93512  0.49543  1.0000
  S   S736      1.0  0.59989  0.98614  0.68326  1.0000
  N   N183      1.0  0.99421  0.96964  0.71885  1.0000
  H   H3296     1.0  0.97697  0.88729  0.66453  1.0000
  C   C2755     1.0  0.52704  0.98807  0.73346  1.0000
  C   C2756     1.0  0.88430  0.97147  0.70118  1.0000
  H   H3297     1.0  0.96319  0.90460  0.72581  1.0000
  H   H3298     1.0  0.81482  0.79607  0.49361  1.0000
  C   C2757     1.0  0.98822  0.89119  0.70512  1.0000
  S   S737      1.0  0.92020  0.91812  0.73167  1.0000
  H   H3299     1.0  0.84846  0.92359  0.73017  1.0000
  N   N184      1.0  0.66895  0.66361  0.54175  1.0000
  C   C2758     1.0  0.69054  0.66287  0.53124  1.0000
  H   H3300     1.0  0.89914  0.98096  0.72911  1.0000
  H   H3301     1.0  0.81936  0.73902  0.49377  1.0000
  S   S738      1.0  0.63874  0.99249  0.64728  1.0000
  H   H3302     1.0  0.99457  0.86907  0.67741  1.0000
  H   H3303     1.0  0.67792  0.66862  0.73710  1.0000
  H   H3304     1.0  0.61379  0.97974  0.74320  1.0000
  C   C2759     1.0  0.59897  0.99054  0.74162  1.0000
  H   H3305     1.0  0.57015  0.98831  0.82520  1.0000
  C   C2760     1.0  0.87195  0.75269  0.94122  1.0000
  C   C2761     1.0  0.67227  0.74191  0.97257  1.0000
  S   S739      1.0  0.85451  0.68142  0.85834  1.0000
  H   H3306     1.0  0.81675  0.85564  0.80809  1.0000
  C   C2762     1.0  0.79968  0.68727  0.86657  1.0000
  H   H3307     1.0  0.64610  0.72557  0.94974  1.0000
  H   H3308     1.0  0.76407  0.68206  0.89821  1.0000
  H   H3309     1.0  0.83620  0.82841  0.79148  1.0000
  H   H3310     1.0  0.73891  0.83438  0.93749  1.0000
  Fe  Fe370     1.0  0.71254  0.67962  0.86818  1.0000
  S   S740      1.0  0.70065  0.70723  0.84777  1.0000
  H   H3311     1.0  0.77227  0.74434  0.95717  1.0000
  Fe  Fe371     1.0  0.68491  0.69470  0.90246  1.0000
  S   S741      1.0  0.67035  0.72382  0.88467  1.0000
  S   S742      1.0  0.67668  0.68577  0.93438  1.0000
  Fe  Fe372     1.0  0.66991  0.70342  0.86608  1.0000
  S   S743      1.0  0.64410  0.70734  0.85152  1.0000
  Fe  Fe373     1.0  0.70252  0.72472  0.86799  1.0000
  S   S744      1.0  0.71794  0.75170  0.85499  1.0000
  S   S745      1.0  0.68186  0.67429  0.88528  1.0000
  S   S746      1.0  0.71696  0.69722  0.88705  1.0000
  Fe  Fe374     1.0  0.83043  0.78639  0.88073  1.0000
  S   S747      1.0  0.80448  0.80817  0.86893  1.0000
  S   S748      1.0  0.85593  0.77102  0.86055  1.0000
  Fe  Fe375     1.0  0.81423  0.79659  0.91949  1.0000
  S   S749      1.0  0.78752  0.81974  0.91038  1.0000
  S   S750      1.0  0.81505  0.78631  0.95032  1.0000
  Fe  Fe376     1.0  0.78470  0.79599  0.89671  1.0000
  S   S751      1.0  0.75502  0.78488  0.90589  1.0000
  Fe  Fe377     1.0  0.81029  0.82945  0.88367  1.0000
  S   S752      1.0  0.81187  0.86226  0.86840  1.0000
  S   S753      1.0  0.81043  0.77239  0.90716  1.0000
  S   S754      1.0  0.83725  0.80814  0.89410  1.0000
  Fe  Fe378     1.0  0.90750  0.95552  0.78414  1.0000
  S   S755      1.0  0.92279  0.93347  0.80651  1.0000
  H   H3312     1.0  0.61249  0.67060  0.82367  1.0000
  Fe  Fe379     1.0  0.91571  0.92396  0.76059  1.0000
  S   S756      1.0  0.93168  0.89945  0.78110  1.0000
  H   H3313     1.0  0.92359  0.89928  0.85332  1.0000
  Fe  Fe380     1.0  0.90614  0.91121  0.80373  1.0000
  S   S757      1.0  0.89816  0.88682  0.83004  1.0000
  Fe  Fe381     1.0  0.94675  0.92347  0.78233  1.0000
  C   C2763     1.0  0.76736  0.69496  0.90133  1.0000
  S   S758      1.0  0.88864  0.93415  0.78291  1.0000
  S   S759      1.0  0.93288  0.94710  0.76016  1.0000
  C   C2764     1.0  0.65121  0.72744  0.96141  1.0000
  C   C2765     1.0  0.76540  0.71311  0.92509  1.0000
  H   H3314     1.0  0.89974  0.87011  0.79755  1.0000
  C   C2766     1.0  0.83229  0.73340  0.98085  1.0000
  H   H3315     1.0  0.84049  0.86066  0.77898  1.0000
  H   H3316     1.0  0.77703  0.83584  0.94856  1.0000
  C   C2767     1.0  0.70380  0.69037  0.97384  1.0000
  H   H3317     1.0  0.81445  0.83743  0.83017  1.0000
  H   H3318     1.0  0.95883  0.95294  0.79367  1.0000
  H   H3319     1.0  0.87975  0.84618  0.81899  1.0000
  H   H3320     1.0  0.88696  0.72965  0.96093  1.0000
  H   H3321     1.0  0.66742  0.66547  0.85613  1.0000
  C   C2768     1.0  0.83649  0.86482  0.90909  1.0000
  H   H3322     1.0  0.92195  0.97315  0.81034  1.0000
  S   S760      1.0  0.84130  0.66205  0.95406  1.0000
  C   C2769     1.0  0.81939  0.80324  0.96158  1.0000
  H   H3323     1.0  0.77041  0.70438  0.84535  1.0000
  H   H3324     1.0  0.96798  0.87588  0.86733  1.0000
  H   H3325     1.0  0.80084  0.88368  0.89875  1.0000
  H   H3326     1.0  0.78188  0.73830  0.85352  1.0000
  C   C2770     1.0  0.83246  0.81675  0.95201  1.0000
  Fe  Fe382     1.0  0.53230  0.94267  0.79184  1.0000
  H   H3327     1.0  0.85859  0.74575  0.90381  1.0000
  H   H3328     1.0  0.83917  0.81773  0.93713  1.0000
  C   C2771     1.0  0.83588  0.86909  0.85763  1.0000
  C   C2772     1.0  0.85379  0.85696  0.86300  1.0000
  C   C2773     1.0  0.87265  0.86272  0.85440  1.0000
  C   C2774     1.0  0.87392  0.88051  0.84014  1.0000
  C   C2775     1.0  0.85606  0.89265  0.83461  1.0000
  C   C2776     1.0  0.83707  0.88706  0.84349  1.0000
  H   H3329     1.0  0.85321  0.84318  0.87386  1.0000
  H   H3330     1.0  0.88639  0.85324  0.85877  1.0000
  H   H3331     1.0  0.85685  0.90643  0.82364  1.0000
  H   H3332     1.0  0.82329  0.89660  0.83925  1.0000
  C   C2777     1.0  0.72949  0.75937  0.86929  1.0000
  C   C2778     1.0  0.72337  0.75460  0.88898  1.0000
  C   C2779     1.0  0.73153  0.76236  0.90001  1.0000
  C   C2780     1.0  0.74633  0.77436  0.89149  1.0000
  C   C2781     1.0  0.75314  0.77839  0.87183  1.0000
  C   C2782     1.0  0.74450  0.77115  0.86075  1.0000
  H   H3333     1.0  0.71182  0.74555  0.89569  1.0000
  H   H3334     1.0  0.72619  0.75922  0.91519  1.0000
  H   H3335     1.0  0.76445  0.78773  0.86515  1.0000
  H   H3336     1.0  0.74925  0.77494  0.84551  1.0000
  C   C2783     1.0  0.69187  0.69298  0.94557  1.0000
  C   C2784     1.0  0.69213  0.68420  0.96467  1.0000
  C   C2785     1.0  0.71449  0.71437  0.94498  1.0000
  C   C2786     1.0  0.70318  0.70798  0.93574  1.0000
  H   H3337     1.0  0.76058  0.69068  0.86817  1.0000
  H   H3338     1.0  0.70276  0.71509  0.92114  1.0000
  C   C2787     1.0  0.64186  0.68544  0.84516  1.0000
  S   S761      1.0  0.98069  0.91645  0.77990  1.0000
  H   H3339     1.0  0.83565  0.80924  0.81275  1.0000
  H   H3340     1.0  0.80723  0.72456  0.85698  1.0000
  H   H3341     1.0  0.75250  0.79817  0.93994  1.0000
  C   C2788     1.0  0.62641  0.68677  0.83589  1.0000
  H   H3342     1.0  0.57799  0.98379  0.78850  1.0000
  H   H3343     1.0  0.90182  0.68396  0.92221  1.0000
  H   H3344     1.0  0.87116  0.76479  0.94807  1.0000
  H   H3345     1.0  0.61584  0.70118  0.83277  1.0000
  H   H3346     1.0  0.98423  0.90440  0.74679  1.0000
  H   H3347     1.0  0.53668  0.98101  0.82641  1.0000
  C   C2789     1.0  0.84420  0.82106  0.80329  1.0000
  H   H3348     1.0  0.97085  0.97772  0.80387  1.0000
  H   H3349     1.0  0.76951  0.68165  0.96577  1.0000
  C   C2790     1.0  0.96326  0.98576  0.74135  1.0000
  H   H3350     1.0  0.82773  0.72417  0.95753  1.0000
  C   C2791     1.0  0.82624  0.72081  0.97272  1.0000
  H   H3351     1.0  0.81261  0.68754  0.87238  1.0000
  H   H3352     1.0  0.79749  0.72102  0.83891  1.0000
  C   C2792     1.0  0.85431  0.70633  0.85933  1.0000
  C   C2793     1.0  0.86574  0.71817  0.84412  1.0000
  C   C2794     1.0  0.86616  0.73798  0.84470  1.0000
  C   C2795     1.0  0.85468  0.74628  0.86024  1.0000
  C   C2796     1.0  0.84276  0.73466  0.87528  1.0000
  C   C2797     1.0  0.84281  0.71455  0.87495  1.0000
  H   H3353     1.0  0.87462  0.71186  0.83202  1.0000
  H   H3354     1.0  0.87539  0.74690  0.83307  1.0000
  H   H3355     1.0  0.83382  0.74095  0.88730  1.0000
  H   H3356     1.0  0.83384  0.70552  0.88668  1.0000
  C   C2798     1.0  0.73422  0.83304  0.96718  1.0000
  H   H3357     1.0  0.77781  0.74028  0.91516  1.0000
  H   H3358     1.0  0.70705  0.70308  0.76421  1.0000
  H   H3359     1.0  0.75344  0.71814  0.86256  1.0000
  C   C2799     1.0  0.64519  0.71603  0.97966  1.0000
  H   H3360     1.0  0.79625  0.90540  0.90887  1.0000
  S   S762      1.0  0.52148  0.94568  0.82206  1.0000
  C   C2800     1.0  0.66223  0.67222  0.74586  1.0000
  H   H3361     1.0  0.77920  0.76872  0.94648  1.0000
  C   C2801     1.0  0.95130  0.94400  0.84223  1.0000
  C   C2802     1.0  0.85350  0.86199  0.78341  1.0000
  C   C2803     1.0  0.76141  0.69696  0.92010  1.0000
  C   C2804     1.0  0.74821  0.80363  0.95285  1.0000
  S   S763      1.0  0.50735  0.92790  0.79203  1.0000
  C   C2805     1.0  0.83727  0.82860  0.96192  1.0000
  C   C2806     1.0  0.86473  0.74193  0.91641  1.0000
  H   H3362     1.0  0.86900  0.81474  0.82693  1.0000
  N   N185      1.0  0.66159  0.66272  0.76620  1.0000
  H   H3363     1.0  0.75337  0.68606  0.93075  1.0000
  H   H3364     1.0  0.51787  0.97590  0.73889  1.0000
  C   C2807     1.0  0.69859  0.69130  0.77230  1.0000
  C   C2808     1.0  0.56855  0.93485  0.75375  1.0000
  C   C2809     1.0  0.98181  0.96528  0.79838  1.0000
  C   C2810     1.0  0.89259  0.68009  0.93683  1.0000
  H   H3365     1.0  0.88585  0.67252  0.97398  1.0000
  N   N186      1.0  0.96474  0.88787  0.83857  1.0000
  Fe  Fe383     1.0  0.50301  0.97620  0.81048  1.0000
  C   C2811     1.0  0.88208  0.87853  0.77628  1.0000
  H   H3366     1.0  0.98960  0.89805  0.81668  1.0000
  C   C2812     1.0  0.76627  0.76117  0.95489  1.0000
  C   C2813     1.0  0.73965  0.75806  0.98292  1.0000
  H   H3367     1.0  0.68340  0.67256  0.97229  1.0000
  C   C2814     1.0  0.77310  0.76020  0.98458  1.0000
  H   H3368     1.0  0.97872  0.92441  0.83213  1.0000
  C   C2815     1.0  0.87524  0.85380  0.80576  1.0000
  H   H3369     1.0  0.87709  0.67923  0.93606  1.0000
  H   H3370     1.0  0.96544  0.97311  0.75322  1.0000
  C   C2816     1.0  0.95328  0.90810  0.84247  1.0000
  H   H3371     1.0  0.87575  0.92370  0.74576  1.0000
  C   C2817     1.0  0.75013  0.79034  0.97066  1.0000
  N   N187      1.0  0.65245  0.76925  0.83491  1.0000
  C   C2818     1.0  0.65757  0.75472  0.82225  1.0000
  C   C2819     1.0  0.67163  0.76880  0.84021  1.0000
  C   C2820     1.0  0.63773  0.76163  0.85216  1.0000
  C   C2821     1.0  0.64336  0.79044  0.82626  1.0000
  C   C2822     1.0  0.63912  0.80639  0.83605  1.0000
  C   C2823     1.0  0.63783  0.79580  0.80844  1.0000
  C   C2824     1.0  0.63022  0.82647  0.82836  1.0000
  C   C2825     1.0  0.62893  0.81595  0.80089  1.0000
  C   C2826     1.0  0.62517  0.83125  0.81080  1.0000
  H   H3372     1.0  0.66835  0.75974  0.80881  1.0000
  H   H3373     1.0  0.66515  0.73914  0.82891  1.0000
  H   H3374     1.0  0.64363  0.75258  0.81913  1.0000
  H   H3375     1.0  0.68260  0.77581  0.82792  1.0000
  H   H3376     1.0  0.67959  0.75289  0.84550  1.0000
  H   H3377     1.0  0.66908  0.77684  0.85176  1.0000
  H   H3378     1.0  0.62296  0.76206  0.84884  1.0000
  H   H3379     1.0  0.64361  0.74548  0.85881  1.0000
  H   H3380     1.0  0.63440  0.77065  0.86313  1.0000
  H   H3381     1.0  0.64251  0.80340  0.84983  1.0000
  H   H3382     1.0  0.64012  0.78470  0.80008  1.0000
  H   H3383     1.0  0.62714  0.83840  0.83609  1.0000
  H   H3384     1.0  0.62483  0.81976  0.78727  1.0000
  H   H3385     1.0  0.61820  0.84683  0.80490  1.0000
  N   N188      1.0  0.82071  0.88099  0.91735  1.0000
  C   C2827     1.0  0.80845  0.89319  0.90317  1.0000
  C   C2828     1.0  0.83155  0.89481  0.92092  1.0000
  H   H3386     1.0  0.72270  0.72640  0.93738  1.0000
  C   C2829     1.0  0.80722  0.87143  0.93456  1.0000
  C   C2830     1.0  0.79627  0.85741  0.93349  1.0000
  C   C2831     1.0  0.80490  0.87519  0.95273  1.0000
  H   H3387     1.0  0.92042  0.67787  0.95479  1.0000
  H   H3388     1.0  0.66981  0.74861  0.94359  1.0000
  C   C2832     1.0  0.81084  0.80193  0.98091  1.0000
  H   H3389     1.0  0.81812  0.90054  0.88994  1.0000
  C   C2833     1.0  0.74032  0.82463  0.95124  1.0000
  C   C2834     1.0  0.79256  0.86526  0.96873  1.0000
  H   H3390     1.0  0.82059  0.90773  0.92665  1.0000
  H   H3391     1.0  0.84153  0.90176  0.90770  1.0000
  H   H3392     1.0  0.84164  0.88638  0.93101  1.0000
  S   S764      1.0  0.56533  0.93395  0.77785  1.0000
  C   C2835     1.0  0.62446  0.66945  0.83074  1.0000
  H   H3393     1.0  0.84758  0.87143  0.89664  1.0000
  H   H3394     1.0  0.79737  0.85375  0.92018  1.0000
  H   H3395     1.0  0.81290  0.88520  0.95519  1.0000
  H   H3396     1.0  0.62935  0.66432  0.77030  1.0000
  H   H3397     1.0  0.90432  0.93248  0.85957  1.0000
  H   H3398     1.0  0.70910  0.68775  0.79760  1.0000
  C   C2836     1.0  0.77736  0.70927  0.88689  1.0000
  H   H3399     1.0  0.80602  0.68485  0.85192  1.0000
  C   C2837     1.0  0.78116  0.72561  0.89248  1.0000
  C   C2838     1.0  0.77521  0.72741  0.91132  1.0000
  H   H3400     1.0  0.92206  0.69993  0.93551  1.0000
  H   H3401     1.0  0.75471  0.76448  0.94616  1.0000
  C   C2839     1.0  0.71490  0.70554  0.96398  1.0000
  H   H3402     1.0  0.76049  0.71481  0.93960  1.0000
  H   H3403     1.0  0.85315  0.83384  0.83994  1.0000
  H   H3404     1.0  0.79354  0.67358  0.87511  1.0000
  H   H3405     1.0  0.53895  0.92883  0.75656  1.0000
  H   H3406     1.0  0.94014  0.88092  0.83059  1.0000
  H   H3407     1.0  0.93695  0.99027  0.82641  1.0000
  H   H3408     1.0  0.95874  0.95681  0.83884  1.0000
  H   H3409     1.0  0.59993  0.96873  0.77617  1.0000
  H   H3410     1.0  0.96507  0.86809  0.82077  1.0000
  H   H3411     1.0  0.81393  0.69409  0.97763  1.0000
  S   S765      1.0  0.89686  0.98950  0.78222  1.0000
  C   C2840     1.0  0.92071  0.93028  0.85400  1.0000
  H   H3412     1.0  0.84746  0.83900  0.95462  1.0000
  H   H3413     1.0  0.78230  0.66541  0.94913  1.0000
  H   H3414     1.0  0.84362  0.81279  0.83958  1.0000
  N   N189      1.0  0.78400  0.70643  0.86720  1.0000
  H   H3415     1.0  0.63522  0.70592  0.98116  1.0000
  N   N190      1.0  0.89149  0.69505  0.94804  1.0000
  C   C2841     1.0  0.91265  0.69389  0.94948  1.0000
  C   C2842     1.0  0.93193  0.91129  0.85039  1.0000
  C   C2843     1.0  0.79301  0.72339  0.85363  1.0000
  C   C2844     1.0  0.88213  0.71633  0.93985  1.0000
  H   H3416     1.0  0.89121  0.88925  0.76686  1.0000
  C   C2845     1.0  0.87363  0.72165  0.92356  1.0000
  C   C2846     1.0  0.87927  0.68847  0.96724  1.0000
  C   C2847     1.0  0.73581  0.82044  0.98485  1.0000
  H   H3417     1.0  0.86329  0.68890  0.96681  1.0000
  H   H3418     1.0  0.85667  0.77298  0.91986  1.0000
  C   C2848     1.0  0.97499  0.95126  0.79261  1.0000
  H   H3419     1.0  0.63549  0.68469  0.77665  1.0000
  C   C2849     1.0  0.78428  0.84733  0.94962  1.0000
  C   C2850     1.0  0.76637  0.70485  0.86059  1.0000
  C   C2851     1.0  0.82446  0.84756  0.81999  1.0000
  H   H3420     1.0  0.91312  0.70268  0.95958  1.0000
  H   H3421     1.0  0.95648  0.89484  0.81175  1.0000
  C   C2852     1.0  0.86536  0.87575  0.77125  1.0000
  S   S766      1.0  0.72952  0.71393  0.97484  1.0000
  H   H3422     1.0  0.87366  0.71048  0.91603  1.0000
  N   N191      1.0  0.84538  0.83594  0.81358  1.0000
  C   C2853     1.0  0.88693  0.86765  0.79352  1.0000
  C   C2854     1.0  0.88097  0.73251  0.94845  1.0000
  C   C2855     1.0  0.85821  0.85039  0.80097  1.0000
  H   H3423     1.0  0.84526  0.85454  0.91967  1.0000
  H   H3424     1.0  0.78850  0.73739  0.88257  1.0000
  H   H3425     1.0  0.82976  0.85513  0.90396  1.0000
  H   H3426     1.0  0.94659  0.87017  0.86232  1.0000
  H   H3427     1.0  0.77362  0.84294  0.97978  1.0000
  H   H3428     1.0  0.86151  0.88441  0.75787  1.0000
  C   C2856     1.0  0.91999  0.98956  0.80668  1.0000
  N   N192      1.0  0.75727  0.76789  0.97305  1.0000
  H   H3429     1.0  0.57549  0.97091  0.77176  1.0000
  C   C2857     1.0  0.85324  0.82389  0.83067  1.0000
  H   H3430     1.0  0.82481  0.85935  0.82725  1.0000
  H   H3431     1.0  0.85978  0.81290  0.79731  1.0000
  S   S767      1.0  0.51612  0.97410  0.78043  1.0000
  C   C2858     1.0  0.86378  0.75735  0.92529  1.0000
  C   C2859     1.0  0.58517  0.97959  0.77459  1.0000
  C   C2860     1.0  0.96268  0.87198  0.85636  1.0000
  S   S768      1.0  0.82179  0.66776  0.91193  1.0000
  C   C2861     1.0  0.81835  0.70395  0.98403  1.0000
  C   C2862     1.0  0.93036  0.94662  0.84990  1.0000
  C   C2863     1.0  0.58679  0.93873  0.74119  1.0000
  C   C2864     1.0  0.95624  0.88268  0.82490  1.0000
  C   C2865     1.0  0.78239  0.85126  0.96720  1.0000
  H   H3432     1.0  0.92154  0.96144  0.85238  1.0000
  H   H3433     1.0  0.59888  0.94093  0.74641  1.0000
  H   H3434     1.0  0.78591  0.76836  0.97840  1.0000
  H   H3435     1.0  0.87855  0.69834  0.97685  1.0000
  C   C2866     1.0  0.68642  0.68491  0.76394  1.0000
  C   C2867     1.0  0.55302  0.93191  0.74693  1.0000
  C   C2868     1.0  0.98905  0.93489  0.78595  1.0000
  C   C2869     1.0  0.82930  0.82671  0.98142  1.0000
  C   C2870     1.0  0.69982  0.68268  0.79107  1.0000
  H   H3436     1.0  0.97177  0.85667  0.85412  1.0000
  H   H3437     1.0  0.89977  0.66428  0.94335  1.0000
  H   H3438     1.0  0.79174  0.86766  0.98258  1.0000
  H   H3439     1.0  0.68604  0.69234  0.74941  1.0000
  C   C2871     1.0  0.74344  0.79940  0.98663  1.0000
  C   C2872     1.0  0.78241  0.66862  0.96275  1.0000
  H   H3440     1.0  0.72811  0.84932  0.96586  1.0000
  C   C2873     1.0  0.66466  0.74037  0.95789  1.0000
  H   H3441     1.0  0.72767  0.76276  0.97446  1.0000
  H   H3442     1.0  0.79697  0.67383  0.95993  1.0000
  C   C2874     1.0  0.96268  0.92510  0.83849  1.0000
  C   C2875     1.0  0.98694  0.88700  0.83051  1.0000
  H   H3443     1.0  0.98400  0.94515  0.74137  1.0000
  H   H3444     1.0  0.83786  0.74639  0.97126  1.0000
  C   C2876     1.0  0.68900  0.66756  0.80154  1.0000
  C   C2877     1.0  0.65539  0.66672  0.84915  1.0000
  C   C2878     1.0  0.67514  0.66950  0.77428  1.0000
  H   H3445     1.0  0.65663  0.68910  0.74351  1.0000
  H   H3446     1.0  0.68339  0.75134  0.96962  1.0000
  C   C2879     1.0  0.64018  0.66808  0.77666  1.0000
  H   H3447     1.0  0.65210  0.66647  0.74023  1.0000
  H   H3448     1.0  0.77961  0.74355  0.98561  1.0000
  H   H3449     1.0  0.83854  0.76865  0.98664  1.0000
  H   H3450     1.0  0.99448  0.89030  0.84026  1.0000
  H   H3451     1.0  0.74442  0.74117  0.98552  1.0000
  H   H3452     1.0  0.63786  0.65964  0.79169  1.0000
  Fe  Fe384     1.0  0.84664  0.66118  0.88692  1.0000
  C   C2880     1.0  0.67689  0.66101  0.79331  1.0000
  H   H3453     1.0  0.58966  0.98235  0.73761  1.0000
  H   H3454     1.0  0.68982  0.66097  0.81621  1.0000
  H   H3455     1.0  0.99520  0.98979  0.84063  1.0000
  H   H3456     1.0  0.99512  0.87166  0.82768  1.0000
