data_image0
_chemical_formula_structural       CHSCH3FeS2FeS2FeSFeS3FeS2FeS2FeSFeS3FeS2FeS2FeSFeS3HC7H6C3H4C5H2C6H4C4H7NHC2H2C5H3C6H5CH3C2H2NH2C2H3C3HC2NHC3HNHC3H3CNH4SHNHC2HC2H5C2H2CHC3H3CH2CHFeCH2C2HCHCH2CNC9H14NHNC6HC2H8CHCH2CH2CH4C3HCHCH4C2H2CHCHCH3SC3HCSCHC2HSH3C3HC2H2C2HCH3CHC2HC2H6C2H8CH2C2HC2HCH6C2HCH2C2NH4S3CFeSHFeS2FeSFeS3FeS2FeHFeC2FeSHS2C2SC3FeHCH5C2NH3NC6H4C6H4CH3C3HC5HSCHC3H2C2H2C2NC6HC3NH3CH2SH2CHS2H2C2H7FeSH2C4FeH4C2SCHSH2CHSHCH5NCFeH2CHCNC5H2CH4CH2CHCH2C2HCH3C4FeCH2C2FeS2H2CFeSFeCS2CHC2H2CHSC3H2CH2CHCHC3SCFeH2SH3NHSHFeH2CHFeSCHCFeSCH2SFeSCHSFeSFeSHS2CH2C3HC4FeHCHCH2C6H5NC7H15CSC4H5FeSCHC3HCHSCH3C3NH3C2HCH2CH2CHNSH2SC2FeS2FeS2FeSFeCS2HC2HC2NHCHC2NHCH4CHC3HCH2C3HCNH2C4H5SHCH2SH4CH4C4H2CHC3H2C3H2CHCH2FeCHC2HSHC2HC2H7CHCHCHCHCHFeS2FeS2FeS2FeSCFeSFe2S2FeS2HFeSFeS2FeS2FeS2FeSFeS3FeS2FeS2FeSFeS3C4SH3C2H2C6H6C4HSC7H6C5H2C6H7CHC6H4C6H3NC9H8CH5NC6H4CH3CH2CSHCSH4FeNC6HCH12CH2CHCHCNCHC2H6CH3CH5C2HC2H2CH7C2H2SHCH2SCH6CNC3HCH4CH2CHSHCHC2H4C2HC5H3C2HCH2CHCH2CH3CH2NHFeCHC3H6SCHCH3CNC2HNH3CHCHC2HC3HC4HCH2CHC4HC2NCH2C2NCSHFeS2FeS2FeSFeCS2FeS2FeS2FeCFeS3FeS2FeS2FeSFeS3C2HC2H3C7H5C2H3C6H4C3H2C3H2C5H3C6H4NHCHCHC2HC2HCH3CNCH2CH2C2HNC9H14NC7HCH5C3H6NC8H12C3H2CHC4H2CHFeHSH2SH3CH2C2SH4C4H5CH3NCH6C3H3C2HC2H8CHCH3C2H4C3S3FeS2FeS2FeSFeS3HCSFeSHFeSHCS3H2SFeSFeS2FeSFeHFeS2HC5FeHCH2C7H4C3H2CHCHC6H5C3NH3C4HCH5SHC2HFeH2NHS2HCH3C2HC2HC3HFeH2C2HSCNC9H13CH2FeNC9H14NC7H16CHSHC2H4CHCHC2HCHC2H2NH2CHS2CH2CH2CHCHCSCHCHC3FeHSC2HCHC2H2C4H2CHSH3CHCHCFeHCHCH3NSFe2CH2CH4NHCHCH5C3H2CHSH2SHSC2HC2SHC3H2CH2S2FeHSC5H2CHC2H2C6H2SHCHC2NHCH6CHC2NH3SFeH3C2H4SNH2SHCHFeSCSFeS2FeS2H2FeS3FeS2FeS2FeSFeS3H2C3H2C4HNHCH2NCH4C2H2C4H2C7H5C4HCHC2H2C2HSHNC9H14SC2H4FeC2HCH3SCH3C2HCH3CH2CHC2HC2H3CH3FeC4HNHC2H2CHCH3C3HCHNC3H7C2H3CHC2H2CNH4CH2CHCH2CHFeHCHCHC2H6CFeS2Fe2S2FeS2FeS2FeSFeHS2FeS2H2SFeCSFeS2FeS2FeSFeS3FeS2FeS2FeCFeS3C2H3NC2H2CHCHC6H5CHSC7H4C6H4C5H3SCHC7H4C6H5SHNC9H15CHCH2C4H5SC2NC9H14NCSHNC8H12C2HCH2CHCH4Fe2H5C2SHN2CHSH2CH3SH2CH2C3HNC2H3FeH2C2H4CHC2H2C2H4CH2C2H2CHCSCHC4HCHCHCH8C2H3CHC2H3C3HCHCHC
_chemical_formula_sum              "C960 H1152 S256 Fe128 N64"
_cell_length_a       42.7426
_cell_length_b       42.3132
_cell_length_c       83.359
_cell_angle_alpha    90.111
_cell_angle_beta     89.8916
_cell_angle_gamma    87.1733

_space_group_name_H-M_alt    "P 1"
_space_group_IT_number       1

loop_
  _space_group_symop_operation_xyz
  'x, y, z'

loop_
  _atom_site_type_symbol
  _atom_site_label
  _atom_site_symmetry_multiplicity
  _atom_site_fract_x
  _atom_site_fract_y
  _atom_site_fract_z
  _atom_site_occupancy
  C   C1        1.0  0.24126  0.44301  0.11950  1.0000
  H   H1        1.0  0.06397  0.06774  0.12794  1.0000
  S   S1        1.0  0.43872  0.38075  0.32032  1.0000
  C   C2        1.0  0.03267  0.21092  0.12493  1.0000
  H   H2        1.0  0.29994  0.22604  0.24080  1.0000
  H   H3        1.0  0.08677  0.48886  0.01659  1.0000
  H   H4        1.0  0.15541  0.04242  0.22007  1.0000
  Fe  Fe1       1.0  0.15984  0.10838  0.22201  1.0000
  S   S2        1.0  0.15604  0.16077  0.21853  1.0000
  S   S3        1.0  0.17209  0.08789  0.24651  1.0000
  Fe  Fe2       1.0  0.14103  0.09455  0.18715  1.0000
  S   S4        1.0  0.13573  0.14682  0.18152  1.0000
  S   S5        1.0  0.13596  0.06250  0.16513  1.0000
  Fe  Fe3       1.0  0.18053  0.15070  0.19526  1.0000
  S   S6        1.0  0.21740  0.18282  0.18656  1.0000
  Fe  Fe4       1.0  0.11177  0.15214  0.20538  1.0000
  S   S7        1.0  0.07096  0.18367  0.21401  1.0000
  S   S8        1.0  0.18779  0.09868  0.19940  1.0000
  S   S9        1.0  0.11353  0.09975  0.21025  1.0000
  Fe  Fe5       1.0  0.14722  0.36778  0.12778  1.0000
  S   S10       1.0  0.19435  0.36135  0.11571  1.0000
  S   S11       1.0  0.12483  0.41254  0.13810  1.0000
  Fe  Fe6       1.0  0.13543  0.29778  0.12760  1.0000
  S   S12       1.0  0.18073  0.28583  0.11507  1.0000
  S   S13       1.0  0.10710  0.25990  0.13864  1.0000
  Fe  Fe7       1.0  0.20238  0.31950  0.13227  1.0000
  S   S14       1.0  0.24393  0.29596  0.14558  1.0000
  Fe  Fe8       1.0  0.16867  0.32831  0.09967  1.0000
  S   S15       1.0  0.17577  0.32414  0.07276  1.0000
  S   S16       1.0  0.15736  0.32907  0.14554  1.0000
  S   S17       1.0  0.12119  0.33733  0.11083  1.0000
  Fe  Fe9       1.0  0.37442  0.28669  0.24865  1.0000
  S   S18       1.0  0.40356  0.24197  0.24446  1.0000
  S   S19       1.0  0.35865  0.29644  0.27428  1.0000
  Fe  Fe10      1.0  0.37073  0.30145  0.21262  1.0000
  S   S20       1.0  0.40121  0.25830  0.20592  1.0000
  S   S21       1.0  0.34861  0.33679  0.19479  1.0000
  Fe  Fe11      1.0  0.37099  0.23392  0.22385  1.0000
  S   S22       1.0  0.34974  0.18632  0.22053  1.0000
  Fe  Fe12      1.0  0.43142  0.27023  0.22721  1.0000
  S   S23       1.0  0.48422  0.27338  0.23203  1.0000
  S   S24       1.0  0.33949  0.27631  0.22946  1.0000
  S   S25       1.0  0.40328  0.31579  0.23243  1.0000
  H   H5        1.0  0.06545  0.38842  0.10139  1.0000
  C   C3        1.0  0.02455  0.22440  0.11014  1.0000
  C   C4        1.0  0.26990  0.30943  0.16046  1.0000
  C   C5        1.0  0.28473  0.28686  0.17057  1.0000
  C   C6        1.0  0.30811  0.29525  0.18139  1.0000
  C   C7        1.0  0.31724  0.32639  0.18221  1.0000
  C   C8        1.0  0.30179  0.34937  0.17245  1.0000
  C   C9        1.0  0.27805  0.34099  0.16167  1.0000
  H   H6        1.0  0.27872  0.26249  0.16977  1.0000
  H   H7        1.0  0.31991  0.27743  0.18874  1.0000
  H   H8        1.0  0.30867  0.37361  0.17303  1.0000
  H   H9        1.0  0.26700  0.35866  0.15391  1.0000
  H   H10       1.0  0.06930  0.11845  0.15357  1.0000
  H   H11       1.0  0.26046  0.20304  0.29518  1.0000
  C   C10       1.0  0.05822  0.22179  0.13352  1.0000
  C   C11       1.0  0.07541  0.24658  0.12751  1.0000
  C   C12       1.0  0.06727  0.26010  0.11272  1.0000
  H   H12       1.0  0.09686  0.07966  0.11623  1.0000
  H   H13       1.0  0.21525  0.03330  0.20048  1.0000
  H   H14       1.0  0.06490  0.21070  0.14476  1.0000
  H   H15       1.0  0.08055  0.27905  0.10794  1.0000
  C   C13       1.0  0.09569  0.46917  0.12994  1.0000
  C   C14       1.0  0.11169  0.44165  0.12430  1.0000
  C   C15       1.0  0.11865  0.43863  0.10793  1.0000
  C   C16       1.0  0.04238  0.21575  0.25862  1.0000
  C   C17       1.0  0.05877  0.04249  0.02842  1.0000
  H   H16       1.0  0.13083  0.41738  0.10345  1.0000
  H   H17       1.0  0.12705  0.15210  0.27671  1.0000
  C   C18       1.0  0.25228  0.18439  0.19777  1.0000
  C   C19       1.0  0.26490  0.15784  0.20590  1.0000
  C   C20       1.0  0.29476  0.15863  0.21297  1.0000
  C   C21       1.0  0.31172  0.18619  0.21231  1.0000
  C   C22       1.0  0.29849  0.21300  0.20472  1.0000
  C   C23       1.0  0.26918  0.21189  0.19722  1.0000
  H   H18       1.0  0.25221  0.13636  0.20627  1.0000
  H   H19       1.0  0.30486  0.13779  0.21887  1.0000
  H   H20       1.0  0.31131  0.23428  0.20422  1.0000
  H   H21       1.0  0.25954  0.23250  0.19101  1.0000
  C   C24       1.0  0.05453  0.21490  0.20232  1.0000
  C   C25       1.0  0.06279  0.21900  0.18624  1.0000
  C   C26       1.0  0.04833  0.24385  0.17731  1.0000
  C   C27       1.0  0.15897  0.34541  0.04281  1.0000
  H   H22       1.0  0.01865  0.23076  0.30299  1.0000
  H   H23       1.0  0.02884  0.20638  0.00916  1.0000
  H   H24       1.0  0.07993  0.20287  0.18063  1.0000
  H   H25       1.0  0.05491  0.24741  0.16496  1.0000
  H   H26       1.0  0.42276  0.26284  0.27907  1.0000
  H   H27       1.0  0.24753  0.45376  0.13120  1.0000
  H   H28       1.0  0.02826  0.10402  0.11580  1.0000
  N   N1        1.0  0.07243  0.30232  0.02379  1.0000
  H   H29       1.0  0.10455  0.41462  0.05842  1.0000
  C   C28       1.0  0.15460  0.34947  0.05941  1.0000
  C   C29       1.0  0.13431  0.37405  0.06497  1.0000
  H   H30       1.0  0.17490  0.32664  0.03845  1.0000
  H   H31       1.0  0.13102  0.37760  0.07773  1.0000
  C   C30       1.0  0.19427  0.16906  0.26909  1.0000
  C   C31       1.0  0.19004  0.14602  0.25727  1.0000
  C   C32       1.0  0.18145  0.11573  0.26152  1.0000
  C   C33       1.0  0.17930  0.10808  0.27791  1.0000
  C   C34       1.0  0.18417  0.13113  0.28986  1.0000
  H   H32       1.0  0.20012  0.19264  0.26553  1.0000
  H   H33       1.0  0.19371  0.15178  0.24486  1.0000
  H   H34       1.0  0.17313  0.08456  0.28137  1.0000
  C   C35       1.0  0.41424  0.35911  0.30774  1.0000
  C   C36       1.0  0.39267  0.33855  0.31399  1.0000
  C   C37       1.0  0.37471  0.32049  0.30357  1.0000
  C   C38       1.0  0.37884  0.32219  0.28686  1.0000
  C   C39       1.0  0.40013  0.34300  0.28062  1.0000
  C   C40       1.0  0.41748  0.36164  0.29103  1.0000
  H   H35       1.0  0.38981  0.33656  0.32684  1.0000
  H   H36       1.0  0.35822  0.30455  0.30853  1.0000
  H   H37       1.0  0.40330  0.34471  0.26778  1.0000
  H   H38       1.0  0.43394  0.37769  0.28611  1.0000
  H   H39       1.0  0.05172  0.33869  0.15031  1.0000
  C   C41       1.0  0.08302  0.08483  0.12732  1.0000
  H   H40       1.0  0.09862  0.13623  0.25379  1.0000
  H   H41       1.0  0.23375  0.41883  0.12239  1.0000
  H   H42       1.0  0.11813  0.21950  0.26245  1.0000
  C   C42       1.0  0.21252  0.29085  0.19441  1.0000
  C   C43       1.0  0.19303  0.24827  0.21041  1.0000
  H   H43       1.0  0.07139  0.42106  0.16283  1.0000
  H   H44       1.0  0.09002  0.47153  0.14256  1.0000
  N   N2        1.0  0.05792  0.01357  0.03846  1.0000
  H   H45       1.0  0.18953  0.01284  0.17985  1.0000
  H   H46       1.0  0.04780  0.21181  0.24608  1.0000
  C   C44       1.0  0.48197  0.24031  0.27504  1.0000
  C   C45       1.0  0.01602  0.23533  0.26236  1.0000
  H   H47       1.0  0.07613  0.29151  0.04896  1.0000
  H   H48       1.0  0.15728  0.21476  0.18827  1.0000
  H   H49       1.0  0.11223  0.00799  0.18289  1.0000
  C   C46       1.0  0.09676  0.16367  0.11392  1.0000
  C   C47       1.0  0.02502  0.26398  0.18424  1.0000
  C   C48       1.0  0.03612  0.39998  0.13948  1.0000
  H   H50       1.0  0.06742  0.36439  0.12778  1.0000
  C   C49       1.0  0.11072  0.19777  0.25627  1.0000
  C   C50       1.0  0.04514  0.31178  0.28172  1.0000
  N   N3        1.0  0.03783  0.38726  0.15603  1.0000
  H   H51       1.0  0.11457  0.31445  0.01118  1.0000
  C   C51       1.0  0.23927  0.27476  0.21885  1.0000
  C   C52       1.0  0.08836  0.50097  0.02839  1.0000
  C   C53       1.0  0.02421  0.32219  0.26984  1.0000
  H   H52       1.0  0.16127  0.20219  0.12509  1.0000
  N   N4        1.0  0.08886  0.18029  0.26643  1.0000
  H   H53       1.0  0.12586  0.29202  0.17462  1.0000
  C   C54       1.0  0.14395  0.23795  0.18788  1.0000
  C   C55       1.0  0.18996  0.26760  0.19649  1.0000
  C   C56       1.0  0.19085  0.42553  0.06472  1.0000
  H   H54       1.0  0.21996  0.23619  0.23160  1.0000
  H   H55       1.0  0.28641  0.17206  0.24805  1.0000
  H   H56       1.0  0.09841  0.07919  0.13773  1.0000
  C   C57       1.0  0.22701  0.49470  0.10936  1.0000
  N   N5        1.0  0.16487  0.26415  0.18445  1.0000
  H   H57       1.0  0.26656  0.16098  0.27533  1.0000
  H   H58       1.0  0.17745  0.22958  0.21286  1.0000
  H   H59       1.0  0.11683  0.18735  0.28764  1.0000
  H   H60       1.0  0.23646  0.40450  0.09623  1.0000
  S   S26       1.0  0.19304  0.19353  0.29925  1.0000
  H   H61       1.0  0.08726  0.34688  0.01458  1.0000
  N   N6        1.0  0.07032  0.11811  0.12759  1.0000
  H   H62       1.0  0.26306  0.44093  0.11216  1.0000
  C   C58       1.0  0.05211  0.20745  0.28697  1.0000
  C   C59       1.0  0.01716  0.26013  0.20036  1.0000
  H   H63       1.0  0.25411  0.31173  0.20336  1.0000
  C   C60       1.0  0.05273  0.38560  0.12638  1.0000
  C   C61       1.0  0.21163  0.40791  0.07441  1.0000
  H   H64       1.0  0.16109  0.25358  0.15914  1.0000
  H   H65       1.0  0.21354  0.03748  0.22170  1.0000
  H   H66       1.0  0.03441  0.14522  0.11462  1.0000
  H   H67       1.0  0.13229  0.18303  0.25335  1.0000
  H   H68       1.0  0.06176  0.13894  0.26438  1.0000
  C   C62       1.0  0.43881  0.26529  0.28948  1.0000
  C   C63       1.0  0.04707  0.25100  0.01624  1.0000
  H   H69       1.0  0.04115  0.04226  0.01859  1.0000
  H   H70       1.0  0.17460  0.48819  0.08904  1.0000
  C   C64       1.0  0.01690  0.44148  0.12084  1.0000
  H   H71       1.0  0.06004  0.34991  0.17029  1.0000
  C   C65       1.0  0.11094  0.46377  0.09744  1.0000
  C   C66       1.0  0.22032  0.41952  0.08940  1.0000
  C   C67       1.0  0.18807  0.46318  0.12164  1.0000
  H   H72       1.0  0.04541  0.14919  0.14421  1.0000
  H   H73       1.0  0.00433  0.44016  0.14545  1.0000
  H   H74       1.0  0.03333  0.10914  0.14442  1.0000
  C   C68       1.0  0.08381  0.01476  0.05026  1.0000
  H   H75       1.0  0.11681  0.46164  0.08486  1.0000
  H   H76       1.0  0.10030  0.20485  0.24452  1.0000
  C   C69       1.0  0.10597  0.22032  0.01225  1.0000
  H   H77       1.0  0.19312  0.47231  0.13385  1.0000
  Fe  Fe13      1.0  0.19782  0.19840  0.32635  1.0000
  C   C70       1.0  0.15651  0.02421  0.21037  1.0000
  H   H78       1.0  0.03191  0.32393  0.25748  1.0000
  H   H79       1.0  0.16233  0.16066  0.14606  1.0000
  C   C71       1.0  0.03353  0.49329  0.03308  1.0000
  C   C72       1.0  0.17908  0.25791  0.16842  1.0000
  H   H80       1.0  0.07876  0.16664  0.10490  1.0000
  C   C73       1.0  0.05392  0.12403  0.14309  1.0000
  H   H81       1.0  0.16857  0.47867  0.11673  1.0000
  C   C74       1.0  0.07846  0.15262  0.25725  1.0000
  H   H82       1.0  0.50063  0.33104  0.32771  1.0000
  H   H83       1.0  0.03390  0.20263  0.33082  1.0000
  C   C75       1.0  0.08914  0.32109  0.01177  1.0000
  N   N7        1.0  0.28647  0.18812  0.14805  1.0000
  C   C76       1.0  0.29147  0.18048  0.13081  1.0000
  C   C77       1.0  0.28220  0.15782  0.15658  1.0000
  C   C78       1.0  0.25704  0.20790  0.14975  1.0000
  C   C79       1.0  0.31298  0.20583  0.15424  1.0000
  C   C80       1.0  0.32147  0.23416  0.14661  1.0000
  C   C81       1.0  0.33036  0.19636  0.16812  1.0000
  C   C82       1.0  0.34606  0.25160  0.15236  1.0000
  C   C83       1.0  0.35477  0.21410  0.17381  1.0000
  C   C84       1.0  0.36266  0.24160  0.16593  1.0000
  H   H84       1.0  0.31443  0.16740  0.12892  1.0000
  H   H85       1.0  0.27278  0.16567  0.12601  1.0000
  H   H86       1.0  0.29112  0.20201  0.12317  1.0000
  H   H87       1.0  0.30361  0.14182  0.15581  1.0000
  H   H88       1.0  0.26239  0.14483  0.15156  1.0000
  H   H89       1.0  0.27632  0.16189  0.16943  1.0000
  H   H90       1.0  0.25721  0.22982  0.14243  1.0000
  H   H91       1.0  0.23615  0.19502  0.14604  1.0000
  H   H92       1.0  0.25326  0.21540  0.16243  1.0000
  H   H93       1.0  0.30833  0.24383  0.13653  1.0000
  H   H94       1.0  0.32517  0.17578  0.17510  1.0000
  H   H95       1.0  0.35141  0.27373  0.14667  1.0000
  H   H96       1.0  0.36712  0.20685  0.18468  1.0000
  H   H97       1.0  0.38103  0.25577  0.17063  1.0000
  N   N8        1.0  0.21612  0.46209  0.11115  1.0000
  H   H98       1.0  0.14796  0.36334  0.01909  1.0000
  N   N9        1.0  0.27046  0.26652  0.29154  1.0000
  C   C85       1.0  0.29602  0.26285  0.30347  1.0000
  C   C86       1.0  0.27118  0.29884  0.28463  1.0000
  C   C87       1.0  0.23987  0.26455  0.29994  1.0000
  C   C88       1.0  0.27464  0.24102  0.27940  1.0000
  C   C89       1.0  0.26832  0.20931  0.28333  1.0000
  C   C90       1.0  0.28668  0.24637  0.26377  1.0000
  H   H99       1.0  0.10674  0.01801  0.04426  1.0000
  C   C91       1.0  0.29053  0.22168  0.25263  1.0000
  C   C92       1.0  0.28309  0.19107  0.25672  1.0000
  H   H100      1.0  0.31939  0.26312  0.29753  1.0000
  H   H101      1.0  0.29482  0.28234  0.31248  1.0000
  H   H102      1.0  0.29504  0.24027  0.31022  1.0000
  H   H103      1.0  0.26614  0.31748  0.29387  1.0000
  H   H104      1.0  0.25366  0.30233  0.27487  1.0000
  H   H105      1.0  0.23456  0.28539  0.30785  1.0000
  H   H106      1.0  0.22028  0.26284  0.29125  1.0000
  H   H107      1.0  0.23925  0.24388  0.30807  1.0000
  C   C93       1.0  0.27214  0.18487  0.27208  1.0000
  H   H108      1.0  0.29392  0.26928  0.25998  1.0000
  C   C94       1.0  0.21743  0.25186  0.22135  1.0000
  H   H109      1.0  0.25859  0.27696  0.22712  1.0000
  H   H110      1.0  0.02751  0.31513  0.01326  1.0000
  C   C95       1.0  0.19099  0.16196  0.28541  1.0000
  H   H111      1.0  0.18166  0.12533  0.30242  1.0000
  H   H112      1.0  0.29473  0.30386  0.27989  1.0000
  C   C96       1.0  0.14354  0.36599  0.03182  1.0000
  H   H113      1.0  0.11974  0.20400  0.10457  1.0000
  H   H114      1.0  0.03581  0.32012  0.33113  1.0000
  H   H115      1.0  0.03561  0.25952  0.09261  1.0000
  H   H116      1.0  0.03120  0.48194  0.02112  1.0000
  C   C97       1.0  0.12386  0.39103  0.03739  1.0000
  C   C98       1.0  0.11929  0.39496  0.05399  1.0000
  C   C99       1.0  0.20786  0.44918  0.09524  1.0000
  H   H117      1.0  0.05262  0.30109  0.30622  1.0000
  C   C100      1.0  0.14380  0.18447  0.12513  1.0000
  H   H118      1.0  0.02358  0.26142  0.01713  1.0000
  C   C101      1.0  0.23676  0.29427  0.20543  1.0000
  H   H119      1.0  0.03163  0.43244  0.16825  1.0000
  H   H120      1.0  0.23423  0.00359  0.21284  1.0000
  H   H121      1.0  0.06926  0.30545  0.27855  1.0000
  H   H122      1.0  0.42973  0.28603  0.29654  1.0000
  C   C102      1.0  0.06131  0.20122  0.27079  1.0000
  C   C103      1.0  0.17800  0.45449  0.07012  1.0000
  H   H123      1.0  0.19566  0.23685  0.16873  1.0000
  H   H124      1.0  0.01913  0.19232  0.12980  1.0000
  C   C104      1.0  0.03406  0.42722  0.10835  1.0000
  H   H125      1.0  0.02596  0.23318  0.22185  1.0000
  C   C105      1.0  0.04191  0.24897  0.10404  1.0000
  H   H126      1.0  0.05759  0.11716  0.10254  1.0000
  C   C106      1.0  0.14490  0.29377  0.18370  1.0000
  H   H127      1.0  0.12180  0.12209  0.14700  1.0000
  H   H128      1.0  0.08078  0.17961  0.00532  1.0000
  H   H129      1.0  0.21197  0.30627  0.18407  1.0000
  S   S27       1.0  0.00548  0.29339  0.17258  1.0000
  C   C107      1.0  0.12080  0.13932  0.13743  1.0000
  C   C108      1.0  0.03991  0.31625  0.02499  1.0000
  C   C109      1.0  0.12506  0.02383  0.15939  1.0000
  H   H130      1.0  0.06497  0.19759  0.29708  1.0000
  C   C110      1.0  0.01640  0.30358  0.33040  1.0000
  S   S28       1.0  0.10752  0.41994  0.02420  1.0000
  C   C111      1.0  0.04881  0.41191  0.16709  1.0000
  H   H131      1.0  0.08386  0.36413  0.15437  1.0000
  C   C112      1.0  0.10686  0.16794  0.28050  1.0000
  C   C113      1.0  0.00997  0.00624  0.12842  1.0000
  H   H132      1.0  0.05466  0.06439  0.03568  1.0000
  S   S29       1.0  0.17994  0.24737  0.33344  1.0000
  H   H133      1.0  0.13104  0.24164  0.19939  1.0000
  H   H134      1.0  0.15845  0.31448  0.18030  1.0000
  H   H135      1.0  0.03871  0.47367  0.04171  1.0000
  C   C114      1.0  0.14419  0.16128  0.13697  1.0000
  C   C115      1.0  0.07413  0.26850  0.01905  1.0000
  C   C116      1.0  0.49081  0.27444  0.29874  1.0000
  H   H136      1.0  0.05235  0.40269  0.17948  1.0000
  C   C117      1.0  0.05166  0.39915  0.11106  1.0000
  C   C118      1.0  0.12036  0.18543  0.11354  1.0000
  H   H137      1.0  0.09636  0.48235  0.03711  1.0000
  H   H138      1.0  0.03950  0.34173  0.02843  1.0000
  C   C119      1.0  0.05943  0.35882  0.15772  1.0000
  C   C120      1.0  0.04675  0.12146  0.11454  1.0000
  H   H139      1.0  0.02905  0.01141  0.13638  1.0000
  C   C121      1.0  0.03213  0.23588  0.20939  1.0000
  H   H140      1.0  0.12587  0.23592  0.17836  1.0000
  H   H141      1.0  0.09238  0.15342  0.28846  1.0000
  H   H142      1.0  0.11280  0.29851  0.03951  1.0000
  C   C122      1.0  0.07902  0.20394  0.00951  1.0000
  H   H143      1.0  0.15684  0.03707  0.19876  1.0000
  C   C123      1.0  0.01774  0.42803  0.13614  1.0000
  C   C124      1.0  0.09608  0.14009  0.12606  1.0000
  H   H144      1.0  0.12874  0.20840  0.01041  1.0000
  C   C125      1.0  0.21298  0.01975  0.21178  1.0000
  C   C126      1.0  0.10368  0.25204  0.01705  1.0000
  H   H145      1.0  0.13369  0.29919  0.19551  1.0000
  H   H146      1.0  0.19231  0.27802  0.16401  1.0000
  H   H147      1.0  0.00664  0.36952  0.17387  1.0000
  H   H148      1.0  0.18236  0.00617  0.23812  1.0000
  H   H149      1.0  0.13588  0.03171  0.13447  1.0000
  H   H150      1.0  0.50345  0.31894  0.20221  1.0000
  C   C127      1.0  0.12783  0.01494  0.14314  1.0000
  C   C128      1.0  0.08750  0.30597  0.03967  1.0000
  H   H151      1.0  0.06653  0.15964  0.24588  1.0000
  H   H152      1.0  0.08618  0.33108  0.04381  1.0000
  H   H153      1.0  0.18415  0.41633  0.05313  1.0000
  H   H154      1.0  0.03412  0.43831  0.09664  1.0000
  H   H155      1.0  0.22063  0.38479  0.07035  1.0000
  H   H156      1.0  0.43674  0.24421  0.29729  1.0000
  H   H157      1.0  0.47057  0.32203  0.30375  1.0000
  H   H158      1.0  0.16110  0.46767  0.06272  1.0000
  C   C129      1.0  0.00635  0.37827  0.16128  1.0000
  H   H159      1.0  0.02613  0.30404  0.03425  1.0000
  H   H160      1.0  0.02232  0.32258  0.11972  1.0000
  C   C130      1.0  0.03518  0.30941  0.29766  1.0000
  C   C131      1.0  0.02547  0.22675  0.29058  1.0000
  H   H161      1.0  0.08187  0.04428  0.02234  1.0000
  C   C132      1.0  0.02775  0.01049  0.04694  1.0000
  C   C133      1.0  0.18611  0.46611  0.08519  1.0000
  H   H162      1.0  0.02623  0.27947  0.32731  1.0000
  C   C134      1.0  0.04969  0.21915  0.01166  1.0000
  H   H163      1.0  0.17903  0.43913  0.12314  1.0000
  H   H164      1.0  0.24669  0.49525  0.10060  1.0000
  H   H165      1.0  0.31434  0.32323  0.33511  1.0000
  H   H166      1.0  0.49669  0.30019  0.26906  1.0000
  H   H167      1.0  0.07943  0.03443  0.05898  1.0000
  H   H168      1.0  0.12527  0.26371  0.01902  1.0000
  C   C135      1.0  0.09602  0.49180  0.10322  1.0000
  C   C136      1.0  0.00750  0.24068  0.27831  1.0000
  H   H169      1.0  0.46248  0.31862  0.27833  1.0000
  C   C137      1.0  0.08761  0.49410  0.11940  1.0000
  H   H170      1.0  0.46833  0.23824  0.26370  1.0000
  H   H171      1.0  0.45797  0.29249  0.26220  1.0000
  C   C138      1.0  0.48716  0.30337  0.30740  1.0000
  C   C139      1.0  0.47237  0.29624  0.27311  1.0000
  N   N10       1.0  0.47157  0.26899  0.28431  1.0000
  H   H172      1.0  0.49558  0.21980  0.20986  1.0000
  H   H173      1.0  0.47837  0.21817  0.28181  1.0000
  H   H174      1.0  0.13424  0.01165  0.21074  1.0000
  H   H175      1.0  0.42967  0.46566  0.65031  1.0000
  S   S30       1.0  0.45333  0.35246  0.39202  1.0000
  S   S31       1.0  0.48526  0.44193  0.60943  1.0000
  S   S32       1.0  0.24510  0.20387  0.33750  1.0000
  C   C140      1.0  0.22451  0.12945  0.41836  1.0000
  Fe  Fe14      1.0  0.44566  0.11561  0.45102  1.0000
  S   S33       1.0  0.39638  0.10821  0.45935  1.0000
  H   H176      1.0  0.30873  0.29712  0.39288  1.0000
  Fe  Fe15      1.0  0.44411  0.18473  0.46097  1.0000
  S   S34       1.0  0.39519  0.18226  0.47031  1.0000
  S   S35       1.0  0.46496  0.23290  0.46247  1.0000
  Fe  Fe16      1.0  0.41138  0.13573  0.48103  1.0000
  S   S36       1.0  0.39772  0.12452  0.50667  1.0000
  Fe  Fe17      1.0  0.38455  0.15562  0.44768  1.0000
  S   S37       1.0  0.34116  0.17749  0.43485  1.0000
  S   S38       1.0  0.46119  0.14020  0.47335  1.0000
  S   S39       1.0  0.43307  0.16074  0.43777  1.0000
  Fe  Fe18      1.0  0.16281  0.22507  0.35599  1.0000
  S   S40       1.0  0.17817  0.17554  0.34843  1.0000
  S   S41       1.0  0.11554  0.23803  0.36807  1.0000
  Fe  Fe19      1.0  0.48038  0.33290  0.37092  1.0000
  H   H177      1.0  0.46991  0.28101  0.38761  1.0000
  Fe  Fe20      1.0  0.22620  0.25136  0.34583  1.0000
  C   C141      1.0  0.24961  0.12851  0.42912  1.0000
  C   C142      1.0  0.05131  0.24931  0.36942  1.0000
  Fe  Fe21      1.0  0.22437  0.18587  0.36033  1.0000
  S   S42       1.0  0.25271  0.14915  0.37518  1.0000
  H   H178      1.0  0.35764  0.33691  0.35326  1.0000
  S   S43       1.0  0.20791  0.23405  0.36927  1.0000
  S   S44       1.0  0.25696  0.29204  0.34037  1.0000
  C   C143      1.0  0.48685  0.08889  0.39372  1.0000
  C   C144      1.0  0.47532  0.21620  0.56575  1.0000
  S   S45       1.0  0.46734  0.10570  0.60063  1.0000
  C   C145      1.0  0.47930  0.03994  0.44574  1.0000
  C   C146      1.0  0.45125  0.46377  0.57313  1.0000
  C   C147      1.0  0.50343  0.46123  0.51930  1.0000
  Fe  Fe22      1.0  0.48306  0.07040  0.61979  1.0000
  H   H179      1.0  0.42434  0.17912  0.53240  1.0000
  C   C148      1.0  0.47739  0.08966  0.52837  1.0000
  H   H180      1.0  0.41330  0.28228  0.44105  1.0000
  H   H181      1.0  0.05602  0.26204  0.38036  1.0000
  H   H182      1.0  0.48454  0.26094  0.36095  1.0000
  H   H183      1.0  0.46939  0.38065  0.46397  1.0000
  H   H184      1.0  0.46851  0.44398  0.57578  1.0000
  C   C149      1.0  0.07655  0.23527  0.36062  1.0000
  C   C150      1.0  0.06998  0.21885  0.34652  1.0000
  N   N11       1.0  0.46578  0.49100  0.56537  1.0000
  H   H185      1.0  0.27287  0.15240  0.44816  1.0000
  H   H186      1.0  0.49360  0.20473  0.35287  1.0000
  H   H187      1.0  0.48300  0.20293  0.49344  1.0000
  N   N12       1.0  0.43962  0.00997  0.50183  1.0000
  C   C151      1.0  0.42547  0.11096  0.52109  1.0000
  C   C152      1.0  0.45683  0.10395  0.51704  1.0000
  C   C153      1.0  0.03863  0.21599  0.34154  1.0000
  C   C154      1.0  0.46707  0.08331  0.54398  1.0000
  C   C155      1.0  0.43607  0.09146  0.54823  1.0000
  C   C156      1.0  0.41529  0.10496  0.53678  1.0000
  H   H188      1.0  0.46498  0.10850  0.50503  1.0000
  H   H189      1.0  0.19496  0.12719  0.38836  1.0000
  H   H190      1.0  0.42776  0.08625  0.56017  1.0000
  H   H191      1.0  0.39102  0.11012  0.53998  1.0000
  C   C157      1.0  0.27836  0.15792  0.39122  1.0000
  C   C158      1.0  0.30090  0.13472  0.39636  1.0000
  C   C159      1.0  0.32066  0.14027  0.40954  1.0000
  C   C160      1.0  0.31757  0.16890  0.41796  1.0000
  C   C161      1.0  0.29491  0.19197  0.41286  1.0000
  C   C162      1.0  0.27574  0.18675  0.39946  1.0000
  H   H192      1.0  0.30300  0.11225  0.39014  1.0000
  H   H193      1.0  0.33786  0.12223  0.41334  1.0000
  H   H194      1.0  0.29207  0.21409  0.41936  1.0000
  H   H195      1.0  0.25842  0.20477  0.39577  1.0000
  C   C163      1.0  0.44079  0.46560  0.41782  1.0000
  H   H196      1.0  0.15942  0.18793  0.38764  1.0000
  H   H197      1.0  0.00677  0.30167  0.34279  1.0000
  H   H198      1.0  0.47535  0.08937  0.40574  1.0000
  C   C164      1.0  0.49506  0.49181  0.66821  1.0000
  C   C165      1.0  0.33639  0.31768  0.37430  1.0000
  C   C166      1.0  0.33783  0.32489  0.35796  1.0000
  H   H199      1.0  0.22442  0.11056  0.40964  1.0000
  C   C167      1.0  0.28767  0.30096  0.35355  1.0000
  C   C168      1.0  0.28646  0.29332  0.36985  1.0000
  C   C169      1.0  0.31045  0.30218  0.38022  1.0000
  C   C170      1.0  0.50066  0.45528  0.54814  1.0000
  C   C171      1.0  0.44591  0.31955  0.44159  1.0000
  H   H200      1.0  0.26656  0.28145  0.37454  1.0000
  S   S46       1.0  0.49250  0.06232  0.55731  1.0000
  C   C172      1.0  0.47038  0.46452  0.41054  1.0000
  H   H201      1.0  0.42276  0.45101  0.41320  1.0000
  C   C173      1.0  0.43666  0.17777  0.56225  1.0000
  C   C174      1.0  0.46547  0.25490  0.40940  1.0000
  C   C175      1.0  0.23052  0.17792  0.44078  1.0000
  H   H202      1.0  0.43642  0.49073  0.61287  1.0000
  H   H203      1.0  0.46903  0.04888  0.49759  1.0000
  C   C176      1.0  0.45559  0.01313  0.64893  1.0000
  C   C177      1.0  0.50091  0.19969  0.53319  1.0000
  H   H204      1.0  0.45421  0.22762  0.43007  1.0000
  H   H205      1.0  0.48307  0.06540  0.38822  1.0000
  C   C178      1.0  0.20136  0.15481  0.41860  1.0000
  C   C179      1.0  0.39484  0.32417  0.42913  1.0000
  N   N13       1.0  0.17494  0.15722  0.40710  1.0000
  C   C180      1.0  0.41783  0.22686  0.41229  1.0000
  C   C181      1.0  0.40004  0.35535  0.42500  1.0000
  C   C182      1.0  0.50302  0.43709  0.65991  1.0000
  C   C183      1.0  0.17368  0.12958  0.39612  1.0000
  C   C184      1.0  0.01339  0.22983  0.35042  1.0000
  C   C185      1.0  0.14468  0.16016  0.41586  1.0000
  H   H206      1.0  0.15345  0.13203  0.38773  1.0000
  C   C186      1.0  0.44229  0.00818  0.66414  1.0000
  C   C187      1.0  0.25269  0.15271  0.44026  1.0000
  C   C188      1.0  0.48809  0.36521  0.45823  1.0000
  N   N14       1.0  0.46852  0.18643  0.55727  1.0000
  H   H207      1.0  0.23342  0.19703  0.44926  1.0000
  H   H208      1.0  0.39819  0.04149  0.50315  1.0000
  H   H209      1.0  0.43213  0.18697  0.50403  1.0000
  C   C189      1.0  0.45558  0.26538  0.39435  1.0000
  H   H210      1.0  0.14218  0.13986  0.42416  1.0000
  H   H211      1.0  0.20112  0.18458  0.39087  1.0000
  S   S47       1.0  0.48500  0.38049  0.35993  1.0000
  H   H212      1.0  0.47051  0.21454  0.57885  1.0000
  H   H213      1.0  0.42911  0.03974  0.44785  1.0000
  C   C190      1.0  0.44713  0.18640  0.52871  1.0000
  H   H214      1.0  0.48761  0.34158  0.46399  1.0000
  S   S48       1.0  0.41088  0.39586  0.36643  1.0000
  S   S49       1.0  0.48020  0.07989  0.43998  1.0000
  H   H215      1.0  0.35407  0.26704  0.40218  1.0000
  H   H216      1.0  0.37316  0.31378  0.42566  1.0000
  C   C191      1.0  0.47022  0.49757  0.53504  1.0000
  C   C192      1.0  0.31333  0.31695  0.34767  1.0000
  H   H217      1.0  0.34711  0.22880  0.36973  1.0000
  H   H218      1.0  0.17630  0.20802  0.40406  1.0000
  H   H219      1.0  0.42085  0.26545  0.37635  1.0000
  H   H220      1.0  0.49057  0.25163  0.59983  1.0000
  H   H221      1.0  0.42656  0.04794  0.51807  1.0000
  H   H222      1.0  0.46267  0.30465  0.44811  1.0000
  H   H223      1.0  0.40281  0.01415  0.51958  1.0000
  Fe  Fe23      1.0  0.45579  0.40011  0.38049  1.0000
  S   S50       1.0  0.48022  0.43957  0.39383  1.0000
  H   H224      1.0  0.44054  0.47046  0.58493  1.0000
  H   H225      1.0  0.39455  0.17987  0.38422  1.0000
  C   C193      1.0  0.47998  0.19963  0.50623  1.0000
  C   C194      1.0  0.20520  0.17904  0.43016  1.0000
  C   C195      1.0  0.45097  0.02588  0.44883  1.0000
  C   C196      1.0  0.45247  0.35094  0.43711  1.0000
  Fe  Fe24      1.0  0.41062  0.34657  0.37663  1.0000
  H   H226      1.0  0.35257  0.18379  0.38653  1.0000
  H   H227      1.0  0.35233  0.23127  0.41344  1.0000
  H   H228      1.0  0.43841  0.04525  0.48307  1.0000
  H   H229      1.0  0.26752  0.10948  0.42843  1.0000
  C   C197      1.0  0.17799  0.18568  0.39702  1.0000
  C   C198      1.0  0.01997  0.24682  0.36433  1.0000
  S   S51       1.0  0.43773  0.32210  0.35660  1.0000
  C   C199      1.0  0.41576  0.02906  0.51111  1.0000
  H   H230      1.0  0.46067  0.23655  0.56101  1.0000
  S   S52       1.0  0.45423  0.05210  0.64069  1.0000
  H   H231      1.0  0.38231  0.36888  0.41824  1.0000
  H   H232      1.0  0.18903  0.19945  0.43081  1.0000
  C   C200      1.0  0.44666  0.23557  0.41831  1.0000
  H   H233      1.0  0.37691  0.18224  0.40374  1.0000
  S   S53       1.0  0.36758  0.32571  0.38739  1.0000
  H   H234      1.0  0.17133  0.10717  0.40288  1.0000
  C   C201      1.0  0.42716  0.25615  0.38800  1.0000
  H   H235      1.0  0.43068  0.39300  0.42530  1.0000
  H   H236      1.0  0.43044  0.15489  0.55687  1.0000
  H   H237      1.0  0.14219  0.18227  0.42306  1.0000
  H   H238      1.0  0.38838  0.22622  0.36553  1.0000
  H   H239      1.0  0.40335  0.21307  0.41998  1.0000
  N   N15       1.0  0.48347  0.36358  0.44063  1.0000
  C   C202      1.0  0.42822  0.36883  0.42905  1.0000
  Fe  Fe25      1.0  0.44021  0.37147  0.34708  1.0000
  H   H240      1.0  0.32800  0.23718  0.39617  1.0000
  H   H241      1.0  0.12437  0.16095  0.40747  1.0000
  C   C203      1.0  0.48514  0.47990  0.61810  1.0000
  H   H242      1.0  0.36936  0.26257  0.37267  1.0000
  C   C204      1.0  0.41755  0.30644  0.43762  1.0000
  N   N16       1.0  0.37682  0.22662  0.39074  1.0000
  C   C205      1.0  0.35171  0.24107  0.40107  1.0000
  C   C206      1.0  0.37032  0.23644  0.37392  1.0000
  C   C207      1.0  0.37525  0.19167  0.39132  1.0000
  C   C208      1.0  0.40749  0.23624  0.39678  1.0000
  C   C209      1.0  0.48737  0.39579  0.43407  1.0000
  H   H243      1.0  0.50131  0.08326  0.52496  1.0000
  H   H244      1.0  0.43498  0.17468  0.57551  1.0000
  C   C210      1.0  0.45129  0.19079  0.51223  1.0000
  H   H245      1.0  0.48740  0.15491  0.57556  1.0000
  H   H246      1.0  0.41857  0.19636  0.55885  1.0000
  H   H247      1.0  0.47435  0.10721  0.38625  1.0000
  H   H248      1.0  0.47065  0.41368  0.43961  1.0000
  C   C211      1.0  0.49100  0.16085  0.56272  1.0000
  H   H249      1.0  0.45049  0.01518  0.53524  1.0000
  H   H250      1.0  0.43264  0.45428  0.56544  1.0000
  C   C212      1.0  0.47191  0.19083  0.53973  1.0000
  H   H251      1.0  0.48839  0.13881  0.55567  1.0000
  C   C213      1.0  0.49333  0.48400  0.41666  1.0000
  H   H252      1.0  0.47221  0.01859  0.48262  1.0000
  H   H253      1.0  0.50030  0.22204  0.56474  1.0000
  C   C214      1.0  0.47858  0.48137  0.54947  1.0000
  C   C215      1.0  0.46435  0.49197  0.66244  1.0000
  H   H254      1.0  0.48402  0.39633  0.42085  1.0000
  C   C216      1.0  0.48256  0.48751  0.52023  1.0000
  H   H255      1.0  0.47606  0.50046  0.50941  1.0000
  H   H256      1.0  0.08902  0.20775  0.33965  1.0000
  H   H257      1.0  0.48756  0.26205  0.41421  1.0000
  C   C217      1.0  0.45758  0.49930  0.61803  1.0000
  C   C218      1.0  0.43427  0.48626  0.43089  1.0000
  C   C219      1.0  0.45544  0.03155  0.49080  1.0000
  C   C220      1.0  0.45313  0.46506  0.65526  1.0000
  Fe  Fe26      1.0  0.49706  0.07596  0.58354  1.0000
  C   C221      1.0  0.47238  0.43765  0.65403  1.0000
  H   H258      1.0  0.46376  0.41694  0.64813  1.0000
  H   H259      1.0  0.41118  0.48726  0.43627  1.0000
  C   C222      1.0  0.49161  0.50149  0.57565  1.0000
  C   C223      1.0  0.04840  0.21428  0.97183  1.0000
  Fe  Fe27      1.0  0.08383  0.42028  0.96285  1.0000
  S   S54       1.0  0.03321  0.40782  0.96216  1.0000
  S   S55       1.0  0.10610  0.43133  0.93859  1.0000
  H   H260      1.0  0.02570  0.35318  0.93497  1.0000
  H   H261      1.0  0.05728  0.00399  0.95760  1.0000
  C   C224      1.0  0.08522  0.34119  0.94262  1.0000
  Fe  Fe28      1.0  0.04763  0.36803  0.97901  1.0000
  S   S56       1.0  0.02294  0.32119  0.97812  1.0000
  Fe  Fe29      1.0  0.02810  0.43867  0.98401  1.0000
  C   C225      1.0  0.08167  0.28213  0.91379  1.0000
  S   S57       1.0  0.09894  0.37824  0.97861  1.0000
  S   S58       1.0  0.07756  0.45351  0.98375  1.0000
  C   C226      1.0  0.07587  0.24987  0.91307  1.0000
  H   H262      1.0  0.43172  0.02812  0.67065  1.0000
  C   C227      1.0  0.12077  0.47334  0.91456  1.0000
  C   C228      1.0  0.05330  0.23733  0.92297  1.0000
  H   H263      1.0  0.08578  0.34487  0.90204  1.0000
  H   H264      1.0  0.09015  0.49535  0.95075  1.0000
  C   C229      1.0  0.03389  0.28017  0.97600  1.0000
  H   H265      1.0  0.06843  0.33584  0.95234  1.0000
  S   S59       1.0  0.04933  0.08445  0.95754  1.0000
  C   C230      1.0  0.03613  0.25705  0.93347  1.0000
  C   C231      1.0  0.06478  0.30285  0.92455  1.0000
  C   C232      1.0  0.04176  0.28927  0.93432  1.0000
  H   H266      1.0  0.08321  0.28570  0.97241  1.0000
  H   H267      1.0  0.09192  0.36605  0.94438  1.0000
  C   C233      1.0  0.01037  0.25805  0.97680  1.0000
  H   H268      1.0  0.00584  0.48004  0.95705  1.0000
  H   H269      1.0  0.09835  0.37370  0.91611  1.0000
  C   C234      1.0  0.01752  0.22534  0.97477  1.0000
  H   H270      1.0  0.09977  0.29011  0.90595  1.0000
  C   C235      1.0  0.06481  0.26914  0.97315  1.0000
  H   H271      1.0  0.03044  0.35268  0.91353  1.0000
  C   C236      1.0  0.10874  0.47000  0.93019  1.0000
  C   C237      1.0  0.09438  0.34798  0.91451  1.0000
  C   C238      1.0  0.07193  0.23643  0.97103  1.0000
  S   S60       1.0  0.07609  0.02012  0.99006  1.0000
  C   C239      1.0  0.04256  0.35702  0.92507  1.0000
  Fe  Fe30      1.0  0.04214  0.05808  0.98042  1.0000
  H   H272      1.0  0.10661  0.32552  0.94444  1.0000
  H   H273      1.0  0.04748  0.38267  0.92565  1.0000
  S   S61       1.0  0.02805  0.10190  0.99472  1.0000
  H   H274      1.0  0.02849  0.30324  0.94308  1.0000
  H   H275      1.0  0.11787  0.33567  0.91579  1.0000
  H   H276      1.0  0.08925  0.23431  0.90497  1.0000
  N   N17       1.0  0.07171  0.33661  0.92649  1.0000
  H   H277      1.0  0.09589  0.22814  0.96879  1.0000
  S   S62       1.0  0.05899  0.17329  0.96921  1.0000
  H   H278      1.0  0.12815  0.45243  0.90780  1.0000
  Fe  Fe31      1.0  0.03137  0.12804  0.97119  1.0000
  H   H279      1.0  0.04931  0.21220  0.92267  1.0000
  H   H280      1.0  0.07924  0.31779  0.99956  1.0000
  C   C240      1.0  0.09944  0.49739  0.93874  1.0000
  H   H281      1.0  0.01889  0.24711  0.94131  1.0000
  Fe  Fe32      1.0  0.08753  0.41095  0.99949  1.0000
  S   S63       1.0  0.03748  0.39816  0.00080  1.0000
  C   C241      1.0  0.18649  0.96673  0.17014  1.0000
  H   H282      1.0  0.18006  0.91862  0.16307  1.0000
  C   C242      1.0  0.18432  0.97828  0.19906  1.0000
  Fe  Fe33      1.0  0.04596  0.55396  0.09521  1.0000
  S   S64       1.0  0.09053  0.52457  0.09037  1.0000
  C   C243      1.0  0.06403  0.98581  0.02782  1.0000
  H   H283      1.0  0.01758  0.95652  0.15784  1.0000
  H   H284      1.0  0.15982  0.97543  0.23023  1.0000
  S   S65       1.0  0.03303  0.59733  0.08061  1.0000
  Fe  Fe34      1.0  0.07188  0.84483  0.09947  1.0000
  S   S66       1.0  0.11589  0.87278  0.09973  1.0000
  C   C244      1.0  0.03868  0.59914  0.01591  1.0000
  H   H285      1.0  0.04243  0.96700  0.05959  1.0000
  S   S67       1.0  0.07093  0.93775  0.10100  1.0000
  Fe  Fe35      1.0  0.09037  0.90473  0.08196  1.0000
  S   S68       1.0  0.10425  0.92639  0.05833  1.0000
  Fe  Fe36      1.0  0.09216  0.90377  0.11893  1.0000
  S   S69       1.0  0.10888  0.92109  0.14351  1.0000
  H   H286      1.0  0.14201  0.89220  0.00522  1.0000
  S   S70       1.0  0.05040  0.87308  0.12006  1.0000
  S   S71       1.0  0.04781  0.87593  0.08088  1.0000
  C   C245      1.0  0.04511  0.53643  0.00556  1.0000
  H   H287      1.0  0.02680  0.95821  0.12429  1.0000
  H   H288      1.0  0.05105  0.71137  0.05599  1.0000
  C   C246      1.0  0.04843  0.86660  0.16014  1.0000
  C   C247      1.0  0.17916  0.92426  0.18878  1.0000
  C   C248      1.0  0.05110  0.69982  0.09589  1.0000
  H   H289      1.0  0.07482  0.71562  0.00597  1.0000
  C   C249      1.0  0.00882  0.97610  0.12150  1.0000
  C   C250      1.0  0.18202  0.93490  0.17307  1.0000
  C   C251      1.0  0.04983  0.54292  0.02208  1.0000
  C   C252      1.0  0.00709  0.81821  0.15579  1.0000
  Fe  Fe37      1.0  0.00714  0.61470  0.10270  1.0000
  H   H290      1.0  0.20811  0.51170  0.10517  1.0000
  C   C253      1.0  0.11247  0.96150  0.14909  1.0000
  H   H291      1.0  0.03581  0.62343  0.01995  1.0000
  C   C254      1.0  0.06727  0.72749  0.09268  1.0000
  H   H292      1.0  0.04909  0.58236  0.03929  1.0000
  H   H293      1.0  0.18779  0.97507  0.15786  1.0000
  C   C255      1.0  0.16968  0.87007  0.02401  1.0000
  C   C256      1.0  0.17437  0.86811  0.04065  1.0000
  C   C257      1.0  0.15407  0.88485  0.05129  1.0000
  C   C258      1.0  0.12975  0.90471  0.04531  1.0000
  C   C259      1.0  0.12594  0.90785  0.02865  1.0000
  C   C260      1.0  0.14553  0.89018  0.01802  1.0000
  H   H294      1.0  0.19336  0.85300  0.04534  1.0000
  H   H295      1.0  0.15755  0.88281  0.06411  1.0000
  H   H296      1.0  0.10745  0.92348  0.02391  1.0000
  H   H297      1.0  0.23523  0.50436  0.12097  1.0000
  H   H298      1.0  0.04522  0.98408  0.01867  1.0000
  N   N18       1.0  0.11011  0.79571  0.03881  1.0000
  C   C261      1.0  0.09698  0.82202  0.02876  1.0000
  C   C262      1.0  0.10969  0.80693  0.05574  1.0000
  C   C263      1.0  0.14328  0.78869  0.03419  1.0000
  C   C264      1.0  0.09215  0.76714  0.03618  1.0000
  C   C265      1.0  0.07688  0.75137  0.04882  1.0000
  C   C266      1.0  0.09048  0.75360  0.02062  1.0000
  C   C267      1.0  0.06179  0.72331  0.04603  1.0000
  H   H299      1.0  0.04250  0.92817  0.14748  1.0000
  H   H300      1.0  0.10257  0.95312  0.17405  1.0000
  H   H301      1.0  0.07155  0.82668  0.03118  1.0000
  H   H302      1.0  0.10870  0.84438  0.03122  1.0000
  H   H303      1.0  0.10010  0.81743  0.01570  1.0000
  H   H304      1.0  0.12328  0.82850  0.05732  1.0000
  H   H305      1.0  0.12032  0.78883  0.06404  1.0000
  H   H306      1.0  0.08546  0.81345  0.05994  1.0000
  H   H307      1.0  0.14628  0.78457  0.02107  1.0000
  H   H308      1.0  0.15826  0.80859  0.03709  1.0000
  H   H309      1.0  0.15326  0.76748  0.04060  1.0000
  H   H310      1.0  0.07658  0.76001  0.06104  1.0000
  H   H311      1.0  0.10157  0.76426  0.01040  1.0000
  H   H312      1.0  0.07595  0.51558  0.12394  1.0000
  H   H313      1.0  0.12422  0.97764  0.12550  1.0000
  C   C268      1.0  0.02866  0.75905  0.10762  1.0000
  S   S72       1.0  0.07808  0.79130  0.09414  1.0000
  C   C269      1.0  0.05627  0.75731  0.09854  1.0000
  C   C270      1.0  0.12124  0.98418  0.13799  1.0000
  C   C271      1.0  0.05977  0.83511  0.15883  1.0000
  C   C272      1.0  0.01587  0.87493  0.15878  1.0000
  H   H314      1.0  0.20223  0.97069  0.23089  1.0000
  H   H315      1.0  0.17553  0.89944  0.19093  1.0000
  H   H316      1.0  0.08875  0.72567  0.08579  1.0000
  H   H317      1.0  0.06739  0.50704  0.05844  1.0000
  H   H318      1.0  0.06569  0.96316  0.03456  1.0000
  Fe  Fe38      1.0  0.03042  0.90640  0.10142  1.0000
  S   S73       1.0  0.02393  0.57278  0.11813  1.0000
  C   C273      1.0  0.04649  0.57516  0.02695  1.0000
  H   H319      1.0  0.08703  0.99250  0.05724  1.0000
  C   C274      1.0  0.18204  0.98768  0.22854  1.0000
  C   C275      1.0  0.10907  0.97049  0.16531  1.0000
  C   C276      1.0  0.01263  0.73132  0.11094  1.0000
  H   H320      1.0  0.17765  0.93563  0.21348  1.0000
  C   C277      1.0  0.03920  0.81101  0.15649  1.0000
  H   H321      1.0  0.10711  0.51821  0.02748  1.0000
  S   S74       1.0  0.19320  0.84577  0.01114  1.0000
  C   C278      1.0  0.18034  0.94548  0.20166  1.0000
  H   H322      1.0  0.08480  0.82949  0.15922  1.0000
  H   H323      1.0  0.06014  0.67712  0.09145  1.0000
  H   H324      1.0  0.03949  0.53884  0.05496  1.0000
  C   C279      1.0  0.06105  0.71038  0.03066  1.0000
  C   C280      1.0  0.11485  0.00158  0.17041  1.0000
  C   C281      1.0  0.18748  0.98818  0.18289  1.0000
  N   N19       1.0  0.05816  0.51681  0.03335  1.0000
  H   H325      1.0  0.08081  0.54388  0.05167  1.0000
  H   H326      1.0  0.04818  0.78672  0.15510  1.0000
  H   H327      1.0  0.06582  0.88401  0.16163  1.0000
  C   C282      1.0  0.02376  0.70148  0.10519  1.0000
  C   C283      1.0  0.02381  0.98485  0.05760  1.0000
  H   H328      1.0  0.01982  0.78168  0.11224  1.0000
  C   C284      1.0  0.02773  0.93177  0.15842  1.0000
  H   H329      1.0  0.04976  0.68838  0.02866  1.0000
  H   H330      1.0  0.04331  0.93065  0.16909  1.0000
  C   C285      1.0  0.07515  0.72565  0.01795  1.0000
  H   H331      1.0  0.00502  0.74603  0.01564  1.0000
  H   H332      1.0  0.08656  0.98731  0.02117  1.0000
  C   C286      1.0  0.06159  0.52729  0.05026  1.0000
  H   H333      1.0  0.01033  0.50472  0.03627  1.0000
  N   N20       1.0  0.18401  0.00180  0.21227  1.0000
  S   S75       1.0  0.47397  0.59842  0.48449  1.0000
  H   H334      1.0  0.48474  0.74410  0.47179  1.0000
  H   H335      1.0  0.47893  0.93652  0.64074  1.0000
  S   S76       1.0  0.44786  0.53251  0.45299  1.0000
  C   C287      1.0  0.46265  0.60520  0.42456  1.0000
  C   C288      1.0  0.48691  0.50438  0.42978  1.0000
  Fe  Fe39      1.0  0.42016  0.63553  0.60047  1.0000
  S   S77       1.0  0.46872  0.64001  0.60991  1.0000
  S   S78       1.0  0.41090  0.62636  0.57413  1.0000
  Fe  Fe40      1.0  0.38873  0.65393  0.63309  1.0000
  S   S79       1.0  0.43554  0.65941  0.64479  1.0000
  S   S80       1.0  0.34214  0.67296  0.64385  1.0000
  Fe  Fe41      1.0  0.44977  0.68389  0.62226  1.0000
  S   S81       1.0  0.47100  0.73178  0.62099  1.0000
  Fe  Fe42      1.0  0.45029  0.61471  0.63136  1.0000
  C   C289      1.0  0.43044  0.83282  0.64986  1.0000
  S   S82       1.0  0.40226  0.68155  0.61126  1.0000
  S   S83       1.0  0.40246  0.60721  0.62116  1.0000
  H   H336      1.0  0.46405  0.66640  0.57357  1.0000
  C   C290      1.0  0.49241  0.58645  0.55622  1.0000
  C   C291      1.0  0.45728  0.50579  0.43694  1.0000
  H   H337      1.0  0.43806  0.97287  0.48387  1.0000
  C   C292      1.0  0.45475  0.70752  0.42364  1.0000
  C   C293      1.0  0.48887  0.98233  0.53799  1.0000
  N   N21       1.0  0.35899  0.76509  0.65614  1.0000
  H   H338      1.0  0.40407  0.99865  0.48463  1.0000
  C   C294      1.0  0.44138  0.51723  0.56463  1.0000
  H   H339      1.0  0.45084  0.53909  0.55965  1.0000
  C   C295      1.0  0.33034  0.77774  0.66455  1.0000
  C   C296      1.0  0.41107  0.78069  0.64547  1.0000
  N   N22       1.0  0.48643  0.71004  0.56869  1.0000
  H   H340      1.0  0.50284  0.68649  0.50531  1.0000
  C   C297      1.0  0.48412  0.54056  0.63211  1.0000
  H   H341      1.0  0.48226  0.75309  0.54278  1.0000
  H   H342      1.0  0.47283  0.72324  0.42720  1.0000
  H   H343      1.0  0.43574  0.54436  0.62490  1.0000
  H   H344      1.0  0.48446  0.61686  0.42787  1.0000
  C   C298      1.0  0.32120  0.66679  0.66205  1.0000
  H   H345      1.0  0.35389  0.72058  0.66823  1.0000
  C   C299      1.0  0.42253  0.98678  0.49223  1.0000
  C   C300      1.0  0.40381  0.84112  0.65886  1.0000
  C   C301      1.0  0.45602  0.67625  0.42904  1.0000
  H   H346      1.0  0.39104  0.72417  0.65891  1.0000
  C   C302      1.0  0.49257  0.72231  0.52324  1.0000
  H   H347      1.0  0.50072  0.65335  0.55359  1.0000
  H   H348      1.0  0.46192  0.60400  0.41123  1.0000
  C   C303      1.0  0.45936  0.69238  0.57427  1.0000
  C   C304      1.0  0.37205  0.73769  0.66546  1.0000
  C   C305      1.0  0.48000  0.74388  0.57291  1.0000
  H   H349      1.0  0.41121  0.96951  0.50014  1.0000
  C   C306      1.0  0.38061  0.81938  0.66120  1.0000
  N   N23       1.0  0.43425  0.62224  0.43109  1.0000
  H   H350      1.0  0.40491  0.60053  0.41353  1.0000
  H   H351      1.0  0.42105  0.51075  0.55721  1.0000
  C   C307      1.0  0.45729  0.59671  0.53391  1.0000
  C   C308      1.0  0.43444  0.60927  0.54462  1.0000
  C   C309      1.0  0.44043  0.61050  0.56116  1.0000
  C   C310      1.0  0.46960  0.59920  0.56694  1.0000
  H   H352      1.0  0.41503  0.75747  0.64018  1.0000
  H   H353      1.0  0.45229  0.59572  0.52121  1.0000
  H   H354      1.0  0.41195  0.61804  0.54008  1.0000
  H   H355      1.0  0.47441  0.59981  0.57966  1.0000
  H   H356      1.0  0.49036  0.98701  0.55076  1.0000
  S   S84       1.0  0.48337  0.57736  0.64206  1.0000
  H   H357      1.0  0.47926  0.99037  0.62891  1.0000
  C   C311      1.0  0.43252  0.65507  0.42491  1.0000
  H   H358      1.0  0.40130  0.86456  0.66419  1.0000
  H   H359      1.0  0.42937  0.74287  0.40967  1.0000
  S   S85       1.0  0.50046  0.67747  0.46965  1.0000
  H   H360      1.0  0.43211  0.52379  0.57677  1.0000
  H   H361      1.0  0.47558  0.66888  0.43661  1.0000
  H   H362      1.0  0.45833  0.63236  0.45325  1.0000
  H   H363      1.0  0.28831  0.70605  0.65752  1.0000
  C   C312      1.0  0.46884  0.95649  0.64739  1.0000
  H   H364      1.0  0.38919  0.65268  0.41089  1.0000
  H   H365      1.0  0.31252  0.75952  0.66579  1.0000
  H   H366      1.0  0.32865  0.73866  0.64098  1.0000
  H   H367      1.0  0.48675  0.96742  0.49220  1.0000
  C   C313      1.0  0.46914  0.98707  0.64065  1.0000
  C   C314      1.0  0.40690  0.60362  0.42674  1.0000
  C   C315      1.0  0.47339  0.72573  0.66650  1.0000
  C   C316      1.0  0.43029  0.71856  0.41381  1.0000
  H   H368      1.0  0.45453  0.51837  0.53484  1.0000
  H   H369      1.0  0.31905  0.79819  0.65805  1.0000
  C   C317      1.0  0.43615  0.62282  0.44886  1.0000
  H   H370      1.0  0.40903  0.57921  0.43184  1.0000
  C   C318      1.0  0.48836  0.72883  0.53961  1.0000
  C   C319      1.0  0.40798  0.66701  0.41476  1.0000
  C   C320      1.0  0.49997  0.69153  0.51802  1.0000
  H   H371      1.0  0.46510  0.58043  0.42912  1.0000
  H   H372      1.0  0.36769  0.73910  0.63396  1.0000
  C   C321      1.0  0.48626  0.58505  0.53969  1.0000
  C   C322      1.0  0.47918  0.97543  0.45413  1.0000
  C   C323      1.0  0.49875  0.67327  0.54550  1.0000
  H   H373      1.0  0.44951  0.51351  0.66301  1.0000
  H   H374      1.0  0.43805  0.69802  0.56694  1.0000
  C   C324      1.0  0.46351  0.99330  0.51200  1.0000
  H   H375      1.0  0.50190  0.69377  0.65276  1.0000
  C   C325      1.0  0.45091  0.99356  0.45274  1.0000
  H   H376      1.0  0.42891  0.98263  0.45480  1.0000
  H   H377      1.0  0.45502  0.79595  0.63634  1.0000
  Fe  Fe43      1.0  0.48491  0.55950  0.46634  1.0000
  C   C326      1.0  0.38332  0.78856  0.65430  1.0000
  H   H378      1.0  0.47698  0.74723  0.58612  1.0000
  C   C327      1.0  0.50311  0.66708  0.52914  1.0000
  C   C328      1.0  0.40703  0.69834  0.40934  1.0000
  H   H379      1.0  0.45784  0.75344  0.56736  1.0000
  S   S86       1.0  0.47872  0.93570  0.46047  1.0000
  H   H380      1.0  0.41652  0.63767  0.45416  1.0000
  C   C329      1.0  0.48614  0.97179  0.50499  1.0000
  C   C330      1.0  0.45719  0.52975  0.62481  1.0000
  H   H381      1.0  0.49968  0.75859  0.56927  1.0000
  C   C331      1.0  0.49178  0.69769  0.66449  1.0000
  C   C332      1.0  0.45519  0.95149  0.66252  1.0000
  H   H382      1.0  0.38466  0.61480  0.43152  1.0000
  H   H383      1.0  0.38806  0.70705  0.40166  1.0000
  H   H384      1.0  0.47032  0.74208  0.65657  1.0000
  H   H385      1.0  0.43511  0.59872  0.45409  1.0000
  H   H386      1.0  0.36094  0.82723  0.66859  1.0000
  H   H387      1.0  0.45335  0.69775  0.58703  1.0000
  H   H388      1.0  0.34225  0.77415  0.63215  1.0000
  C   C333      1.0  0.29523  0.68732  0.66576  1.0000
  H   H389      1.0  0.48279  0.51113  0.58734  1.0000
  C   C334      1.0  0.49138  0.70434  0.55129  1.0000
  H   H390      1.0  0.48956  0.74108  0.51444  1.0000
  C   C335      1.0  0.34909  0.75392  0.64011  1.0000
  H   H391      1.0  0.50014  0.83976  0.66471  1.0000
  C   C336      1.0  0.46586  0.99851  0.52883  1.0000
  H   H392      1.0  0.44818  0.84995  0.64812  1.0000
  C   C337      1.0  0.43420  0.80256  0.64327  1.0000
  H   H393      1.0  0.47245  0.62071  0.66906  1.0000
  Fe  Fe44      1.0  0.20584  0.71071  0.75324  1.0000
  S   S87       1.0  0.17642  0.75111  0.74293  1.0000
  S   S88       1.0  0.21078  0.71104  0.78037  1.0000
  Fe  Fe45      1.0  0.21658  0.75645  0.72574  1.0000
  S   S89       1.0  0.23928  0.80258  0.72092  1.0000
  S   S90       1.0  0.24729  0.71943  0.73769  1.0000
  Fe  Fe46      1.0  0.42922  0.87958  0.73042  1.0000
  S   S91       1.0  0.44341  0.82806  0.72938  1.0000
  S   S92       1.0  0.41586  0.89574  0.75559  1.0000
  Fe  Fe47      1.0  0.44270  0.89019  0.69435  1.0000
  S   S93       1.0  0.45555  0.83816  0.69149  1.0000
  C   C338      1.0  0.19986  0.71355  0.95624  1.0000
  Fe  Fe48      1.0  0.41436  0.82913  0.70708  1.0000
  S   S94       1.0  0.38381  0.78806  0.70282  1.0000
  Fe  Fe49      1.0  0.48284  0.84290  0.71403  1.0000
  Fe  Fe50      1.0  0.15934  0.71547  0.72536  1.0000
  S   S95       1.0  0.39852  0.88038  0.70834  1.0000
  S   S96       1.0  0.47164  0.89478  0.71673  1.0000
  Fe  Fe51      1.0  0.19626  0.81660  0.95166  1.0000
  S   S97       1.0  0.14602  0.81485  0.94384  1.0000
  S   S98       1.0  0.23458  0.79196  0.93623  1.0000
  H   H394      1.0  0.05116  0.83424  0.80356  1.0000
  Fe  Fe52      1.0  0.13655  0.79289  0.96774  1.0000
  S   S99       1.0  0.11315  0.74687  0.97230  1.0000
  Fe  Fe53      1.0  0.13926  0.86121  0.95713  1.0000
  S   S100      1.0  0.11033  0.90100  0.94568  1.0000
  S   S101      1.0  0.19028  0.86472  0.96329  1.0000
  Fe  Fe54      1.0  0.36656  0.78685  0.82762  1.0000
  S   S102      1.0  0.39463  0.74309  0.83517  1.0000
  S   S103      1.0  0.35900  0.79161  0.80072  1.0000
  Fe  Fe55      1.0  0.34814  0.80358  0.86266  1.0000
  S   S104      1.0  0.37545  0.76127  0.87246  1.0000
  S   S105      1.0  0.32010  0.83839  0.87875  1.0000
  Fe  Fe56      1.0  0.41354  0.77325  0.85481  1.0000
  S   S106      1.0  0.46447  0.77974  0.86249  1.0000
  Fe  Fe57      1.0  0.35418  0.73558  0.85188  1.0000
  S   S107      1.0  0.32916  0.69001  0.85313  1.0000
  S   S108      1.0  0.38740  0.81785  0.84631  1.0000
  S   S109      1.0  0.32495  0.77710  0.84303  1.0000
  Fe  Fe58      1.0  0.09510  0.65414  0.86803  1.0000
  S   S110      1.0  0.10447  0.60250  0.86281  1.0000
  S   S111      1.0  0.04629  0.67512  0.86330  1.0000
  Fe  Fe59      1.0  0.16249  0.66234  0.87879  1.0000
  S   S112      1.0  0.17663  0.61100  0.87493  1.0000
  S   S113      1.0  0.19486  0.70044  0.88625  1.0000
  Fe  Fe60      1.0  0.14949  0.61798  0.85182  1.0000
  S   S114      1.0  0.16488  0.60321  0.82672  1.0000
  Fe  Fe61      1.0  0.13022  0.60033  0.88643  1.0000
  S   S115      1.0  0.11790  0.56995  0.90834  1.0000
  S   S116      1.0  0.13777  0.66960  0.85536  1.0000
  S   S117      1.0  0.11838  0.65192  0.89205  1.0000
  C   C339      1.0  0.04060  0.71613  0.86609  1.0000
  C   C340      1.0  0.06549  0.73465  0.87029  1.0000
  C   C341      1.0  0.06055  0.76755  0.87192  1.0000
  C   C342      1.0  0.03073  0.78200  0.86947  1.0000
  S   S118      1.0  0.02581  0.82342  0.87059  1.0000
  H   H395      1.0  0.47941  0.86938  0.77573  1.0000
  H   H396      1.0  0.08861  0.72364  0.87212  1.0000
  H   H397      1.0  0.07991  0.78182  0.87505  1.0000
  C   C343      1.0  0.28598  0.65208  0.81536  1.0000
  C   C344      1.0  0.11468  0.53094  0.91624  1.0000
  H   H398      1.0  0.29642  0.74613  0.81333  1.0000
  H   H399      1.0  0.34934  0.62640  0.67015  1.0000
  C   C345      1.0  0.29168  0.69335  0.86212  1.0000
  C   C346      1.0  0.28195  0.72047  0.87074  1.0000
  C   C347      1.0  0.25239  0.72241  0.87823  1.0000
  C   C348      1.0  0.23191  0.69765  0.87670  1.0000
  C   C349      1.0  0.24136  0.67090  0.86770  1.0000
  C   C350      1.0  0.27131  0.66854  0.86066  1.0000
  H   H400      1.0  0.29754  0.73966  0.87188  1.0000
  H   H401      1.0  0.24559  0.74308  0.88525  1.0000
  H   H402      1.0  0.22586  0.65172  0.86633  1.0000
  H   H403      1.0  0.27866  0.64735  0.85412  1.0000
  H   H404      1.0  0.36282  0.86372  0.91735  1.0000
  H   H405      1.0  0.29484  0.66033  0.82666  1.0000
  C   C351      1.0  0.10046  0.93376  0.95819  1.0000
  C   C352      1.0  0.11245  0.93556  0.97375  1.0000
  C   C353      1.0  0.29922  0.85151  0.76763  1.0000
  C   C354      1.0  0.08040  0.95846  0.95245  1.0000
  H   H406      1.0  0.12807  0.91675  0.97824  1.0000
  S   S119      1.0  0.12499  0.83889  0.98030  1.0000
  C   C355      1.0  0.49243  0.61867  0.67760  1.0000
  C   C356      1.0  0.25735  0.80587  0.92010  1.0000
  C   C357      1.0  0.27523  0.78365  0.91093  1.0000
  C   C358      1.0  0.29445  0.79335  0.89830  1.0000
  C   C359      1.0  0.29584  0.82541  0.89453  1.0000
  C   C360      1.0  0.27777  0.84771  0.90362  1.0000
  C   C361      1.0  0.25862  0.83803  0.91637  1.0000
  H   H407      1.0  0.27468  0.75874  0.91375  1.0000
  H   H408      1.0  0.30873  0.77603  0.89169  1.0000
  H   H409      1.0  0.27880  0.87262  0.90087  1.0000
  H   H410      1.0  0.24518  0.85544  0.92339  1.0000
  H   H411      1.0  0.32137  0.84454  0.77387  1.0000
  H   H412      1.0  0.27953  0.74821  0.71135  1.0000
  C   C362      1.0  0.49613  0.67554  0.67722  1.0000
  C   C363      1.0  0.29322  0.79782  0.75925  1.0000
  C   C364      1.0  0.07277  0.74576  0.96845  1.0000
  C   C365      1.0  0.05721  0.71797  0.97164  1.0000
  C   C366      1.0  0.02502  0.71643  0.96845  1.0000
  H   H413      1.0  0.07016  0.69754  0.97646  1.0000
  H   H414      1.0  0.09563  0.54838  0.93876  1.0000
  C   C367      1.0  0.40042  0.86664  0.76824  1.0000
  C   C368      1.0  0.38945  0.83866  0.76186  1.0000
  C   C369      1.0  0.37807  0.81541  0.77204  1.0000
  C   C370      1.0  0.37688  0.82008  0.78871  1.0000
  C   C371      1.0  0.38816  0.84785  0.79518  1.0000
  C   C372      1.0  0.39985  0.87107  0.78496  1.0000
  H   H415      1.0  0.38900  0.83517  0.74902  1.0000
  H   H416      1.0  0.36955  0.79398  0.76690  1.0000
  H   H417      1.0  0.38734  0.85174  0.80801  1.0000
  H   H418      1.0  0.40835  0.89259  0.79001  1.0000
  H   H419      1.0  0.21463  0.73456  0.95643  1.0000
  H   H420      1.0  0.23575  0.85554  0.76403  1.0000
  H   H421      1.0  0.01626  0.76553  0.82350  1.0000
  C   C373      1.0  0.08487  0.98691  0.97767  1.0000
  H   H422      1.0  0.13300  0.50563  0.89560  1.0000
  C   C374      1.0  0.19822  0.68047  0.79292  1.0000
  C   C375      1.0  0.19801  0.68524  0.80958  1.0000
  C   C376      1.0  0.18809  0.66166  0.82001  1.0000
  C   C377      1.0  0.17833  0.63297  0.81390  1.0000
  C   C378      1.0  0.17918  0.62790  0.79723  1.0000
  C   C379      1.0  0.18874  0.65171  0.78674  1.0000
  H   H423      1.0  0.20563  0.70722  0.81450  1.0000
  H   H424      1.0  0.18870  0.66544  0.83282  1.0000
  H   H425      1.0  0.17225  0.60553  0.79243  1.0000
  H   H426      1.0  0.18930  0.64758  0.77393  1.0000
  C   C380      1.0  0.27939  0.79842  0.71575  1.0000
  C   C381      1.0  0.29772  0.82505  0.71588  1.0000
  C   C382      1.0  0.32999  0.82200  0.71247  1.0000
  C   C383      1.0  0.34405  0.79236  0.70864  1.0000
  C   C384      1.0  0.32565  0.76581  0.70838  1.0000
  C   C385      1.0  0.29348  0.76882  0.71192  1.0000
  H   H427      1.0  0.28697  0.84810  0.71864  1.0000
  H   H428      1.0  0.34378  0.84269  0.71251  1.0000
  H   H429      1.0  0.33616  0.74285  0.70519  1.0000
  N   N24       1.0  0.17925  0.80399  0.88569  1.0000
  C   C386      1.0  0.17246  0.78163  0.87251  1.0000
  C   C387      1.0  0.20942  0.81819  0.88187  1.0000
  C   C388      1.0  0.18298  0.78518  0.90061  1.0000
  C   C389      1.0  0.15458  0.82942  0.88810  1.0000
  C   C390      1.0  0.12722  0.83252  0.87842  1.0000
  C   C391      1.0  0.15750  0.85209  0.90055  1.0000
  C   C392      1.0  0.10440  0.85684  0.88112  1.0000
  C   C393      1.0  0.13456  0.87626  0.90314  1.0000
  C   C394      1.0  0.10816  0.87875  0.89338  1.0000
  H   H430      1.0  0.17029  0.79387  0.86074  1.0000
  H   H431      1.0  0.19159  0.76293  0.87110  1.0000
  H   H432      1.0  0.15076  0.76888  0.87494  1.0000
  H   H433      1.0  0.21712  0.83400  0.89156  1.0000
  H   H434      1.0  0.20763  0.83261  0.87073  1.0000
  H   H435      1.0  0.22878  0.79984  0.88020  1.0000
  H   H436      1.0  0.19075  0.79954  0.91087  1.0000
  H   H437      1.0  0.16051  0.77484  0.90407  1.0000
  C   C395      1.0  0.07022  0.72829  0.72200  1.0000
  H   H438      1.0  0.31279  0.78760  0.76669  1.0000
  H   H439      1.0  0.17759  0.85134  0.90845  1.0000
  H   H440      1.0  0.08364  0.85873  0.87363  1.0000
  H   H441      1.0  0.13727  0.89319  0.91281  1.0000
  H   H442      1.0  0.09058  0.89772  0.89538  1.0000
  N   N25       1.0  0.09297  0.67525  0.77085  1.0000
  C   C396      1.0  0.11897  0.69563  0.76657  1.0000
  C   C397      1.0  0.10526  0.64183  0.77145  1.0000
  C   C398      1.0  0.07995  0.68501  0.78668  1.0000
  C   C399      1.0  0.04875  0.69782  0.78874  1.0000
  C   C400      1.0  0.09866  0.68180  0.80070  1.0000
  C   C401      1.0  0.08647  0.68933  0.81587  1.0000
  H   H443      1.0  0.33565  0.78521  0.67696  1.0000
  H   H444      1.0  0.35730  0.74995  0.93023  1.0000
  H   H445      1.0  0.11077  0.72095  0.76582  1.0000
  H   H446      1.0  0.12925  0.68903  0.75468  1.0000
  C   C402      1.0  0.02524  0.78842  0.78358  1.0000
  H   H447      1.0  0.08671  0.62581  0.77522  1.0000
  H   H448      1.0  0.11451  0.63353  0.75957  1.0000
  H   H449      1.0  0.12500  0.63827  0.77995  1.0000
  C   C403      1.0  0.01869  0.68710  0.92652  1.0000
  H   H450      1.0  0.12284  0.67301  0.80009  1.0000
  H   H451      1.0  0.45890  0.77888  0.82718  1.0000
  C   C404      1.0  0.04407  0.81720  0.81290  1.0000
  S   S120      1.0  0.45474  0.91207  0.67006  1.0000
  H   H452      1.0  0.31426  0.74105  0.78689  1.0000
  C   C405      1.0  0.03313  0.56917  0.91431  1.0000
  S   S121      1.0  0.10686  0.70590  0.72258  1.0000
  H   H453      1.0  0.02031  0.66155  0.94876  1.0000
  H   H454      1.0  0.27829  0.66859  0.77530  1.0000
  H   H455      1.0  0.42734  0.77895  0.80241  1.0000
  H   H456      1.0  0.03398  0.77146  0.75939  1.0000
  Fe  Fe62      1.0  0.22704  0.68690  0.71956  1.0000
  N   N26       1.0  0.41301  0.82887  0.90464  1.0000
  C   C406      1.0  0.43710  0.80371  0.90036  1.0000
  C   C407      1.0  0.40040  0.84263  0.88950  1.0000
  C   C408      1.0  0.42910  0.85373  0.91357  1.0000
  C   C409      1.0  0.38692  0.81731  0.91441  1.0000
  C   C410      1.0  0.38404  0.78478  0.91818  1.0000
  C   C411      1.0  0.36312  0.83888  0.92035  1.0000
  H   H457      1.0  0.04613  0.70584  0.82944  1.0000
  C   C412      1.0  0.30337  0.71771  0.78597  1.0000
  H   H458      1.0  0.42728  0.78516  0.89263  1.0000
  H   H459      1.0  0.45669  0.81318  0.89327  1.0000
  H   H460      1.0  0.44768  0.79228  0.91121  1.0000
  H   H461      1.0  0.38708  0.82502  0.88281  1.0000
  H   H462      1.0  0.41932  0.85034  0.88140  1.0000
  H   H463      1.0  0.38390  0.86339  0.89155  1.0000
  H   H464      1.0  0.43735  0.84479  0.92547  1.0000
  H   H465      1.0  0.44983  0.86177  0.90686  1.0000
  H   H466      1.0  0.41367  0.87525  0.91569  1.0000
  H   H467      1.0  0.40031  0.76643  0.91379  1.0000
  H   H468      1.0  0.31774  0.61894  0.69487  1.0000
  H   H469      1.0  0.03296  0.70185  0.77877  1.0000
  C   C413      1.0  0.26997  0.81753  0.81300  1.0000
  H   H470      1.0  0.50233  0.51376  0.67326  1.0000
  H   H471      1.0  0.48240  0.61838  0.68990  1.0000
  C   C414      1.0  0.22196  0.70220  0.93036  1.0000
  H   H472      1.0  0.02641  0.87660  0.89611  1.0000
  C   C415      1.0  0.27096  0.62348  0.81539  1.0000
  H   H473      1.0  0.23459  0.72455  0.93117  1.0000
  C   C416      1.0  0.00947  0.78956  0.91212  1.0000
  N   N27       1.0  0.01445  0.87737  0.92137  1.0000
  C   C417      1.0  0.04764  0.87708  0.92651  1.0000
  H   H474      1.0  0.14037  0.68975  0.95732  1.0000
  C   C418      1.0  0.17561  0.67415  0.93960  1.0000
  C   C419      1.0  0.10258  0.52755  0.93186  1.0000
  H   H475      1.0  0.12974  0.59614  0.93976  1.0000
  H   H476      1.0  0.23882  0.78831  0.82593  1.0000
  H   H477      1.0  0.01959  0.91546  0.90449  1.0000
  H   H478      1.0  0.07112  0.95736  0.94042  1.0000
  H   H479      1.0  0.28060  0.82657  0.82379  1.0000
  H   H480      1.0  0.05947  0.79525  0.81210  1.0000
  C   C420      1.0  0.46314  0.71179  0.69395  1.0000
  H   H481      1.0  0.23813  0.68280  0.93486  1.0000
  H   H482      1.0  0.17426  0.60129  0.92129  1.0000
  H   H483      1.0  0.01862  0.71016  0.93222  1.0000
  C   C421      1.0  0.01745  0.68469  0.90989  1.0000
  H   H484      1.0  0.05071  0.86679  0.93873  1.0000
  H   H485      1.0  0.01528  0.56451  0.92356  1.0000
  H   H486      1.0  0.38166  0.74538  0.67713  1.0000
  H   H487      1.0  0.21798  0.69850  0.91735  1.0000
  H   H488      1.0  0.05634  0.90146  0.92693  1.0000
  C   C422      1.0  0.45899  0.73273  0.68118  1.0000
  C   C423      1.0  0.03683  0.70539  0.80400  1.0000
  H   H489      1.0  0.49213  0.86250  0.75535  1.0000
  C   C424      1.0  0.12359  0.50356  0.90758  1.0000
  C   C425      1.0  0.16765  0.62064  0.92939  1.0000
  H   H490      1.0  0.17874  0.72060  0.96346  1.0000
  H   H491      1.0  0.32057  0.84557  0.93418  1.0000
  C   C426      1.0  0.14910  0.67070  0.94964  1.0000
  H   H492      1.0  0.48398  0.66817  0.70234  1.0000
  H   H493      1.0  0.06794  0.60563  0.89418  1.0000
  H   H494      1.0  0.03713  0.61032  0.87967  1.0000
  H   H495      1.0  0.03755  0.54639  0.90778  1.0000
  H   H496      1.0  0.06370  0.86340  0.91834  1.0000
  H   H497      1.0  0.05534  0.57448  0.92044  1.0000
  H   H498      1.0  0.49201  0.77661  0.72175  1.0000
  C   C427      1.0  0.05555  0.70081  0.81756  1.0000
  C   C428      1.0  0.14234  0.61774  0.93973  1.0000
  H   H499      1.0  0.35027  0.67982  0.79822  1.0000
  H   H500      1.0  0.08925  0.77437  0.72126  1.0000
  S   S122      1.0  0.18783  0.67443  0.73644  1.0000
  H   H501      1.0  0.01121  0.79079  0.95389  1.0000
  C   C429      1.0  0.06963  0.67748  0.75767  1.0000
  H   H502      1.0  0.06139  0.70242  0.75535  1.0000
  H   H503      1.0  0.07985  0.66853  0.74611  1.0000
  S   S123      1.0  0.18701  0.79148  0.97481  1.0000
  C   C430      1.0  0.27775  0.68363  0.67997  1.0000
  H   H504      1.0  0.00827  0.79893  0.83648  1.0000
  H   H505      1.0  0.14917  0.73321  0.93932  1.0000
  H   H506      1.0  0.48264  0.72904  0.78070  1.0000
  H   H507      1.0  0.20287  0.64932  0.92054  1.0000
  H   H508      1.0  0.11273  0.64076  0.95749  1.0000
  H   H509      1.0  0.31747  0.78905  0.94080  1.0000
  C   C431      1.0  0.10473  0.96207  0.98344  1.0000
  N   N28       1.0  0.02272  0.59545  0.90345  1.0000
  C   C432      1.0  0.03843  0.77773  0.72042  1.0000
  C   C433      1.0  0.06807  0.76139  0.72142  1.0000
  C   C434      1.0  0.04222  0.71198  0.72208  1.0000
  H   H510      1.0  0.45189  0.71736  0.70536  1.0000
  C   C435      1.0  0.24971  0.83639  0.75775  1.0000
  H   H511      1.0  0.11448  0.96344  0.99537  1.0000
  H   H512      1.0  0.30620  0.85849  0.75528  1.0000
  H   H513      1.0  0.50225  0.71885  0.72502  1.0000
  H   H514      1.0  0.02723  0.61034  0.99133  1.0000
  C   C436      1.0  0.49315  0.81171  0.78717  1.0000
  H   H515      1.0  0.46004  0.84243  0.76310  1.0000
  H   H516      1.0  0.43164  0.97425  0.68257  1.0000
  C   C437      1.0  0.28912  0.66994  0.80109  1.0000
  H   H517      1.0  0.04916  0.66298  0.76016  1.0000
  S   S124      1.0  0.26265  0.65163  0.70798  1.0000
  H   H518      1.0  0.02245  0.77155  0.90523  1.0000
  C   C438      1.0  0.01951  0.82050  0.91240  1.0000
  H   H519      1.0  0.31677  0.70397  0.77661  1.0000
  C   C439      1.0  0.13290  0.64281  0.94974  1.0000
  C   C440      1.0  0.28025  0.82726  0.79794  1.0000
  H   H520      1.0  0.01311  0.69508  0.97101  1.0000
  H   H521      1.0  0.29893  0.84356  0.79793  1.0000
  H   H522      1.0  0.18281  0.75217  0.93204  1.0000
  H   H523      1.0  0.44462  0.75443  0.68269  1.0000
  C   C441      1.0  0.01065  0.73050  0.86384  1.0000
  C   C442      1.0  0.25940  0.61138  0.80116  1.0000
  H   H524      1.0  0.01685  0.70590  0.90259  1.0000
  C   C443      1.0  0.46850  0.78766  0.81610  1.0000
  C   C444      1.0  0.33873  0.82874  0.92995  1.0000
  C   C445      1.0  0.35933  0.77488  0.92767  1.0000
  C   C446      1.0  0.01733  0.65496  0.90256  1.0000
  C   C447      1.0  0.24650  0.79596  0.81423  1.0000
  H   H525      1.0  0.16488  0.72276  0.91988  1.0000
  H   H526      1.0  0.27694  0.77872  0.75667  1.0000
  H   H527      1.0  0.25771  0.69945  0.68254  1.0000
  C   C448      1.0  0.28552  0.65879  0.69052  1.0000
  C   C449      1.0  0.00847  0.74247  0.96175  1.0000
  H   H528      1.0  0.20091  0.76535  0.89927  1.0000
  C   C450      1.0  0.04566  0.59589  0.89005  1.0000
  H   H529      1.0  0.21568  0.76634  0.80130  1.0000
  H   H530      1.0  0.06777  0.79364  0.95980  1.0000
  C   C451      1.0  0.18402  0.64845  0.92916  1.0000
  H   H531      1.0  0.10100  0.68569  0.82642  1.0000
  C   C452      1.0  0.02394  0.77040  0.95888  1.0000
  H   H532      1.0  0.25356  0.61847  0.77582  1.0000
  H   H533      1.0  0.30332  0.80448  0.74749  1.0000
  C   C453      1.0  0.05599  0.77208  0.96221  1.0000
  H   H534      1.0  0.04980  0.79238  0.78513  1.0000
  H   H535      1.0  0.01531  0.65423  0.88969  1.0000
  H   H536      1.0  0.23382  0.81712  0.75495  1.0000
  C   C454      1.0  0.27739  0.65673  0.78673  1.0000
  H   H537      1.0  0.23367  0.78196  0.77489  1.0000
  H   H538      1.0  0.01275  0.71430  0.80532  1.0000
  N   N29       1.0  0.27728  0.82534  0.76740  1.0000
  H   H539      1.0  0.25678  0.84571  0.74585  1.0000
  Fe  Fe63      1.0  0.17631  0.83918  0.98574  1.0000
  C   C455      1.0  0.07254  0.98493  0.96217  1.0000
  H   H540      1.0  0.04343  0.68639  0.72231  1.0000
  C   C456      1.0  0.23354  0.78362  0.80038  1.0000
  C   C457      1.0  0.28729  0.72194  0.81342  1.0000
  C   C458      1.0  0.33710  0.69613  0.80659  1.0000
  H   H541      1.0  0.05160  0.57182  0.88515  1.0000
  H   H542      1.0  0.29004  0.71327  0.82594  1.0000
  H   H543      1.0  0.48073  0.72463  0.84183  1.0000
  H   H544      1.0  0.12282  0.81648  0.86870  1.0000
  H   H545      1.0  0.04903  0.82817  0.82475  1.0000
  H   H546      1.0  0.24722  0.58950  0.80129  1.0000
  S   S125      1.0  0.19723  0.72449  0.70696  1.0000
  C   C459      1.0  0.26709  0.81558  0.78356  1.0000
  H   H547      1.0  0.13849  0.69386  0.77537  1.0000
  C   C460      1.0  0.24388  0.79292  0.78527  1.0000
  H   H548      1.0  0.33940  0.68578  0.81881  1.0000
  H   H549      1.0  0.28856  0.87302  0.77358  1.0000
  H   H550      1.0  0.03721  0.80326  0.71949  1.0000
  C   C461      1.0  0.50218  0.73433  0.84605  1.0000
  N   N30       1.0  0.30391  0.70087  0.80161  1.0000
  C   C462      1.0  0.33690  0.79684  0.93366  1.0000
  C   C463      1.0  0.31156  0.63830  0.68684  1.0000
  H   H551      1.0  0.27889  0.72243  0.78169  1.0000
  N   N31       1.0  0.19212  0.70410  0.93959  1.0000
  H   H552      1.0  0.26794  0.61081  0.82654  1.0000
  H   H553      1.0  0.34911  0.71892  0.80693  1.0000
  H   H554      1.0  0.44777  0.79965  0.77742  1.0000
  C   C464      1.0  0.48152  0.68369  0.69208  1.0000
  H   H555      1.0  0.26176  0.72387  0.81077  1.0000
  C   C465      1.0  0.02043  0.62664  0.91161  1.0000
  H   H556      1.0  0.21290  0.69398  0.96264  1.0000
  C   C466      1.0  0.17131  0.72918  0.93238  1.0000
  C   C467      1.0  0.26295  0.62777  0.78685  1.0000
  H   H557      1.0  0.48346  0.79019  0.75685  1.0000
  C   C468      1.0  0.46276  0.79960  0.78786  1.0000
  C   C469      1.0  0.01988  0.65977  0.93583  1.0000
  C   C470      1.0  0.02078  0.62993  0.92858  1.0000
  H   H558      1.0  0.02161  0.60977  0.93652  1.0000
  C   C471      1.0  0.01201  0.89065  0.90495  1.0000
  C   C472      1.0  0.03719  0.56055  0.99465  1.0000
  C   C473      1.0  0.45076  0.78773  0.80212  1.0000
  C   C474      1.0  0.48335  0.85083  0.76634  1.0000
  H   H559      1.0  0.49172  0.96651  0.71077  1.0000
  C   C475      1.0  0.01259  0.72835  0.72150  1.0000
  H   H560      1.0  0.04715  0.51252  0.00096  1.0000
  H   H561      1.0  0.03317  0.55475  0.98215  1.0000
  C   C476      1.0  0.50075  0.76071  0.85623  1.0000
  H   H562      1.0  0.03996  0.82537  0.90535  1.0000
  C   C477      1.0  0.01048  0.76137  0.72038  1.0000
  C   C478      1.0  0.44222  0.97761  0.67094  1.0000
  C   C479      1.0  0.03389  0.59184  0.99981  1.0000
  C   C480      1.0  0.49854  0.79895  0.81583  1.0000
  H   H563      1.0  0.00564  0.92353  0.93217  1.0000
  C   C481      1.0  0.01654  0.77617  0.76870  1.0000
  C   C482      1.0  0.00562  0.76335  0.86570  1.0000
  N   N32       1.0  0.01048  0.81025  0.81133  1.0000
  C   C483      1.0  0.32953  0.64245  0.67280  1.0000
  H   H564      1.0  0.00044  0.27595  0.13094  1.0000
  H   H565      1.0  0.81483  0.27657  0.31032  1.0000
  C   C484      1.0  0.51149  0.25059  0.30544  1.0000
  C   C485      1.0  0.83529  0.17203  0.08500  1.0000
  N   N33       1.0  0.99193  0.31470  0.31878  1.0000
  C   C486      1.0  0.60037  0.14568  0.28826  1.0000
  S   S126      1.0  0.65742  0.08771  0.31269  1.0000
  H   H566      1.0  0.77338  0.27276  0.30822  1.0000
  Fe  Fe64      1.0  0.93319  0.33181  0.21810  1.0000
  S   S127      1.0  0.92707  0.29655  0.19833  1.0000
  S   S128      1.0  0.93646  0.30318  0.24138  1.0000
  Fe  Fe65      1.0  0.94025  0.38571  0.19313  1.0000
  S   S129      1.0  0.93369  0.35325  0.17233  1.0000
  S   S130      1.0  0.95739  0.43518  0.18802  1.0000
  Fe  Fe66      1.0  0.89517  0.33353  0.18707  1.0000
  S   S131      1.0  0.85289  0.31459  0.17475  1.0000
  Fe  Fe67      1.0  0.96596  0.31945  0.18571  1.0000
  C   C487      1.0  0.92434  0.09871  0.02178  1.0000
  S   S132      1.0  0.89879  0.36834  0.20737  1.0000
  S   S133      1.0  0.97482  0.35236  0.20594  1.0000
  Fe  Fe68      1.0  0.91650  0.12721  0.09584  1.0000
  S   S134      1.0  0.96864  0.12297  0.09779  1.0000
  S   S135      1.0  0.88998  0.11149  0.07401  1.0000
  Fe  Fe69      1.0  0.90763  0.15738  0.12955  1.0000
  S   S136      1.0  0.95971  0.15524  0.13375  1.0000
  S   S137      1.0  0.87685  0.18696  0.14706  1.0000
  Fe  Fe70      1.0  0.96420  0.17179  0.10840  1.0000
  C   C488      1.0  0.98300  0.32808  0.28971  1.0000
  Fe  Fe71      1.0  0.95911  0.10657  0.12285  1.0000
  S   S138      1.0  0.98892  0.06719  0.13398  1.0000
  S   S139      1.0  0.91234  0.17736  0.10470  1.0000
  S   S140      1.0  0.90677  0.10723  0.12041  1.0000
  Fe  Fe72      1.0  0.71510  0.24950  0.21694  1.0000
  S   S141      1.0  0.74954  0.21157  0.22531  1.0000
  S   S142      1.0  0.72922  0.29997  0.21551  1.0000
  Fe  Fe73      1.0  0.66128  0.20531  0.21437  1.0000
  S   S143      1.0  0.69204  0.16313  0.22209  1.0000
  S   S144      1.0  0.60983  0.19951  0.20797  1.0000
  Fe  Fe74      1.0  0.71016  0.19567  0.24085  1.0000
  S   S145      1.0  0.71761  0.18971  0.26760  1.0000
  Fe  Fe75      1.0  0.72907  0.18245  0.20578  1.0000
  S   S146      1.0  0.75991  0.14995  0.18978  1.0000
  S   S147      1.0  0.67735  0.23651  0.23413  1.0000
  S   S148      1.0  0.69666  0.22164  0.19638  1.0000
  C   C489      1.0  0.57518  0.21973  0.21526  1.0000
  C   C490      1.0  0.54597  0.21094  0.20942  1.0000
  H   H567      1.0  0.62985  0.12121  0.26030  1.0000
  C   C491      1.0  0.54779  0.25980  0.23177  1.0000
  C   C492      1.0  0.57592  0.24403  0.22663  1.0000
  H   H568      1.0  0.54508  0.19206  0.20068  1.0000
  H   H569      1.0  0.53336  0.36354  0.21204  1.0000
  H   H570      1.0  0.59811  0.25093  0.23135  1.0000
  C   C493      1.0  0.77956  0.15106  0.10284  1.0000
  C   C494      1.0  0.84480  0.17589  0.15907  1.0000
  C   C495      1.0  0.82697  0.19964  0.16729  1.0000
  C   C496      1.0  0.80103  0.19217  0.17680  1.0000
  C   C497      1.0  0.79248  0.16077  0.17808  1.0000
  C   C498      1.0  0.81018  0.13707  0.16974  1.0000
  C   C499      1.0  0.83623  0.14453  0.16030  1.0000
  H   H571      1.0  0.83328  0.22402  0.16628  1.0000
  H   H572      1.0  0.78755  0.21069  0.18305  1.0000
  H   H573      1.0  0.80381  0.11270  0.17070  1.0000
  H   H574      1.0  0.84978  0.12597  0.15412  1.0000
  H   H575      1.0  0.94994  0.49311  0.03862  1.0000
  C   C500      1.0  0.98676  0.02973  0.12496  1.0000
  C   C501      1.0  0.96213  0.02282  0.11468  1.0000
  H   H576      1.0  0.56413  0.19912  0.25227  1.0000
  H   H577      1.0  0.79414  0.31573  0.24200  1.0000
  H   H578      1.0  0.94405  0.04081  0.11201  1.0000
  C   C502      1.0  0.81809  0.31184  0.18588  1.0000
  C   C503      1.0  0.79707  0.28879  0.18165  1.0000
  C   C504      1.0  0.77015  0.28456  0.19094  1.0000
  C   C505      1.0  0.76325  0.30450  0.20399  1.0000
  C   C506      1.0  0.78365  0.32833  0.20787  1.0000
  C   C507      1.0  0.81143  0.33149  0.19908  1.0000
  H   H579      1.0  0.80200  0.27367  0.17139  1.0000
  H   H580      1.0  0.75444  0.26626  0.18779  1.0000
  H   H581      1.0  0.77811  0.34424  0.21776  1.0000
  H   H582      1.0  0.82736  0.34955  0.20231  1.0000
  C   C508      1.0  0.95551  0.45611  0.16942  1.0000
  C   C509      1.0  0.94123  0.50156  0.02672  1.0000
  C   C510      1.0  0.94582  0.10771  0.03352  1.0000
  H   H583      1.0  0.92335  0.42585  0.15789  1.0000
  H   H584      1.0  0.97245  0.22060  0.21935  1.0000
  C   C511      1.0  0.93600  0.11200  0.04972  1.0000
  C   C512      1.0  0.90482  0.10701  0.05415  1.0000
  C   C513      1.0  0.93718  0.44642  0.15658  1.0000
  H   H585      1.0  0.95246  0.11909  0.05872  1.0000
  H   H586      1.0  0.85982  0.09396  0.04558  1.0000
  C   C514      1.0  0.89030  0.34307  0.27991  1.0000
  C   C515      1.0  0.90295  0.33860  0.26438  1.0000
  C   C516      1.0  0.91770  0.30956  0.26015  1.0000
  C   C517      1.0  0.91918  0.28493  0.27146  1.0000
  C   C518      1.0  0.90628  0.28929  0.28691  1.0000
  H   H587      1.0  0.87923  0.36576  0.28315  1.0000
  H   H588      1.0  0.90181  0.35782  0.25582  1.0000
  H   H589      1.0  0.93058  0.26238  0.26829  1.0000
  C   C519      1.0  0.67475  0.11584  0.30023  1.0000
  C   C520      1.0  0.67712  0.11032  0.28363  1.0000
  C   C521      1.0  0.68992  0.13284  0.27340  1.0000
  C   C522      1.0  0.70079  0.16086  0.27978  1.0000
  C   C523      1.0  0.69899  0.16605  0.29639  1.0000
  C   C524      1.0  0.68592  0.14375  0.30656  1.0000
  H   H590      1.0  0.66906  0.08850  0.27871  1.0000
  H   H591      1.0  0.69189  0.12827  0.26066  1.0000
  H   H592      1.0  0.70768  0.18744  0.30148  1.0000
  H   H593      1.0  0.68499  0.14798  0.31933  1.0000
  N   N34       1.0  0.80138  0.23962  0.29400  1.0000
  H   H594      1.0  0.96973  0.11168  0.03010  1.0000
  C   C525      1.0  0.59733  0.16997  0.27651  1.0000
  H   H595      1.0  0.87664  0.08706  0.01750  1.0000
  C   C526      1.0  0.93600  0.46391  0.14215  1.0000
  H   H596      1.0  0.85009  0.25983  0.09409  1.0000
  C   C527      1.0  0.58926  0.20805  0.29863  1.0000
  C   C528      1.0  0.83311  0.22378  0.29467  1.0000
  H   H597      1.0  0.58842  0.11454  0.25936  1.0000
  C   C529      1.0  0.84573  0.23531  0.09154  1.0000
  C   C530      1.0  0.77666  0.25598  0.26724  1.0000
  H   H598      1.0  0.81258  0.19375  0.13215  1.0000
  C   C531      1.0  0.88384  0.09792  0.04235  1.0000
  H   H599      1.0  0.76541  0.13742  0.11140  1.0000
  H   H600      1.0  0.75371  0.22470  0.29437  1.0000
  H   H601      1.0  0.79659  0.24444  0.31970  1.0000
  C   C532      1.0  0.89344  0.09394  0.02638  1.0000
  N   N35       1.0  0.80628  0.16547  0.11096  1.0000
  C   C533      1.0  0.77824  0.21451  0.29437  1.0000
  H   H602      1.0  0.92119  0.45655  0.13247  1.0000
  H   H603      1.0  0.78733  0.13407  0.09327  1.0000
  C   C534      1.0  0.97316  0.48311  0.16743  1.0000
  H   H604      1.0  0.83720  0.12395  0.10711  1.0000
  H   H605      1.0  0.94763  0.22000  0.14743  1.0000
  C   C535      1.0  0.77508  0.27593  0.25387  1.0000
  C   C536      1.0  0.89209  0.31855  0.29129  1.0000
  H   H606      1.0  0.77634  0.20249  0.12156  1.0000
  N   N36       1.0  0.86259  0.22995  0.21835  1.0000
  C   C537      1.0  0.84346  0.20161  0.21879  1.0000
  C   C538      1.0  0.86394  0.24286  0.23493  1.0000
  C   C539      1.0  0.84636  0.25442  0.20828  1.0000
  C   C540      1.0  0.89376  0.22140  0.21136  1.0000
  C   C541      1.0  0.89632  0.20878  0.19558  1.0000
  C   C542      1.0  0.92221  0.22538  0.21977  1.0000
  C   C543      1.0  0.92544  0.20096  0.18859  1.0000
  C   C544      1.0  0.95118  0.21719  0.21272  1.0000
  C   C545      1.0  0.95288  0.20526  0.19714  1.0000
  H   H607      1.0  0.83829  0.19253  0.20659  1.0000
  H   H608      1.0  0.85565  0.18195  0.22552  1.0000
  H   H609      1.0  0.82030  0.20680  0.22460  1.0000
  H   H610      1.0  0.87528  0.22543  0.24333  1.0000
  H   H611      1.0  0.84013  0.24901  0.23980  1.0000
  H   H612      1.0  0.87696  0.26508  0.23531  1.0000
  H   H613      1.0  0.84213  0.24599  0.19588  1.0000
  H   H614      1.0  0.82300  0.26209  0.21328  1.0000
  H   H615      1.0  0.86040  0.27583  0.20725  1.0000
  H   H616      1.0  0.87577  0.20501  0.18846  1.0000
  H   H617      1.0  0.92288  0.23538  0.23168  1.0000
  H   H618      1.0  0.92660  0.19150  0.17647  1.0000
  H   H619      1.0  0.59034  0.18874  0.32257  1.0000
  H   H620      1.0  0.78071  0.19962  0.30538  1.0000
  N   N37       1.0  0.93735  0.26792  0.13948  1.0000
  C   C546      1.0  0.92019  0.27438  0.15471  1.0000
  C   C547      1.0  0.91489  0.25829  0.12708  1.0000
  C   C548      1.0  0.95967  0.24058  0.14247  1.0000
  C   C549      1.0  0.95257  0.29664  0.13389  1.0000
  C   C550      1.0  0.93460  0.32547  0.13170  1.0000
  C   C551      1.0  0.98477  0.29656  0.12954  1.0000
  C   C552      1.0  0.94797  0.35241  0.12554  1.0000
  H   H621      1.0  0.53103  0.27277  0.18949  1.0000
  C   C553      1.0  0.97940  0.35129  0.12106  1.0000
  H   H622      1.0  0.90085  0.29261  0.15343  1.0000
  H   H623      1.0  0.90901  0.25295  0.15935  1.0000
  H   H624      1.0  0.93639  0.28252  0.16411  1.0000
  H   H625      1.0  0.00199  0.24633  0.25285  1.0000
  H   H626      1.0  0.90350  0.23623  0.13050  1.0000
  C   C554      1.0  0.95355  0.49098  0.14017  1.0000
  C   C555      1.0  0.89148  0.47732  0.02894  1.0000
  C   C556      1.0  0.52872  0.31848  0.20072  1.0000
  H   H627      1.0  0.00194  0.05223  0.03685  1.0000
  H   H628      1.0  0.90993  0.32736  0.13463  1.0000
  H   H629      1.0  0.95788  0.35437  0.31750  1.0000
  H   H630      1.0  0.93383  0.37424  0.12416  1.0000
  H   H631      1.0  0.89921  0.45923  0.01990  1.0000
  H   H632      1.0  0.89709  0.46672  0.04088  1.0000
  N   N38       1.0  0.62969  0.31321  0.19700  1.0000
  C   C557      1.0  0.64115  0.28683  0.20740  1.0000
  C   C558      1.0  0.64002  0.30635  0.18028  1.0000
  C   C559      1.0  0.64522  0.34210  0.20233  1.0000
  C   C560      1.0  0.59504  0.31600  0.19790  1.0000
  C   C561      1.0  0.57695  0.29097  0.19229  1.0000
  C   C562      1.0  0.57837  0.34247  0.20496  1.0000
  C   C563      1.0  0.54430  0.29245  0.19356  1.0000
  C   C564      1.0  0.54569  0.34347  0.20636  1.0000
  H   H633      1.0  0.77286  0.14701  0.33292  1.0000
  H   H634      1.0  0.63248  0.26368  0.20349  1.0000
  H   H635      1.0  0.66716  0.28430  0.20734  1.0000
  H   H636      1.0  0.63351  0.29078  0.22005  1.0000
  H   H637      1.0  0.63288  0.28289  0.17599  1.0000
  H   H638      1.0  0.66606  0.30569  0.17916  1.0000
  H   H639      1.0  0.63017  0.32465  0.17187  1.0000
  H   H640      1.0  0.64057  0.34736  0.21524  1.0000
  H   H641      1.0  0.67127  0.33923  0.20125  1.0000
  H   H642      1.0  0.63763  0.36304  0.19500  1.0000
  H   H643      1.0  0.58792  0.26952  0.18734  1.0000
  H   H644      1.0  0.59000  0.36251  0.20972  1.0000
  C   C565      1.0  0.96678  0.29184  0.31914  1.0000
  C   C566      1.0  0.51781  0.22657  0.21464  1.0000
  C   C567      1.0  0.85231  0.18976  0.07423  1.0000
  H   H645      1.0  0.83826  0.20986  0.28357  1.0000
  H   H646      1.0  0.75990  0.23779  0.26768  1.0000
  C   C568      1.0  0.79898  0.26007  0.27960  1.0000
  H   H647      1.0  0.60551  0.12113  0.28525  1.0000
  C   C569      1.0  0.82881  0.21770  0.10247  1.0000
  C   C570      1.0  0.79569  0.30022  0.25232  1.0000
  C   C571      1.0  0.79636  0.25924  0.30865  1.0000
  C   C572      1.0  0.81951  0.28513  0.27763  1.0000
  H   H648      1.0  0.78115  0.19805  0.28398  1.0000
  H   H649      1.0  0.58573  0.23229  0.30272  1.0000
  C   C573      1.0  0.60712  0.12985  0.25505  1.0000
  H   H650      1.0  0.97477  0.26860  0.31392  1.0000
  Fe  Fe76      1.0  0.87834  0.29032  0.33143  1.0000
  H   H651      1.0  0.75746  0.27279  0.24473  1.0000
  S   S149      1.0  0.87613  0.32545  0.31073  1.0000
  H   H652      1.0  0.99756  0.35905  0.15365  1.0000
  H   H653      1.0  0.98947  0.37213  0.11608  1.0000
  S   S150      1.0  0.99240  0.21166  0.09919  1.0000
  H   H654      1.0  0.86554  0.48076  0.02804  1.0000
  H   H655      1.0  0.87117  0.23481  0.06920  1.0000
  H   H656      1.0  0.90762  0.27009  0.29544  1.0000
  C   C574      1.0  0.59208  0.18366  0.30982  1.0000
  H   H657      1.0  0.83382  0.32388  0.26302  1.0000
  H   H658      1.0  0.83671  0.28997  0.28666  1.0000
  C   C575      1.0  0.59763  0.15260  0.30463  1.0000
  C   C576      1.0  0.00363  0.31751  0.30214  1.0000
  S   S151      1.0  0.89450  0.24019  0.32713  1.0000
  H   H659      1.0  0.86223  0.17854  0.06351  1.0000
  H   H660      1.0  0.82087  0.22988  0.11323  1.0000
  H   H661      1.0  0.60052  0.13371  0.31339  1.0000
  H   H662      1.0  0.95397  0.04568  0.05171  1.0000
  C   C577      1.0  0.79358  0.18324  0.12513  1.0000
  C   C578      1.0  0.85753  0.22134  0.07749  1.0000
  C   C579      1.0  0.82310  0.18534  0.09949  1.0000
  C   C580      1.0  0.97082  0.00361  0.06391  1.0000
  H   H663      1.0  0.84870  0.14978  0.12280  1.0000
  H   H664      1.0  0.54867  0.27906  0.24029  1.0000
  H   H665      1.0  0.85180  0.24089  0.29620  1.0000
  H   H666      1.0  0.83264  0.14741  0.08206  1.0000
  H   H667      1.0  0.58924  0.22108  0.27400  1.0000
  C   C581      1.0  0.82806  0.13979  0.11691  1.0000
  H   H668      1.0  0.92699  0.25371  0.11537  1.0000
  H   H669      1.0  0.81673  0.12457  0.12588  1.0000
  H   H670      1.0  0.83547  0.20715  0.30499  1.0000
  N   N39       1.0  0.59996  0.16368  0.25905  1.0000
  C   C582      1.0  0.81795  0.30476  0.26416  1.0000
  H   H671      1.0  0.97119  0.23221  0.13119  1.0000
  H   H672      1.0  0.76374  0.16956  0.09723  1.0000
  H   H673      1.0  0.78151  0.16763  0.13368  1.0000
  H   H674      1.0  0.57101  0.16838  0.23791  1.0000
  H   H675      1.0  0.97553  0.19947  0.19169  1.0000
  H   H676      1.0  0.64781  0.17735  0.25863  1.0000
  C   C583      1.0  0.51859  0.25139  0.22570  1.0000
  C   C584      1.0  0.97364  0.02879  0.05336  1.0000
  C   C585      1.0  0.59156  0.20139  0.28222  1.0000
  H   H677      1.0  0.89578  0.27663  0.12515  1.0000
  H   H678      1.0  0.99649  0.36422  0.32369  1.0000
  H   H679      1.0  0.55020  0.16053  0.25615  1.0000
  C   C586      1.0  0.97878  0.34586  0.32450  1.0000
  C   C587      1.0  0.97246  0.50026  0.15287  1.0000
  H   H680      1.0  0.97801  0.24665  0.15129  1.0000
  C   C588      1.0  0.62533  0.18215  0.25214  1.0000
  C   C589      1.0  0.57003  0.17337  0.25105  1.0000
  H   H681      1.0  0.50701  0.24117  0.27146  1.0000
  H   H682      1.0  0.98741  0.49092  0.17725  1.0000
  H   H683      1.0  0.62948  0.17630  0.23926  1.0000
  H   H684      1.0  0.60919  0.12601  0.24184  1.0000
  H   H685      1.0  0.54310  0.23738  0.32480  1.0000
  H   H686      1.0  0.61994  0.20805  0.25262  1.0000
  H   H687      1.0  0.95911  0.28718  0.33160  1.0000
  H   H688      1.0  0.51482  0.22736  0.30017  1.0000
  C   C590      1.0  0.99324  0.33038  0.27384  1.0000
  H   H689      1.0  0.95865  0.33452  0.29216  1.0000
  C   C591      1.0  0.99779  0.32348  0.12312  1.0000
  H   H690      1.0  0.97700  0.33849  0.26454  1.0000
  H   H691      1.0  0.98878  0.39846  0.16091  1.0000
  H   H692      1.0  0.94547  0.30057  0.31262  1.0000
  C   C592      1.0  0.52477  0.28521  0.32735  1.0000
  C   C593      1.0  0.52805  0.25604  0.31959  1.0000
  H   H693      1.0  0.98695  0.25573  0.28114  1.0000
  H   H694      1.0  0.94904  0.48345  0.01771  1.0000
  H   H695      1.0  0.99943  0.27577  0.20588  1.0000
  H   H696      1.0  0.00336  0.46348  0.11875  1.0000
  C   C594      1.0  0.00158  0.03229  0.04491  1.0000
  C   C595      1.0  0.50411  0.30870  0.32136  1.0000
  C   C596      1.0  0.53191  0.26587  0.36904  1.0000
  S   S152      1.0  0.70053  0.16891  0.37799  1.0000
  S   S153      1.0  0.60418  0.03675  0.38540  1.0000
  S   S154      1.0  0.61949  0.12847  0.38123  1.0000
  Fe  Fe77      1.0  0.62156  0.36009  0.45192  1.0000
  S   S155      1.0  0.67233  0.36978  0.45567  1.0000
  S   S156      1.0  0.58192  0.39451  0.44451  1.0000
  Fe  Fe78      1.0  0.63140  0.29019  0.46059  1.0000
  S   S157      1.0  0.68254  0.29466  0.46540  1.0000
  S   S158      1.0  0.61231  0.24161  0.46265  1.0000
  Fe  Fe79      1.0  0.66671  0.34010  0.47798  1.0000
  S   S159      1.0  0.68265  0.35128  0.50328  1.0000
  Fe  Fe80      1.0  0.68361  0.32342  0.44269  1.0000
  S   S160      1.0  0.71144  0.31044  0.41968  1.0000
  S   S161      1.0  0.61557  0.33301  0.47471  1.0000
  S   S162      1.0  0.63264  0.31640  0.43741  1.0000
  H   H697      1.0  0.64075  0.28084  0.50018  1.0000
  C   C597      1.0  0.53529  0.15870  0.42632  1.0000
  S   S163      1.0  0.64011  0.15274  0.34523  1.0000
  Fe  Fe81      1.0  0.92434  0.24511  0.34922  1.0000
  S   S164      1.0  0.90893  0.29636  0.35311  1.0000
  H   H698      1.0  0.97075  0.34473  0.33721  1.0000
  Fe  Fe82      1.0  0.86823  0.27838  0.36747  1.0000
  S   S165      1.0  0.85182  0.29724  0.39205  1.0000
  H   H699      1.0  0.56093  0.07222  0.40671  1.0000
  C   C598      1.0  0.64604  0.46834  0.52909  1.0000
  S   S166      1.0  0.88615  0.22732  0.36530  1.0000
  S   S167      1.0  0.52503  0.09791  0.62644  1.0000
  S   S168      1.0  0.54046  0.10224  0.58809  1.0000
  H   H700      1.0  0.52932  0.42514  0.53261  1.0000
  H   H701      1.0  0.55920  0.10189  0.37929  1.0000
  S   S169      1.0  0.50825  0.03850  0.60203  1.0000
  Fe  Fe83      1.0  0.54950  0.06687  0.60785  1.0000
  S   S170      1.0  0.59673  0.04100  0.61111  1.0000
  Fe  Fe84      1.0  0.58373  0.40878  0.58039  1.0000
  S   S171      1.0  0.54374  0.38009  0.58848  1.0000
  S   S172      1.0  0.58611  0.41587  0.55331  1.0000
  Fe  Fe85      1.0  0.60119  0.42608  0.61526  1.0000
  S   S173      1.0  0.56309  0.39725  0.62557  1.0000
  Fe  Fe86      1.0  0.57683  0.35983  0.60715  1.0000
  H   H702      1.0  0.52914  0.20900  0.42339  1.0000
  Fe  Fe87      1.0  0.53375  0.41974  0.60600  1.0000
  S   S174      1.0  0.61778  0.38681  0.59817  1.0000
  S   S175      1.0  0.57084  0.45025  0.59653  1.0000
  H   H703      1.0  0.64368  0.48416  0.46080  1.0000
  C   C599      1.0  0.62066  0.47639  0.45783  1.0000
  C   C600      1.0  0.53246  0.27624  0.60494  1.0000
  C   C601      1.0  0.56368  0.27345  0.60997  1.0000
  C   C602      1.0  0.50746  0.02154  0.44655  1.0000
  C   C603      1.0  0.53778  0.02703  0.65064  1.0000
  Fe  Fe88      1.0  0.64654  0.10159  0.33848  1.0000
  H   H704      1.0  0.53849  0.10877  0.42677  1.0000
  C   C604      1.0  0.53483  0.09400  0.37886  1.0000
  H   H705      1.0  0.55122  0.35799  0.39392  1.0000
  H   H706      1.0  0.51274  0.20532  0.39492  1.0000
  C   C605      1.0  0.55336  0.38109  0.40012  1.0000
  C   C606      1.0  0.65501  0.36787  0.51723  1.0000
  C   C607      1.0  0.66204  0.36756  0.53371  1.0000
  C   C608      1.0  0.64098  0.38173  0.54497  1.0000
  C   C609      1.0  0.61271  0.39633  0.53981  1.0000
  C   C610      1.0  0.60568  0.39661  0.52336  1.0000
  C   C611      1.0  0.62665  0.38241  0.51213  1.0000
  H   H707      1.0  0.68409  0.35672  0.53774  1.0000
  H   H708      1.0  0.64702  0.38229  0.55755  1.0000
  H   H709      1.0  0.58411  0.40818  0.51920  1.0000
  H   H710      1.0  0.62125  0.38352  0.49948  1.0000
  C   C612      1.0  0.57138  0.23942  0.46288  1.0000
  C   C613      1.0  0.55820  0.20971  0.46254  1.0000
  C   C614      1.0  0.52551  0.20740  0.46249  1.0000
  H   H711      1.0  0.58995  0.20747  0.36709  1.0000
  H   H712      1.0  0.52168  0.29942  0.60256  1.0000
  C   C615      1.0  0.55179  0.26684  0.46331  1.0000
  H   H713      1.0  0.57333  0.18844  0.46235  1.0000
  C   C616      1.0  0.62748  0.48837  0.64268  1.0000
  H   H714      1.0  0.56181  0.28981  0.46372  1.0000
  C   C617      1.0  0.75075  0.30769  0.41232  1.0000
  C   C618      1.0  0.75608  0.29793  0.39633  1.0000
  C   C619      1.0  0.78670  0.29493  0.38989  1.0000
  C   C620      1.0  0.81254  0.30166  0.39938  1.0000
  C   C621      1.0  0.80721  0.31141  0.41538  1.0000
  C   C622      1.0  0.77657  0.31438  0.42182  1.0000
  H   H715      1.0  0.73640  0.29267  0.38881  1.0000
  H   H716      1.0  0.79029  0.28740  0.37759  1.0000
  H   H717      1.0  0.82695  0.31679  0.42284  1.0000
  H   H718      1.0  0.77296  0.32199  0.43412  1.0000
  H   H719      1.0  0.67272  0.45256  0.48522  1.0000
  C   C623      1.0  0.56149  0.45623  0.44968  1.0000
  C   C624      1.0  0.58722  0.43433  0.44976  1.0000
  C   C625      1.0  0.61683  0.44456  0.45378  1.0000
  N   N40       1.0  0.52061  0.09467  0.39515  1.0000
  H   H720      1.0  0.53854  0.44879  0.44640  1.0000
  H   H721      1.0  0.63690  0.42813  0.45362  1.0000
  H   H722      1.0  0.58027  0.06791  0.65933  1.0000
  C   C626      1.0  0.73255  0.17661  0.36536  1.0000
  C   C627      1.0  0.75212  0.20116  0.36930  1.0000
  C   C628      1.0  0.77939  0.20596  0.36031  1.0000
  C   C629      1.0  0.56522  0.48788  0.45411  1.0000
  H   H723      1.0  0.63871  0.47085  0.54147  1.0000
  C   C630      1.0  0.73972  0.15767  0.35196  1.0000
  H   H724      1.0  0.74632  0.21622  0.37944  1.0000
  H   H725      1.0  0.79471  0.22445  0.36369  1.0000
  H   H726      1.0  0.50879  0.48176  0.57863  1.0000
  H   H727      1.0  0.50809  0.15397  0.38221  1.0000
  H   H728      1.0  0.51543  0.18445  0.46229  1.0000
  S   S176      1.0  0.50468  0.18514  0.60422  1.0000
  H   H729      1.0  0.52084  0.20314  0.54084  1.0000
  C   C631      1.0  0.56168  0.25068  0.37049  1.0000
  C   C632      1.0  0.53584  0.06803  0.40431  1.0000
  H   H730      1.0  0.58101  0.26353  0.37494  1.0000
  Fe  Fe89      1.0  0.62627  0.07819  0.37233  1.0000
  H   H731      1.0  0.52932  0.39221  0.40132  1.0000
  H   H732      1.0  0.55000  0.03812  0.64045  1.0000
  N   N41       1.0  0.55779  0.02469  0.66509  1.0000
  H   H733      1.0  0.60130  0.24049  0.61692  1.0000
  S   S177      1.0  0.97439  0.22524  0.34340  1.0000
  S   S178      1.0  0.60070  0.08902  0.34919  1.0000
  H   H734      1.0  0.63006  0.49098  0.49043  1.0000
  C   C633      1.0  0.68074  0.44127  0.51000  1.0000
  H   H735      1.0  0.56232  0.37621  0.41243  1.0000
  H   H736      1.0  0.68276  0.43389  0.53544  1.0000
  H   H737      1.0  0.53604  0.06983  0.37352  1.0000
  C   C634      1.0  0.56688  0.21896  0.36589  1.0000
  C   C635      1.0  0.55973  0.40784  0.37507  1.0000
  H   H738      1.0  0.56712  0.03672  0.57066  1.0000
  C   C636      1.0  0.54233  0.20231  0.35961  1.0000
  C   C637      1.0  0.67122  0.44697  0.52577  1.0000
  H   H739      1.0  0.57488  0.42228  0.36743  1.0000
  C   C638      1.0  0.52832  0.21852  0.60648  1.0000
  C   C639      1.0  0.61837  0.37221  0.37581  1.0000
  C   C640      1.0  0.78728  0.18609  0.34732  1.0000
  H   H740      1.0  0.53523  0.04525  0.39768  1.0000
  Fe  Fe90      1.0  0.66436  0.13709  0.36789  1.0000
  H   H741      1.0  0.65744  0.34673  0.36442  1.0000
  H   H742      1.0  0.69947  0.42372  0.50744  1.0000
  C   C641      1.0  0.64068  0.47930  0.50070  1.0000
  C   C642      1.0  0.62480  0.38307  0.40411  1.0000
  H   H743      1.0  0.52387  0.06392  0.41591  1.0000
  S   S179      1.0  0.58726  0.30690  0.61207  1.0000
  C   C643      1.0  0.61106  0.01624  0.40386  1.0000
  N   N42       1.0  0.81556  0.20126  0.41023  1.0000
  C   C644      1.0  0.82335  0.18889  0.42643  1.0000
  C   C645      1.0  0.84211  0.21986  0.40470  1.0000
  C   C646      1.0  0.78770  0.22351  0.41147  1.0000
  C   C647      1.0  0.80881  0.17457  0.39944  1.0000
  C   C648      1.0  0.82779  0.16604  0.38591  1.0000
  C   C649      1.0  0.78261  0.15600  0.40239  1.0000
  C   C650      1.0  0.82032  0.14109  0.37581  1.0000
  C   C651      1.0  0.77526  0.13125  0.39214  1.0000
  C   C652      1.0  0.79400  0.12391  0.37884  1.0000
  H   H744      1.0  0.84386  0.17160  0.42593  1.0000
  H   H745      1.0  0.82925  0.20826  0.43482  1.0000
  H   H746      1.0  0.80355  0.17664  0.43191  1.0000
  H   H747      1.0  0.86456  0.20542  0.40435  1.0000
  H   H748      1.0  0.84609  0.24036  0.41274  1.0000
  H   H749      1.0  0.83746  0.23008  0.39257  1.0000
  H   H750      1.0  0.78050  0.23227  0.39940  1.0000
  H   H751      1.0  0.76720  0.21275  0.41703  1.0000
  H   H752      1.0  0.79248  0.24464  0.41890  1.0000
  H   H753      1.0  0.84805  0.17872  0.38254  1.0000
  H   H754      1.0  0.76718  0.16082  0.41245  1.0000
  H   H755      1.0  0.75430  0.11836  0.39418  1.0000
  H   H756      1.0  0.78762  0.10545  0.37060  1.0000
  C   C653      1.0  0.59477  0.49801  0.45832  1.0000
  H   H757      1.0  0.68956  0.34342  0.38913  1.0000
  H   H758      1.0  0.53661  0.42111  0.37607  1.0000
  Fe  Fe91      1.0  0.85530  0.22769  0.34353  1.0000
  N   N43       1.0  0.65578  0.22862  0.41165  1.0000
  C   C654      1.0  0.66963  0.23060  0.42789  1.0000
  C   C655      1.0  0.64761  0.19546  0.40854  1.0000
  C   C656      1.0  0.68031  0.23645  0.39985  1.0000
  C   C657      1.0  0.62726  0.24989  0.41081  1.0000
  C   C658      1.0  0.60090  0.24418  0.42060  1.0000
  C   C659      1.0  0.62497  0.27707  0.40078  1.0000
  C   C660      1.0  0.57379  0.26402  0.42017  1.0000
  C   C661      1.0  0.59772  0.29674  0.40046  1.0000
  C   C662      1.0  0.57210  0.29005  0.40999  1.0000
  H   H759      1.0  0.65361  0.22244  0.43737  1.0000
  H   H760      1.0  0.69176  0.21580  0.42892  1.0000
  H   H761      1.0  0.67504  0.25543  0.43086  1.0000
  H   H762      1.0  0.63168  0.18625  0.41776  1.0000
  H   H763      1.0  0.66876  0.17899  0.40845  1.0000
  H   H764      1.0  0.63612  0.19334  0.39662  1.0000
  H   H765      1.0  0.68891  0.26047  0.40191  1.0000
  H   H766      1.0  0.70128  0.21990  0.40071  1.0000
  H   H767      1.0  0.67164  0.23474  0.38730  1.0000
  H   H768      1.0  0.60129  0.22463  0.42893  1.0000
  H   H769      1.0  0.64391  0.28377  0.39313  1.0000
  H   H770      1.0  0.55422  0.25933  0.42793  1.0000
  H   H771      1.0  0.59623  0.31688  0.39248  1.0000
  H   H772      1.0  0.58498  0.47932  0.53984  1.0000
  N   N44       1.0  0.61551  0.29725  0.56331  1.0000
  C   C663      1.0  0.60635  0.26660  0.57002  1.0000
  C   C664      1.0  0.64380  0.30720  0.57191  1.0000
  C   C665      1.0  0.58977  0.32116  0.56682  1.0000
  C   C666      1.0  0.62222  0.29341  0.54596  1.0000
  C   C667      1.0  0.64726  0.27262  0.54067  1.0000
  C   C668      1.0  0.60397  0.30925  0.53388  1.0000
  C   C669      1.0  0.65376  0.26819  0.52434  1.0000
  H   H773      1.0  0.56678  0.45999  0.64877  1.0000
  H   H774      1.0  0.59668  0.31708  0.50860  1.0000
  H   H775      1.0  0.62514  0.24768  0.56870  1.0000
  H   H776      1.0  0.60129  0.26855  0.58309  1.0000
  H   H777      1.0  0.58496  0.25833  0.56405  1.0000
  H   H778      1.0  0.66314  0.28872  0.57180  1.0000
  H   H779      1.0  0.63874  0.31242  0.58483  1.0000
  H   H780      1.0  0.65287  0.32891  0.56648  1.0000
  H   H781      1.0  0.56713  0.31442  0.56159  1.0000
  H   H782      1.0  0.58559  0.32373  0.57992  1.0000
  H   H783      1.0  0.59537  0.34502  0.56234  1.0000
  H   H784      1.0  0.66210  0.25972  0.54912  1.0000
  H   H785      1.0  0.58492  0.32609  0.53663  1.0000
  H   H786      1.0  0.67336  0.25270  0.52054  1.0000
  H   H787      1.0  0.53226  0.35180  0.43558  1.0000
  H   H788      1.0  0.59504  0.45043  0.66412  1.0000
  C   C670      1.0  0.51619  0.15434  0.39447  1.0000
  H   H789      1.0  0.72472  0.13879  0.34874  1.0000
  S   S180      1.0  0.52656  0.30573  0.37509  1.0000
  H   H790      1.0  0.50910  0.44251  0.55864  1.0000
  C   C671      1.0  0.63000  0.48526  0.51665  1.0000
  C   C672      1.0  0.51561  0.46442  0.66683  1.0000
  H   H791      1.0  0.55483  0.38548  0.36869  1.0000
  H   H792      1.0  0.55088  0.30499  0.40939  1.0000
  H   H793      1.0  0.65838  0.03000  0.40728  1.0000
  H   H794      1.0  0.58018  0.43006  0.41254  1.0000
  C   C673      1.0  0.61048  0.30431  0.51759  1.0000
  H   H795      1.0  0.52159  0.10923  0.37014  1.0000
  C   C674      1.0  0.56556  0.01491  0.53877  1.0000
  H   H796      1.0  0.53353  0.47612  0.62525  1.0000
  C   C675      1.0  0.66637  0.35509  0.38935  1.0000
  C   C676      1.0  0.57717  0.24299  0.61303  1.0000
  H   H797      1.0  0.66875  0.36626  0.41443  1.0000
  C   C677      1.0  0.64824  0.35704  0.37549  1.0000
  H   H798      1.0  0.59279  0.44771  0.39414  1.0000
  C   C678      1.0  0.53324  0.12899  0.41917  1.0000
  C   C679      1.0  0.60588  0.38612  0.39017  1.0000
  H   H799      1.0  0.57040  0.19255  0.61377  1.0000
  H   H800      1.0  0.57154  0.46925  0.52029  1.0000
  N   N45       1.0  0.57410  0.40170  0.39107  1.0000
  H   H801      1.0  0.51577  0.16735  0.56164  1.0000
  H   H802      1.0  0.56709  0.42286  0.65918  1.0000
  C   C680      1.0  0.51490  0.24898  0.60332  1.0000
  H   H803      1.0  0.51681  0.41513  0.65875  1.0000
  S   S181      1.0  0.63334  0.45110  0.63273  1.0000
  S   S182      1.0  0.67329  0.08603  0.36066  1.0000
  C   C681      1.0  0.52400  0.12587  0.40290  1.0000
  H   H804      1.0  0.60101  0.01775  0.65169  1.0000
  H   H805      1.0  0.55136  0.03279  0.54505  1.0000
  C   C682      1.0  0.63538  0.28397  0.51283  1.0000
  H   H806      1.0  0.52945  0.03215  0.44398  1.0000
  H   H807      1.0  0.66520  0.47848  0.65934  1.0000
  C   C683      1.0  0.51259  0.21751  0.35790  1.0000
  H   H808      1.0  0.83432  0.13591  0.36516  1.0000
  C   C684      1.0  0.66550  0.45739  0.49750  1.0000
  H   H809      1.0  0.55189  0.44603  0.39901  1.0000
  C   C685      1.0  0.55970  0.21570  0.61124  1.0000
  S   S183      1.0  0.83636  0.27770  0.34613  1.0000
  C   C686      1.0  0.63982  0.01605  0.41187  1.0000
  H   H810      1.0  0.62269  0.02431  0.56532  1.0000
  C   C687      1.0  0.57495  0.43262  0.39952  1.0000
  H   H811      1.0  0.61670  0.39209  0.41559  1.0000
  C   C688      1.0  0.65463  0.36804  0.40362  1.0000
  C   C689      1.0  0.56406  0.01575  0.52202  1.0000
  C   C690      1.0  0.50738  0.24927  0.36257  1.0000
  Fe  Fe92      1.0  0.59627  0.13921  0.35759  1.0000
  H   H812      1.0  0.60550  0.37257  0.36468  1.0000
  S   S184      1.0  0.54826  0.16266  0.35363  1.0000
  C   C691      1.0  0.76705  0.16235  0.34300  1.0000
  C   C692      1.0  0.51915  0.26447  0.46345  1.0000
  H   H813      1.0  0.51622  0.48368  0.41115  1.0000
  C   C693      1.0  0.50478  0.20404  0.51668  1.0000
  H   H814      1.0  0.00094  0.25758  0.37133  1.0000
  C   C694      1.0  0.51846  0.18398  0.40172  1.0000
  C   C695      1.0  0.57001  0.44858  0.66071  1.0000
  H   H815      1.0  0.54900  0.03349  0.51610  1.0000
  H   H816      1.0  0.53910  0.00613  0.56921  1.0000
  C   C696      1.0  0.50594  0.23481  0.46285  1.0000
  C   C697      1.0  0.58708  0.00595  0.66108  1.0000
  C   C698      1.0  0.64669  0.49540  0.65580  1.0000
  C   C699      1.0  0.52789  0.18613  0.41765  1.0000
  H   H817      1.0  0.53773  0.28946  0.33823  1.0000
  H   H818      1.0  0.50965  0.31845  0.43900  1.0000
  C   C700      1.0  0.51256  0.44522  0.53325  1.0000
  H   H819      1.0  0.54233  0.16027  0.43876  1.0000
  S   S185      1.0  0.82289  0.18920  0.33672  1.0000
  H   H820      1.0  0.51126  0.40417  0.43640  1.0000
  H   H821      1.0  0.51584  0.04154  0.65308  1.0000
  H   H822      1.0  0.51114  0.37498  0.46129  1.0000
  C   C701      1.0  0.50865  0.34243  0.43359  1.0000
  H   H823      1.0  0.51292  0.45361  0.50778  1.0000
  C   C702      1.0  0.57784  0.48941  0.52802  1.0000
  H   H824      1.0  0.52712  0.21074  0.51189  1.0000
  C   C703      1.0  0.51226  0.49099  0.62506  1.0000
  Fe  Fe93      1.0  0.51169  0.13092  0.60600  1.0000
  H   H825      1.0  0.56453  0.00840  0.58615  1.0000
  C   C704      1.0  0.56336  0.01125  0.57291  1.0000
  H   H826      1.0  0.50517  0.33966  0.42043  1.0000
  C   C705      1.0  0.56667  0.05724  0.66921  1.0000
  H   H827      1.0  0.50413  0.28563  0.46427  1.0000
  H   H828      1.0  0.53067  0.00353  0.64647  1.0000
  H   H829      1.0  0.57444  0.44319  0.69264  1.0000
  N   N46       1.0  0.88911  0.05928  0.95511  1.0000
  S   S186      1.0  0.93351  0.09341  0.00110  1.0000
  Fe  Fe94      1.0  0.97915  0.09212  0.98701  1.0000
  Fe  Fe95      1.0  0.99893  0.07463  0.95258  1.0000
  C   C706      1.0  0.55022  0.44438  0.68766  1.0000
  H   H830      1.0  0.84155  0.07813  0.95416  1.0000
  H   H831      1.0  0.89450  0.04163  0.89981  1.0000
  C   C707      1.0  0.97182  0.02041  0.92179  1.0000
  H   H832      1.0  0.53417  0.45464  0.69706  1.0000
  H   H833      1.0  0.58505  0.49447  0.67950  1.0000
  H   H834      1.0  0.90224  0.02199  0.97174  1.0000
  H   H835      1.0  0.89915  0.07476  0.92353  1.0000
  N   N47       1.0  0.54829  0.46345  0.67279  1.0000
  H   H836      1.0  0.86081  0.03402  0.97184  1.0000
  C   C708      1.0  0.51271  0.00967  0.70387  1.0000
  H   H837      1.0  0.88878  0.05808  0.98108  1.0000
  C   C709      1.0  0.86585  0.08640  0.95460  1.0000
  H   H838      1.0  0.58151  0.05736  0.68016  1.0000
  H   H839      1.0  0.93906  0.05209  0.95432  1.0000
  H   H840      1.0  0.54564  0.07351  0.67102  1.0000
  H   H841      1.0  0.50440  0.02243  0.71446  1.0000
  H   H842      1.0  0.99915  0.20868  0.97542  1.0000
  C   C710      1.0  0.92093  0.07169  0.95532  1.0000
  C   C711      1.0  0.88492  0.04241  0.97055  1.0000
  C   C712      1.0  0.88542  0.03907  0.94076  1.0000
  H   H843      1.0  0.53415  0.04956  0.69440  1.0000
  H   H844      1.0  0.92514  0.08828  0.94532  1.0000
  C   C713      1.0  0.52993  0.02501  0.69218  1.0000
  H   H845      1.0  0.54357  0.41962  0.68552  1.0000
  S   S187      1.0  0.98335  0.05872  0.92764  1.0000
  H   H846      1.0  0.92537  0.08491  0.96658  1.0000
  H   H847      1.0  0.86780  0.10195  0.96534  1.0000
  S   S188      1.0  0.99299  0.04594  0.97483  1.0000
  H   H848      1.0  0.98634  0.26626  0.97894  1.0000
  S   S189      1.0  0.98143  0.12064  0.96416  1.0000
  C   C714      1.0  0.89140  0.05106  0.92521  1.0000
  C   C715      1.0  0.55964  0.49533  0.67645  1.0000
  H   H849      1.0  0.86917  0.10159  0.94391  1.0000
  C   C716      1.0  0.87582  0.00739  0.94168  1.0000
  C   C717      1.0  0.88856  0.03237  0.91149  1.0000
  S   S190      1.0  0.99058  0.47556  0.99089  1.0000
  H   H850      1.0  0.97683  0.03007  0.89656  1.0000
  C   C718      1.0  0.54052  0.00897  0.67801  1.0000
  C   C719      1.0  0.96988  0.01298  0.90535  1.0000
  C   C720      1.0  0.99317  0.50164  0.96069  1.0000
  H   H851      1.0  0.91332  0.48133  0.99660  1.0000
  H   H852      1.0  0.96419  0.00314  0.94567  1.0000
  C   C721      1.0  0.98448  0.67298  0.03485  1.0000
  H   H853      1.0  0.97420  0.93984  0.14432  1.0000
  H   H854      1.0  0.91892  0.73739  0.00861  1.0000
  S   S191      1.0  0.89001  0.65400  0.00434  1.0000
  S   S192      1.0  0.96192  0.59206  0.09591  1.0000
  Fe  Fe96      1.0  0.98071  0.54902  0.10972  1.0000
  H   H855      1.0  0.00030  0.90903  0.18490  1.0000
  S   S193      1.0  0.98241  0.93079  0.10295  1.0000
  C   C722      1.0  0.97909  0.75012  0.01548  1.0000
  C   C723      1.0  0.98186  0.91437  0.14535  1.0000
  C   C724      1.0  0.92899  0.72749  0.01997  1.0000
  C   C725      1.0  0.97463  0.70552  0.03373  1.0000
  C   C726      1.0  0.89841  0.52808  0.04075  1.0000
  H   H856      1.0  0.91058  0.55064  0.04039  1.0000
  H   H857      1.0  0.97536  0.93853  0.17503  1.0000
  C   C727      1.0  0.98415  0.96897  0.11133  1.0000
  H   H858      1.0  0.90568  0.51665  0.05228  1.0000
  C   C728      1.0  0.88388  0.55344  0.00975  1.0000
  C   C729      1.0  0.99407  0.67788  0.06337  1.0000
  H   H859      1.0  0.95472  0.67818  0.00489  1.0000
  H   H860      1.0  0.96510  0.89799  0.17513  1.0000
  C   C730      1.0  0.91556  0.63090  0.01671  1.0000
  C   C731      1.0  0.91297  0.63317  0.03348  1.0000
  C   C732      1.0  0.93280  0.61434  0.04347  1.0000
  C   C733      1.0  0.95504  0.59292  0.03668  1.0000
  C   C734      1.0  0.95771  0.59092  0.01995  1.0000
  C   C735      1.0  0.93830  0.61002  0.01001  1.0000
  H   H861      1.0  0.89541  0.64931  0.03877  1.0000
  H   H862      1.0  0.93036  0.61586  0.05639  1.0000
  S   S194      1.0  0.97777  0.56589  0.04841  1.0000
  H   H863      1.0  0.98394  0.72366  0.07371  1.0000
  C   C736      1.0  0.97460  0.72340  0.04819  1.0000
  H   H864      1.0  0.88008  0.56888  0.01997  1.0000
  C   C737      1.0  0.98431  0.70972  0.06274  1.0000
  C   C738      1.0  0.98516  0.91367  0.17422  1.0000
  N   N48       1.0  0.96318  0.72027  0.01858  1.0000
  H   H865      1.0  0.94130  0.98686  0.10033  1.0000
  C   C739      1.0  0.99548  0.84961  0.15707  1.0000
  H   H866      1.0  0.96000  0.90135  0.14602  1.0000
  H   H867      1.0  0.97458  0.57415  0.01461  1.0000
  H   H868      1.0  0.95351  0.52342  0.02383  1.0000
  H   H869      1.0  0.98601  0.52104  0.15161  1.0000
  H   H870      1.0  0.92315  0.74481  0.02969  1.0000
  H   H871      1.0  0.96641  0.74796  0.04848  1.0000
  C   C740      1.0  0.99428  0.65960  0.04946  1.0000
  H   H872      1.0  0.91636  0.70568  0.02271  1.0000
  C   C741      1.0  0.89716  0.52205  0.01112  1.0000
  C   C742      1.0  0.99578  0.98160  0.06593  1.0000
  N   N49       1.0  0.90678  0.50775  0.02667  1.0000
  H   H873      1.0  0.99150  0.73297  0.11812  1.0000
  H   H874      1.0  0.97277  0.76891  0.02440  1.0000
  H   H875      1.0  0.00114  0.63460  0.05016  1.0000
  S   S195      1.0  0.95029  0.51241  0.12175  1.0000
  Fe  Fe97      1.0  0.98915  0.57288  0.07471  1.0000
  H   H876      1.0  0.87272  0.53361  0.04146  1.0000
  H   H877      1.0  0.98397  0.65707  0.02473  1.0000
  H   H878      1.0  0.97040  0.85391  0.15645  1.0000
  C   C743      1.0  0.96060  0.99230  0.10807  1.0000
  C   C744      1.0  0.96859  0.69971  0.00427  1.0000
  H   H879      1.0  0.99343  0.96185  0.07402  1.0000
  H   H880      1.0  0.99373  0.90747  0.13389  1.0000
  H   H881      1.0  0.99116  0.79933  0.15400  1.0000
  H   H882      1.0  0.00101  0.66724  0.07474  1.0000
  S   S196      1.0  0.00269  0.66728  0.11010  1.0000
  N   N50       1.0  0.00313  0.90816  0.15919  1.0000
  H   H883      1.0  0.94920  0.00107  0.07050  1.0000
  H   H884      1.0  0.97262  0.76039  0.00355  1.0000
  S   S197      1.0  0.00408  0.52846  0.08768  1.0000
  H   H885      1.0  0.99381  0.69254  0.00279  1.0000
  C   C745      1.0  0.54889  0.84179  0.64434  1.0000
  H   H886      1.0  0.52934  0.97567  0.45168  1.0000
  Fe  Fe98      1.0  0.55417  0.56319  0.47109  1.0000
  S   S198      1.0  0.59967  0.53728  0.46462  1.0000
  C   C746      1.0  0.52375  0.71101  0.46720  1.0000
  S   S199      1.0  0.55004  0.60290  0.48910  1.0000
  Fe  Fe99      1.0  0.57230  0.89593  0.49248  1.0000
  S   S200      1.0  0.53338  0.86975  0.48125  1.0000
  S   S201      1.0  0.57124  0.89511  0.51982  1.0000
  Fe  Fe100     1.0  0.59518  0.91906  0.45943  1.0000
  S   S202      1.0  0.55907  0.89260  0.44601  1.0000
  S   S203      1.0  0.63027  0.95095  0.44755  1.0000
  H   H887      1.0  0.59735  0.81782  0.42286  1.0000
  H   H888      1.0  0.58969  0.85113  0.39910  1.0000
  Fe  Fe101     1.0  0.56946  0.85222  0.46337  1.0000
  S   S204      1.0  0.58046  0.79964  0.45781  1.0000
  S   S205      1.0  0.56200  0.94004  0.47797  1.0000
  S   S206      1.0  0.60900  0.87703  0.47521  1.0000
  Fe  Fe102     1.0  0.63843  0.79327  0.61855  1.0000
  S   S207      1.0  0.68569  0.79500  0.60712  1.0000
  S   S208      1.0  0.61811  0.74514  0.62083  1.0000
  Fe  Fe103     1.0  0.63718  0.86326  0.62615  1.0000
  S   S209      1.0  0.68504  0.87014  0.61575  1.0000
  S   S210      1.0  0.60273  0.89988  0.63656  1.0000
  Fe  Fe104     1.0  0.66745  0.84012  0.59557  1.0000
  S   S211      1.0  0.67733  0.84869  0.56915  1.0000
  Fe  Fe105     1.0  0.69917  0.82427  0.62843  1.0000
  S   S212      1.0  0.74479  0.80447  0.63995  1.0000
  S   S213      1.0  0.61895  0.83584  0.60533  1.0000
  S   S214      1.0  0.65248  0.82001  0.64040  1.0000
  H   H889      1.0  0.56078  0.94811  0.56583  1.0000
  H   H890      1.0  0.84644  0.87968  0.63281  1.0000
  C   C747      1.0  0.61792  0.54587  0.66023  1.0000
  C   C748      1.0  0.58160  0.99372  0.51287  1.0000
  C   C749      1.0  0.64457  0.89328  0.41840  1.0000
  H   H891      1.0  0.90240  0.89213  0.63203  1.0000
  H   H892      1.0  0.59983  0.84369  0.66298  1.0000
  C   C750      1.0  0.60124  0.93749  0.62753  1.0000
  C   C751      1.0  0.57221  0.95398  0.62581  1.0000
  C   C752      1.0  0.62697  0.98386  0.61797  1.0000
  C   C753      1.0  0.62861  0.95224  0.62325  1.0000
  H   H893      1.0  0.55092  0.94272  0.62909  1.0000
  N   N51       1.0  0.70749  0.71364  0.64686  1.0000
  H   H894      1.0  0.65115  0.93975  0.62464  1.0000
  C   C754      1.0  0.76334  0.81067  0.65876  1.0000
  H   H895      1.0  0.61423  0.95345  0.51328  1.0000
  H   H896      1.0  0.72021  0.74374  0.62723  1.0000
  N   N52       1.0  0.60293  0.50725  0.52045  1.0000
  C   C755      1.0  0.91475  0.86457  0.65306  1.0000
  H   H897      1.0  0.64858  0.87647  0.37679  1.0000
  H   H898      1.0  0.51483  0.57754  0.56076  1.0000
  H   H899      1.0  0.65239  0.69096  0.63569  1.0000
  H   H900      1.0  0.73930  0.71467  0.66693  1.0000
  C   C756      1.0  0.52883  0.64044  0.65923  1.0000
  C   C757      1.0  0.67212  0.62050  0.65291  1.0000
  H   H901      1.0  0.71286  0.60995  0.66729  1.0000
  H   H902      1.0  0.72356  0.70201  0.62300  1.0000
  C   C758      1.0  0.55673  0.76824  0.61878  1.0000
  C   C759      1.0  0.57718  0.74173  0.62074  1.0000
  C   C760      1.0  0.56492  0.71184  0.62285  1.0000
  C   C761      1.0  0.53237  0.70843  0.62301  1.0000
  H   H903      1.0  0.56602  0.79129  0.61704  1.0000
  H   H904      1.0  0.58068  0.69124  0.62434  1.0000
  C   C762      1.0  0.87202  0.83802  0.66546  1.0000
  C   C763      1.0  0.60134  0.88233  0.53319  1.0000
  C   C764      1.0  0.59433  0.88070  0.54962  1.0000
  C   C765      1.0  0.61744  0.87081  0.56078  1.0000
  C   C766      1.0  0.64783  0.86233  0.55557  1.0000
  C   C767      1.0  0.65491  0.86421  0.53913  1.0000
  C   C768      1.0  0.63178  0.87418  0.52796  1.0000
  H   H905      1.0  0.57082  0.88695  0.55375  1.0000
  H   H906      1.0  0.61171  0.86955  0.57339  1.0000
  H   H907      1.0  0.67840  0.85780  0.53503  1.0000
  H   H908      1.0  0.63759  0.87571  0.51536  1.0000
  H   H909      1.0  0.53855  0.96354  0.66557  1.0000
  C   C769      1.0  0.55559  0.70819  0.46323  1.0000
  C   C770      1.0  0.57250  0.73554  0.46045  1.0000
  C   C771      1.0  0.55804  0.76607  0.46184  1.0000
  C   C772      1.0  0.57882  0.78312  0.65783  1.0000
  H   H910      1.0  0.73677  0.85341  0.66503  1.0000
  C   C773      1.0  0.58465  0.99153  0.54690  1.0000
  H   H911      1.0  0.57158  0.83594  0.63825  1.0000
  C   C774      1.0  0.58510  0.91859  0.39155  1.0000
  C   C775      1.0  0.70932  0.72073  0.62945  1.0000
  H   H912      1.0  0.52788  0.94795  0.53780  1.0000
  H   H913      1.0  0.58028  0.99436  0.49989  1.0000
  C   C776      1.0  0.61852  0.99988  0.56949  1.0000
  C   C777      1.0  0.62148  0.97772  0.43151  1.0000
  H   H914      1.0  0.58054  0.93629  0.38184  1.0000
  S   S215      1.0  0.51492  0.56775  0.52670  1.0000
  H   H915      1.0  0.60291  0.73737  0.65545  1.0000
  N   N53       1.0  0.59474  0.78388  0.51008  1.0000
  C   C778      1.0  0.57016  0.76051  0.50834  1.0000
  C   C779      1.0  0.58195  0.81520  0.50459  1.0000
  C   C780      1.0  0.62088  0.77404  0.49909  1.0000
  C   C781      1.0  0.60423  0.78598  0.52712  1.0000
  C   C782      1.0  0.58160  0.79416  0.53913  1.0000
  C   C783      1.0  0.63570  0.78033  0.53232  1.0000
  C   C784      1.0  0.58986  0.79602  0.55533  1.0000
  C   C785      1.0  0.64367  0.78239  0.54855  1.0000
  C   C786      1.0  0.62082  0.79002  0.56002  1.0000
  H   H916      1.0  0.54811  0.76807  0.51461  1.0000
  H   H917      1.0  0.56370  0.75704  0.49554  1.0000
  H   H918      1.0  0.57828  0.73700  0.51316  1.0000
  H   H919      1.0  0.56095  0.82383  0.51149  1.0000
  H   H920      1.0  0.57487  0.81458  0.49176  1.0000
  H   H921      1.0  0.59964  0.83347  0.50584  1.0000
  H   H922      1.0  0.63136  0.75030  0.50229  1.0000
  H   H923      1.0  0.61283  0.77243  0.48640  1.0000
  H   H924      1.0  0.63951  0.79155  0.49908  1.0000
  H   H925      1.0  0.55746  0.79984  0.53603  1.0000
  H   H926      1.0  0.65475  0.77486  0.52411  1.0000
  H   H927      1.0  0.57243  0.80307  0.56427  1.0000
  H   H928      1.0  0.66794  0.77913  0.55227  1.0000
  H   H929      1.0  0.62745  0.79245  0.57250  1.0000
  S   S216      1.0  0.51862  0.53405  0.48298  1.0000
  C   C787      1.0  0.70015  0.62775  0.66018  1.0000
  C   C788      1.0  0.68596  0.73765  0.65459  1.0000
  H   H930      1.0  0.59281  0.54955  0.53440  1.0000
  H   H931      1.0  0.57517  0.87807  0.66680  1.0000
  H   H932      1.0  0.65773  0.91443  0.41836  1.0000
  H   H933      1.0  0.66235  0.73863  0.64901  1.0000
  Fe  Fe106     1.0  0.51301  0.62441  0.47279  1.0000
  C   C789      1.0  0.59924  0.53923  0.64686  1.0000
  C   C790      1.0  0.58291  0.95746  0.57046  1.0000
  H   H934      1.0  0.60793  0.86810  0.37528  1.0000
  C   C791      1.0  0.59234  0.97895  0.42388  1.0000
  H   H935      1.0  0.75664  0.69962  0.64841  1.0000
  H   H936      1.0  0.69499  0.76184  0.65362  1.0000
  H   H937      1.0  0.79469  0.76943  0.65600  1.0000
  S   S217      1.0  0.52094  0.58704  0.45354  1.0000
  C   C792      1.0  0.73925  0.71715  0.65366  1.0000
  H   H938      1.0  0.56702  0.68494  0.46189  1.0000
  H   H939      1.0  0.56510  0.99726  0.40393  1.0000
  H   H940      1.0  0.59445  0.79335  0.64936  1.0000
  C   C793      1.0  0.64504  0.99670  0.42553  1.0000
  C   C794      1.0  0.60260  0.96978  0.53717  1.0000
  H   H941      1.0  0.62176  0.90246  0.36582  1.0000
  C   C795      1.0  0.52419  0.76488  0.61906  1.0000
  H   H942      1.0  0.58259  0.98224  0.65611  1.0000
  H   H943      1.0  0.93883  0.87089  0.65203  1.0000
  H   H944      1.0  0.63441  0.83202  0.44398  1.0000
  C   C796      1.0  0.69550  0.68173  0.64930  1.0000
  H   H945      1.0  0.66343  0.59700  0.65415  1.0000
  H   H946      1.0  0.63295  0.63788  0.63890  1.0000
  C   C797      1.0  0.65511  0.64356  0.64423  1.0000
  H   H947      1.0  0.54523  0.50452  0.45409  1.0000
  C   C798      1.0  0.78789  0.78936  0.66359  1.0000
  C   C799      1.0  0.90426  0.84470  0.66551  1.0000
  H   H948      1.0  0.60679  0.53800  0.49996  1.0000
  C   C800      1.0  0.61254  0.53203  0.53179  1.0000
  C   C801      1.0  0.60668  0.85795  0.40786  1.0000
  H   H949      1.0  0.61816  0.95170  0.54239  1.0000
  H   H950      1.0  0.51488  0.79216  0.46737  1.0000
  H   H951      1.0  0.62123  0.99976  0.58279  1.0000
  C   C802      1.0  0.86247  0.87004  0.64182  1.0000
  H   H952      1.0  0.50480  0.51938  0.43416  1.0000
  H   H953      1.0  0.54226  0.61720  0.65825  1.0000
  H   H954      1.0  0.59693  0.73296  0.45701  1.0000
  Fe  Fe107     1.0  0.52644  0.91222  0.46522  1.0000
  C   C803      1.0  0.60084  0.97081  0.52043  1.0000
  C   C804      1.0  0.64840  0.87394  0.43191  1.0000
  C   C805      1.0  0.57057  0.98518  0.62008  1.0000
  C   C806      1.0  0.62434  0.88745  0.37676  1.0000
  H   H955      1.0  0.52536  0.93890  0.50865  1.0000
  N   N54       1.0  0.61817  0.90615  0.39161  1.0000
  H   H956      1.0  0.58079  0.55618  0.64329  1.0000
  C   C807      1.0  0.55416  0.80163  0.66519  1.0000
  C   C808      1.0  0.59795  0.00062  0.61661  1.0000
  H   H957      1.0  0.54570  0.65905  0.65677  1.0000
  H   H958      1.0  0.63227  0.54513  0.52675  1.0000
  C   C809      1.0  0.71175  0.65789  0.65852  1.0000
  H   H959      1.0  0.73325  0.66201  0.66479  1.0000
  C   C810      1.0  0.58930  0.52358  0.50614  1.0000
  H   H960      1.0  0.74794  0.74097  0.65120  1.0000
  H   H961      1.0  0.68588  0.72283  0.62369  1.0000
  H   H962      1.0  0.93724  0.78869  0.66429  1.0000
  C   C811      1.0  0.57737  0.85199  0.66868  1.0000
  C   C812      1.0  0.85151  0.85058  0.65382  1.0000
  C   C813      1.0  0.66649  0.67380  0.64246  1.0000
  H   H963      1.0  0.63392  0.94869  0.38027  1.0000
  C   C814      1.0  0.58396  0.75097  0.66129  1.0000
  H   H964      1.0  0.58222  0.95635  0.58383  1.0000
  N   N55       1.0  0.55028  0.83601  0.66190  1.0000
  C   C815      1.0  0.63851  0.93364  0.39105  1.0000
  C   C816      1.0  0.75536  0.83664  0.66862  1.0000
  C   C817      1.0  0.89401  0.87700  0.64143  1.0000
  H   H965      1.0  0.60252  0.94068  0.56688  1.0000
  H   H966      1.0  0.56834  0.89962  0.38986  1.0000
  H   H967      1.0  0.57390  0.96471  0.42838  1.0000
  H   H968      1.0  0.66380  0.92600  0.39087  1.0000
  H   H969      1.0  0.54349  0.86723  0.64155  1.0000
  H   H970      1.0  0.57895  0.93044  0.40315  1.0000
  H   H971      1.0  0.63423  0.94955  0.40150  1.0000
  C   C818      1.0  0.61084  0.83871  0.42139  1.0000
  C   C819      1.0  0.62357  0.88580  0.40589  1.0000
  H   H972      1.0  0.53239  0.52924  0.63794  1.0000
  H   H973      1.0  0.62021  0.52207  0.54355  1.0000
  H   H974      1.0  0.66380  0.88074  0.44152  1.0000
  C   C820      1.0  0.64190  0.52387  0.66458  1.0000
  H   H975      1.0  0.64832  0.99552  0.61524  1.0000
  C   C821      1.0  0.63170  0.84668  0.43337  1.0000
  C   C822      1.0  0.52642  0.76892  0.46627  1.0000
  H   H976      1.0  0.82692  0.84518  0.65413  1.0000
  H   H977      1.0  0.53064  0.82773  0.63861  1.0000
  C   C823      1.0  0.50938  0.74156  0.46879  1.0000
  N   N56       1.0  0.58708  0.99016  0.56462  1.0000
  H   H978      1.0  0.96967  0.83469  0.66574  1.0000
  H   H979      1.0  0.68298  0.73239  0.66758  1.0000
  H   H980      1.0  0.63757  0.98387  0.56450  1.0000
  H   H981      1.0  0.56922  0.54012  0.50939  1.0000
  C   C824      1.0  0.60376  0.51060  0.63822  1.0000
  H   H982      1.0  0.54807  0.99747  0.61888  1.0000
  H   H983      1.0  0.51103  0.64036  0.64949  1.0000
  C   C825      1.0  0.50868  0.95548  0.51430  1.0000
  H   H984      1.0  0.51948  0.67277  0.57666  1.0000
  C   C826      1.0  0.58736  0.99767  0.41003  1.0000
  H   H985      1.0  0.52315  0.68525  0.62447  1.0000
  H   H986      1.0  0.51844  0.87674  0.66585  1.0000
  C   C827      1.0  0.51161  0.52110  0.63222  1.0000
  H   H987      1.0  0.53584  0.71067  0.57370  1.0000
  Fe  Fe108     1.0  0.51161  0.57532  0.49979  1.0000
  H   H988      1.0  0.55659  0.51133  0.66592  1.0000
  C   C828      1.0  0.50745  0.98950  0.45093  1.0000
  H   H989      1.0  0.50456  0.52039  0.56967  1.0000
  C   C829      1.0  0.51002  0.96058  0.53076  1.0000
  H   H990      1.0  0.50846  0.78546  0.61751  1.0000
  C   C830      1.0  0.51193  0.73500  0.62118  1.0000
  C   C831      1.0  0.51463  0.69873  0.57779  1.0000
  H   H991      1.0  0.51177  0.70334  0.59088  1.0000
  H   H992      1.0  0.50849  0.64305  0.52502  1.0000
  H   H993      1.0  0.58889  0.50575  0.62811  1.0000
  H   H994      1.0  0.66767  0.99603  0.43134  1.0000
  H   H995      1.0  0.58019  0.50648  0.49734  1.0000
  H   H996      1.0  0.55621  0.50468  0.53019  1.0000
  C   C832      1.0  0.52143  0.85119  0.66904  1.0000
  Fe  Fe109     1.0  0.87791  0.78025  0.75199  1.0000
  S   S218      1.0  0.90848  0.73872  0.74374  1.0000
  S   S219      1.0  0.86922  0.78757  0.77851  1.0000
  Fe  Fe110     1.0  0.92329  0.77098  0.72395  1.0000
  Fe  Fe111     1.0  0.86809  0.72828  0.72751  1.0000
  S   S220      1.0  0.84292  0.68284  0.72670  1.0000
  S   S221      1.0  0.83672  0.76699  0.73741  1.0000
  Fe  Fe112     1.0  0.67204  0.66234  0.70235  1.0000
  S   S222      1.0  0.68135  0.60954  0.70293  1.0000
  S   S223      1.0  0.70750  0.69792  0.69539  1.0000
  Fe  Fe113     1.0  0.60502  0.65848  0.71470  1.0000
  S   S224      1.0  0.60976  0.60581  0.71667  1.0000
  S   S225      1.0  0.55803  0.67945  0.72263  1.0000
  Fe  Fe114     1.0  0.65718  0.61417  0.72704  1.0000
  S   S226      1.0  0.67202  0.59396  0.75108  1.0000
  Fe  Fe115     1.0  0.63265  0.60640  0.69234  1.0000
  H   H997      1.0  0.80817  0.82480  0.76937  1.0000
  S   S227      1.0  0.65038  0.66689  0.72679  1.0000
  S   S228      1.0  0.62548  0.65945  0.68996  1.0000
  Fe  Fe116     1.0  0.87935  0.67361  0.94353  1.0000
  S   S229      1.0  0.92902  0.67011  0.93448  1.0000
  S   S230      1.0  0.84432  0.69648  0.92563  1.0000
  H   H998      1.0  0.96352  0.69458  0.88491  1.0000
  H   H999      1.0  0.95822  0.86790  0.67866  1.0000
  S   S231      1.0  0.89262  0.70240  0.96505  1.0000
  Fe  Fe117     1.0  0.93431  0.62626  0.94954  1.0000
  C   C833      1.0  0.54036  0.75365  0.67960  1.0000
  S   S232      1.0  0.88387  0.62769  0.95737  1.0000
  Fe  Fe118     1.0  0.70576  0.70415  0.82386  1.0000
  S   S233      1.0  0.67553  0.74794  0.82856  1.0000
  S   S234      1.0  0.72049  0.69941  0.79774  1.0000
  Fe  Fe119     1.0  0.71067  0.68860  0.86004  1.0000
  S   S235      1.0  0.67882  0.73065  0.86678  1.0000
  S   S236      1.0  0.73309  0.65653  0.87952  1.0000
  Fe  Fe120     1.0  0.64865  0.71812  0.84555  1.0000
  S   S237      1.0  0.59602  0.71286  0.84062  1.0000
  Fe  Fe121     1.0  0.70836  0.75622  0.84902  1.0000
  S   S238      1.0  0.73007  0.80335  0.85338  1.0000
  S   S239      1.0  0.67834  0.67353  0.84012  1.0000
  S   S240      1.0  0.74068  0.71471  0.84298  1.0000
  Fe  Fe122     1.0  0.93169  0.88136  0.84671  1.0000
  S   S241      1.0  0.94163  0.82955  0.85059  1.0000
  S   S242      1.0  0.92907  0.89457  0.82047  1.0000
  Fe  Fe123     1.0  0.93274  0.89709  0.88271  1.0000
  S   S243      1.0  0.94187  0.84552  0.88883  1.0000
  S   S244      1.0  0.92903  0.92735  0.90558  1.0000
  Fe  Fe124     1.0  0.97642  0.84448  0.86866  1.0000
  C   C834      1.0  0.95978  0.55743  0.96986  1.0000
  Fe  Fe125     1.0  0.90588  0.83562  0.87016  1.0000
  S   S245      1.0  0.87355  0.79562  0.87351  1.0000
  S   S246      1.0  0.96977  0.89635  0.86342  1.0000
  S   S247      1.0  0.89353  0.88684  0.86541  1.0000
  C   C835      1.0  0.94799  0.96222  0.91136  1.0000
  C   C836      1.0  0.95030  0.96948  0.92780  1.0000
  H   H1000     1.0  0.55477  0.62004  0.68543  1.0000
  H   H1001     1.0  0.93816  0.77349  0.77461  1.0000
  H   H1002     1.0  0.95797  0.73514  0.89095  1.0000
  N   N57       1.0  0.50501  0.82471  0.77195  1.0000
  C   C837      1.0  0.55981  0.73188  0.84702  1.0000
  C   C838      1.0  0.53147  0.72002  0.84154  1.0000
  H   H1003     1.0  0.53427  0.81918  0.80233  1.0000
  H   H1004     1.0  0.97150  0.90213  0.92874  1.0000
  C   C839      1.0  0.55838  0.75839  0.85711  1.0000
  H   H1005     1.0  0.53214  0.69927  0.83393  1.0000
  C   C840      1.0  0.74755  0.78211  0.78177  1.0000
  H   H1006     1.0  0.57985  0.76786  0.86144  1.0000
  C   C841      1.0  0.77045  0.80142  0.85813  1.0000
  C   C842      1.0  0.78813  0.82846  0.85708  1.0000
  C   C843      1.0  0.82013  0.82699  0.86130  1.0000
  C   C844      1.0  0.83430  0.79860  0.86694  1.0000
  C   C845      1.0  0.81659  0.77169  0.86790  1.0000
  C   C846      1.0  0.78497  0.77311  0.86342  1.0000
  H   H1007     1.0  0.77711  0.85054  0.85297  1.0000
  H   H1008     1.0  0.83358  0.84791  0.86047  1.0000
  H   H1009     1.0  0.82730  0.74964  0.87217  1.0000
  H   H1010     1.0  0.77156  0.75243  0.86433  1.0000
  H   H1011     1.0  0.97744  0.78372  0.82488  1.0000
  C   C847      1.0  0.98557  0.52523  0.94929  1.0000
  H   H1012     1.0  0.94653  0.57868  0.97339  1.0000
  S   S248      1.0  0.88525  0.75664  0.70675  1.0000
  C   C848      1.0  0.56483  0.73630  0.67220  1.0000
  C   C849      1.0  0.81485  0.68304  0.91251  1.0000
  C   C850      1.0  0.80522  0.70256  0.89961  1.0000
  C   C851      1.0  0.78105  0.69407  0.88923  1.0000
  C   C852      1.0  0.76527  0.66646  0.89183  1.0000
  C   C853      1.0  0.77511  0.64656  0.90459  1.0000
  C   C854      1.0  0.79991  0.65466  0.91482  1.0000
  H   H1013     1.0  0.81661  0.72441  0.89757  1.0000
  H   H1014     1.0  0.77448  0.70883  0.87918  1.0000
  H   H1015     1.0  0.76325  0.62493  0.90667  1.0000
  H   H1016     1.0  0.80691  0.63935  0.92469  1.0000
  C   C855      1.0  0.68789  0.62173  0.76422  1.0000
  C   C856      1.0  0.70308  0.64777  0.75820  1.0000
  C   C857      1.0  0.71368  0.67090  0.76870  1.0000
  C   C858      1.0  0.70884  0.66845  0.78529  1.0000
  C   C859      1.0  0.69445  0.64204  0.79141  1.0000
  C   C860      1.0  0.68425  0.61857  0.78089  1.0000
  H   H1017     1.0  0.70692  0.64991  0.74543  1.0000
  H   H1018     1.0  0.72536  0.69091  0.76392  1.0000
  H   H1019     1.0  0.69108  0.63972  0.80422  1.0000
  H   H1020     1.0  0.67283  0.59830  0.78562  1.0000
  C   C861      1.0  0.55187  0.72043  0.72072  1.0000
  C   C862      1.0  0.57667  0.73976  0.71745  1.0000
  C   C863      1.0  0.57098  0.77261  0.71606  1.0000
  C   C864      1.0  0.54045  0.78595  0.71760  1.0000
  C   C865      1.0  0.52235  0.72303  0.79639  1.0000
  H   H1021     1.0  0.88913  0.72835  0.86634  1.0000
  H   H1022     1.0  0.60017  0.72942  0.71600  1.0000
  H   H1023     1.0  0.59016  0.78760  0.71352  1.0000
  S   S249      1.0  0.81929  0.82913  0.70494  1.0000
  C   C866      1.0  0.52342  0.70960  0.76827  1.0000
  H   H1024     1.0  0.51225  0.79863  0.82680  1.0000
  C   C867      1.0  0.70086  0.79585  0.73596  1.0000
  C   C868      1.0  0.88498  0.81875  0.78953  1.0000
  C   C869      1.0  0.87851  0.82101  0.80600  1.0000
  C   C870      1.0  0.89162  0.84441  0.81545  1.0000
  C   C871      1.0  0.91087  0.86633  0.80846  1.0000
  C   C872      1.0  0.91699  0.86453  0.79190  1.0000
  C   C873      1.0  0.90423  0.84066  0.78245  1.0000
  H   H1025     1.0  0.86307  0.80475  0.81149  1.0000
  H   H1026     1.0  0.88635  0.84582  0.82814  1.0000
  H   H1027     1.0  0.93193  0.88137  0.78641  1.0000
  H   H1028     1.0  0.90935  0.83921  0.76975  1.0000
  C   C874      1.0  0.80545  0.68687  0.71780  1.0000
  C   C875      1.0  0.78341  0.66398  0.72060  1.0000
  C   C876      1.0  0.75335  0.66704  0.71373  1.0000
  C   C877      1.0  0.74535  0.69274  0.70376  1.0000
  C   C878      1.0  0.76743  0.71559  0.70090  1.0000
  C   C879      1.0  0.79725  0.71284  0.70802  1.0000
  H   H1029     1.0  0.78955  0.64384  0.72815  1.0000
  H   H1030     1.0  0.73647  0.64939  0.71610  1.0000
  H   H1031     1.0  0.76144  0.73564  0.69328  1.0000
  H   H1032     1.0  0.81406  0.73058  0.70572  1.0000
  H   H1033     1.0  0.57948  0.84759  0.68183  1.0000
  S   S250      1.0  0.89413  0.81336  0.73321  1.0000
  H   H1034     1.0  0.99146  0.71529  0.72128  1.0000
  N   N58       1.0  0.82121  0.69895  0.78168  1.0000
  C   C880      1.0  0.80597  0.66924  0.78573  1.0000
  C   C881      1.0  0.80001  0.71818  0.77104  1.0000
  C   C882      1.0  0.85001  0.69039  0.77231  1.0000
  C   C883      1.0  0.82730  0.71671  0.79663  1.0000
  C   C884      1.0  0.80200  0.72892  0.80623  1.0000
  C   C885      1.0  0.85802  0.72219  0.80219  1.0000
  C   C886      1.0  0.80704  0.74615  0.82024  1.0000
  C   C887      1.0  0.86280  0.73912  0.81635  1.0000
  C   C888      1.0  0.83738  0.75118  0.82531  1.0000
  H   H1035     1.0  0.78324  0.67378  0.79204  1.0000
  H   H1036     1.0  0.80078  0.65529  0.77477  1.0000
  H   H1037     1.0  0.82106  0.65404  0.79374  1.0000
  H   H1038     1.0  0.77590  0.72110  0.77600  1.0000
  H   H1039     1.0  0.79758  0.70701  0.75900  1.0000
  H   H1040     1.0  0.80909  0.74214  0.76917  1.0000
  H   H1041     1.0  0.86646  0.67432  0.77913  1.0000
  H   H1042     1.0  0.84461  0.67754  0.76104  1.0000
  H   H1043     1.0  0.86221  0.71193  0.76867  1.0000
  H   H1044     1.0  0.77807  0.72539  0.80291  1.0000
  H   H1045     1.0  0.87875  0.71457  0.79558  1.0000
  H   H1046     1.0  0.78730  0.75588  0.82717  1.0000
  H   H1047     1.0  0.88634  0.74392  0.82010  1.0000
  H   H1048     1.0  0.84119  0.76505  0.83601  1.0000
  H   H1049     1.0  0.94022  0.60776  0.99716  1.0000
  C   C889      1.0  0.72901  0.74508  0.73504  1.0000
  H   H1050     1.0  0.90891  0.86510  0.69555  1.0000
  C   C890      1.0  0.79701  0.82042  0.68760  1.0000
  H   H1051     1.0  0.86627  0.59058  0.99401  1.0000
  H   H1052     1.0  0.92523  0.70636  0.86186  1.0000
  C   C891      1.0  0.75055  0.79007  0.72258  1.0000
  C   C892      1.0  0.51565  0.76652  0.72072  1.0000
  C   C893      1.0  0.53665  0.83751  0.77330  1.0000
  C   C894      1.0  0.52145  0.73385  0.72252  1.0000
  H   H1053     1.0  0.96094  0.71193  0.99297  1.0000
  H   H1054     1.0  0.92498  0.74643  0.86934  1.0000
  H   H1055     1.0  0.70236  0.82190  0.73745  1.0000
  H   H1056     1.0  0.89683  0.72424  0.91036  1.0000
  H   H1057     1.0  0.75230  0.81623  0.72219  1.0000
  S   S251      1.0  0.97384  0.78314  0.71795  1.0000
  C   C895      1.0  0.52906  0.77261  0.86170  1.0000
  C   C896      1.0  0.91361  0.72338  0.87044  1.0000
  N   N59       1.0  0.73796  0.77454  0.91215  1.0000
  C   C897      1.0  0.72653  0.76886  0.89565  1.0000
  C   C898      1.0  0.73508  0.74466  0.92129  1.0000
  C   C899      1.0  0.71704  0.79919  0.91981  1.0000
  C   C900      1.0  0.77031  0.78559  0.91162  1.0000
  C   C901      1.0  0.79558  0.77043  0.92019  1.0000
  C   C902      1.0  0.77715  0.81291  0.90264  1.0000
  C   C903      1.0  0.82586  0.78144  0.91932  1.0000
  C   C904      1.0  0.80741  0.82398  0.90208  1.0000
  C   C905      1.0  0.83179  0.80808  0.91024  1.0000
  H   H1058     1.0  0.74221  0.75131  0.88926  1.0000
  H   H1059     1.0  0.70264  0.75955  0.89570  1.0000
  H   H1060     1.0  0.72501  0.79061  0.88819  1.0000
  H   H1061     1.0  0.75017  0.72503  0.91605  1.0000
  H   H1062     1.0  0.71072  0.73643  0.92106  1.0000
  H   H1063     1.0  0.74145  0.74749  0.93413  1.0000
  H   H1064     1.0  0.71580  0.82154  0.91278  1.0000
  H   H1065     1.0  0.69259  0.79144  0.92087  1.0000
  H   H1066     1.0  0.72544  0.80495  0.93206  1.0000
  H   H1067     1.0  0.79292  0.74944  0.92732  1.0000
  H   H1068     1.0  0.75928  0.82573  0.89576  1.0000
  H   H1069     1.0  0.84490  0.76882  0.92555  1.0000
  H   H1070     1.0  0.81223  0.84447  0.89484  1.0000
  H   H1071     1.0  0.85540  0.81616  0.90928  1.0000
  N   N60       1.0  0.51391  0.64477  0.67527  1.0000
  C   C906      1.0  0.96875  0.55314  0.95385  1.0000
  S   S252      1.0  0.53370  0.82695  0.71568  1.0000
  H   H1072     1.0  0.97856  0.76208  0.75380  1.0000
  N   N61       1.0  0.60401  0.68841  0.78644  1.0000
  C   C907      1.0  0.61920  0.67816  0.77111  1.0000
  C   C908      1.0  0.62304  0.71336  0.79351  1.0000
  C   C909      1.0  0.60502  0.66087  0.79745  1.0000
  C   C910      1.0  0.57108  0.70037  0.78443  1.0000
  C   C911      1.0  0.55380  0.71271  0.79779  1.0000
  C   C912      1.0  0.55487  0.69913  0.76955  1.0000
  C   C913      1.0  0.96603  0.80521  0.92933  1.0000
  C   C914      1.0  0.97593  0.83622  0.92973  1.0000
  H   H1073     1.0  0.97385  0.58793  0.90658  1.0000
  H   H1074     1.0  0.61874  0.69762  0.76214  1.0000
  H   H1075     1.0  0.64420  0.67074  0.77285  1.0000
  H   H1076     1.0  0.60807  0.65729  0.76579  1.0000
  H   H1077     1.0  0.62156  0.73525  0.78615  1.0000
  H   H1078     1.0  0.64824  0.70543  0.79449  1.0000
  H   H1079     1.0  0.61566  0.71979  0.80596  1.0000
  H   H1080     1.0  0.59028  0.64183  0.79289  1.0000
  H   H1081     1.0  0.62930  0.65048  0.79889  1.0000
  H   H1082     1.0  0.59662  0.66737  0.80974  1.0000
  H   H1083     1.0  0.56438  0.71385  0.80954  1.0000
  H   H1084     1.0  0.56574  0.68971  0.75870  1.0000
  C   C915      1.0  0.51090  0.81074  0.80161  1.0000
  C   C916      1.0  0.77235  0.84164  0.68285  1.0000
  H   H1085     1.0  0.94120  0.65384  0.89996  1.0000
  C   C917      1.0  0.00276  0.78858  0.82457  1.0000
  H   H1086     1.0  0.83367  0.64318  0.87917  1.0000
  H   H1087     1.0  0.85723  0.69418  0.87684  1.0000
  C   C918      1.0  0.53254  0.97693  0.67629  1.0000
  H   H1088     1.0  0.73741  0.77308  0.79270  1.0000
  C   C919      1.0  0.99650  0.89928  0.93234  1.0000
  H   H1089     1.0  0.90609  0.75714  0.89783  1.0000
  H   H1090     1.0  0.95656  0.97892  0.88747  1.0000
  H   H1091     1.0  0.98738  0.89116  0.90067  1.0000
  H   H1092     1.0  0.97280  0.83106  0.68696  1.0000
  Fe  Fe126     1.0  0.94228  0.69596  0.95672  1.0000
  Fe  Fe127     1.0  0.85523  0.79620  0.71759  1.0000
  H   H1093     1.0  0.52202  0.85048  0.68239  1.0000
  H   H1094     1.0  0.55402  0.66235  0.68730  1.0000
  H   H1095     1.0  0.87470  0.55885  0.96927  1.0000
  H   H1096     1.0  0.95105  0.70492  0.90515  1.0000
  H   H1097     1.0  0.52986  0.63939  0.69983  1.0000
  C   C920      1.0  0.87354  0.62034  0.89074  1.0000
  C   C921      1.0  0.90192  0.67938  0.88785  1.0000
  S   S253      1.0  0.95887  0.58231  0.93944  1.0000
  H   H1098     1.0  0.99140  0.71621  0.86049  1.0000
  N   N62       1.0  0.92540  0.83078  0.67797  1.0000
  N   N63       1.0  0.91519  0.71105  0.88710  1.0000
  C   C922      1.0  0.89678  0.73302  0.89778  1.0000
  H   H1099     1.0  0.87184  0.73598  0.89404  1.0000
  S   S254      1.0  0.96881  0.74082  0.95628  1.0000
  H   H1100     1.0  0.68502  0.78747  0.74548  1.0000
  H   H1101     1.0  0.75218  0.73188  0.73583  1.0000
  C   C923      1.0  0.74702  0.78685  0.75234  1.0000
  H   H1102     1.0  0.78480  0.81570  0.74340  1.0000
  H   H1103     1.0  0.97536  0.75783  0.92074  1.0000
  H   H1104     1.0  0.86671  0.96449  0.92875  1.0000
  S   S255      1.0  0.95281  0.65184  0.97086  1.0000
  H   H1105     1.0  0.71844  0.73910  0.72328  1.0000
  H   H1106     1.0  0.54463  0.84717  0.76162  1.0000
  C   C924      1.0  0.91287  0.83904  0.69415  1.0000
  H   H1107     1.0  0.52836  0.79298  0.86957  1.0000
  H   H1108     1.0  0.76665  0.86238  0.69010  1.0000
  C   C925      1.0  0.91799  0.65273  0.89500  1.0000
  C   C926      1.0  0.87130  0.67486  0.88198  1.0000
  C   C927      1.0  0.77367  0.80553  0.75370  1.0000
  H   H1109     1.0  0.96174  0.85300  0.93670  1.0000
  N   N64       1.0  0.73238  0.77969  0.73672  1.0000
  C   C928      1.0  0.77433  0.79952  0.78261  1.0000
  C   C929      1.0  0.92733  0.79587  0.67618  1.0000
  H   H1110     1.0  0.73954  0.78336  0.71103  1.0000
  H   H1111     1.0  0.92921  0.83065  0.70382  1.0000
  H   H1112     1.0  0.55452  0.81879  0.77681  1.0000
  Fe  Fe128     1.0  0.90212  0.65639  0.97793  1.0000
  H   H1113     1.0  0.53678  0.85729  0.78213  1.0000
  H   H1114     1.0  0.71331  0.76219  0.76696  1.0000
  C   C930      1.0  0.85750  0.64572  0.88333  1.0000
  C   C931      1.0  0.90372  0.62381  0.89655  1.0000
  H   H1115     1.0  0.91575  0.60418  0.90269  1.0000
  H   H1116     1.0  0.71333  0.73527  0.74418  1.0000
  H   H1117     1.0  0.77467  0.77889  0.72242  1.0000
  H   H1118     1.0  0.98252  0.77433  0.86391  1.0000
  C   C932      1.0  0.94843  0.71122  0.89225  1.0000
  H   H1119     1.0  0.51603  0.79790  0.68274  1.0000
  C   C933      1.0  0.99192  0.84052  0.81356  1.0000
  C   C934      1.0  0.98285  0.78191  0.92064  1.0000
  H   H1120     1.0  0.78520  0.80388  0.79411  1.0000
  H   H1121     1.0  0.95977  0.53712  0.99352  1.0000
  C   C935      1.0  0.78724  0.81131  0.76863  1.0000
  C   C936      1.0  0.73403  0.77584  0.76689  1.0000
  H   H1122     1.0  0.86227  0.59814  0.89225  1.0000
  H   H1123     1.0  0.68925  0.79156  0.72424  1.0000
  H   H1124     1.0  0.94552  0.79897  0.93609  1.0000
  H   H1125     1.0  0.95226  0.79482  0.80062  1.0000
  C   C937      1.0  0.00251  0.79593  0.79570  1.0000
  H   H1126     1.0  0.50961  0.73175  0.80690  1.0000
  H   H1127     1.0  0.52579  0.74219  0.68825  1.0000
  C   C938      1.0  0.95848  0.98389  0.90015  1.0000
  C   C939      1.0  0.80423  0.79384  0.67804  1.0000
  H   H1128     1.0  0.94247  0.78433  0.68561  1.0000
  H   H1129     1.0  0.90401  0.78555  0.67711  1.0000
  C   C940      1.0  0.50716  0.72144  0.78167  1.0000
  H   H1130     1.0  0.82308  0.77726  0.68149  1.0000
  C   C941      1.0  0.95787  0.84176  0.67720  1.0000
  S   S256      1.0  0.60909  0.58122  0.67139  1.0000
  C   C942      1.0  0.89349  0.51780  0.98177  1.0000
  H   H1131     1.0  0.56916  0.71152  0.67503  1.0000
  C   C943      1.0  0.96267  0.99805  0.93300  1.0000
  C   C944      1.0  0.53913  0.64157  0.68745  1.0000
  C   C945      1.0  0.97095  0.78956  0.79210  1.0000
  C   C946      1.0  0.98528  0.77080  0.76550  1.0000
  H   H1132     1.0  0.94186  0.95321  0.93661  1.0000
  C   C947      1.0  0.96713  0.53376  0.98121  1.0000
  H   H1133     1.0  0.89022  0.82823  0.69668  1.0000
  C   C948      1.0  0.53495  0.78584  0.67624  1.0000
  H   H1134     1.0  0.96658  0.83682  0.81497  1.0000
  C   C949      1.0  0.96258  0.77727  0.77721  1.0000
  H   H1135     1.0  0.99871  0.85344  0.82458  1.0000
  H   H1136     1.0  0.99784  0.89095  0.94499  1.0000
  H   H1137     1.0  0.65657  0.52858  0.67478  1.0000
  H   H1138     1.0  0.87102  0.99603  0.95293  1.0000
  H   H1139     1.0  0.86234  0.82296  0.67447  1.0000
  H   H1140     1.0  0.89818  0.50441  0.97084  1.0000
  H   H1141     1.0  0.98337  0.60641  0.88795  1.0000
  H   H1142     1.0  0.54733  0.50656  0.68691  1.0000
  C   C950      1.0  0.87294  0.98896  0.92785  1.0000
  C   C951      1.0  0.88049  0.54856  0.98085  1.0000
  H   H1143     1.0  0.99234  0.52149  0.93691  1.0000
  H   H1144     1.0  0.50457  0.59509  0.67552  1.0000
  H   H1145     1.0  0.87826  0.98657  0.90221  1.0000
  C   C952      1.0  0.99171  0.58839  0.89686  1.0000
  H   H1146     1.0  0.51157  0.70798  0.75681  1.0000
  C   C953      1.0  0.98348  0.50566  0.97662  1.0000
  C   C954      1.0  0.90193  0.50473  0.99663  1.0000
  H   H1147     1.0  0.99444  0.85669  0.80315  1.0000
  H   H1148     1.0  0.99239  0.56490  0.89079  1.0000
  H   H1149     1.0  0.60217  0.00237  0.67185  1.0000
  C   C955      1.0  0.51560  0.96179  0.68813  1.0000
  C   C956      1.0  0.87936  0.00139  0.91281  1.0000
  C   C957      1.0  0.87577  0.56635  0.99480  1.0000
  H   H1150     1.0  0.50929  0.93749  0.68641  1.0000
  C   C958      1.0  0.00327  0.84477  0.92134  1.0000
  H   H1151     1.0  0.52267  0.77933  0.76323  1.0000
  C   C959      1.0  0.50673  0.79957  0.75952  1.0000
  H   H1152     1.0  0.51567  0.80864  0.74795  1.0000
  C   C960      1.0  0.50556  0.97815  0.70184  1.0000
