data_image0
_chemical_formula_structural       S2HSCHSFeSFeSC3HCHFeS2FeSHFeS2FeS2FeHFeHS2C6H5CH2C6H4CSC3HC3HSHCHCH9NC5HCH3CH2CHSHCHCHC4H2CH3CH3NH2C3HNC2HCH4CH5FeH2CHSH3NC3HCFeH4C2NH3C2HC2H4CH2CH2C2H5NH2FeSFeS2FeS2FeSFeS3FeSHFeS2FeSFeS3FeS2FeCHNH3C3FeC2H3C6H4C6H4C6H4C6H4CHCHFeHFeHCSH2C2H5C2H6CHCHC3H2SH4CNC2H4C2H5CHC2HSCHNC9H14C2HCHCH2SHCHC8H2C3HC2HNCH6CH2C2HCHC2HNC3H2CHSHC2HN2H2SH3CHSH2C2HSC2SH3C2HC2HCH2FeSFeS2FeS2FeSFeS3FeSCFeS2FeSFeS3FeS3H2CHC4HCHCNC6H4C6H4C6H4C6H3S2C3H2SHCHC2H2CH2CH3CHCH2SHSCNH9SH3C2HSHCNCHSCHFeHNH4C8H2CH2CH2C2FeCSCNH3NC7H12CHCHC2HC2H4C5FeCH2SHCHCHCH11SHSHFeSFeSFeS2FeS2FeS2FeS2FeSFeHS2C3FeC7H5CHC2HC6H4CH2FeHFeH3C3H2C2NH3C2H3CH2SCHC2H5SCHNC2H4C2H4C4NC9H15C3HSHCH2CHSNHC2H2C3H3CHCH4CH3CHC2H2SFeCSCS2FeHFeS2FeS2FeS2FeS2C6H2CHC4H2C6H4C3HC2HC2H2SHFeS2FeS2FeS2FeS2HC5H3C3H2C6H5C2H2FeC5H2NC8H13CHCH3C2HC3SCH3C2H4CHCHC6H4CH5C2H5C2HNH2CH4C2NHCH2CHC2H2CHC4HCH2CHCHC4SHCH3NH2CH2CH2CHC2HNHSFeSFeS2FeCFeS3H5C6H4C6HCH5SFeSFeS2CHC5H4C3HC2HC2H2CH5NC2HCH2C2H4CH6C2H4CH3CH6CH2C2HCHC2HC3HNH2C3H6NC9H14CHCH2CHNC3H3C2HC2HSHNC2NSFeHCSCHSFeSFeS2FeSCFeS2C6H4C3HC2H4CH2FeSFeS2HC5H3C4H2CHFeH4CHSHNC9H15CHCHC2HC2HCH6CHCHSCH2CHNH6CH3CH2CHCH3C2HCH2CH2NC3H3CHCH2CHC2H3CHCHC3HC2HC3NSHFeS2FeS2FeS2FeS2FeS2FeS2C3HC2HCH2C4H2NC5H4CHC2NHC4H3CH2FeS2FeS2C3SC2H4C2H2C6H4C2H2C2H6CHC2HNC2H3C3H2CH2CH2C3HNC6HCH14CFeHC3HCHCHC2H2CH4C3HCH2CHCHC2H2CH2CHNH4C3H2C2H2NH2C3HCHC4HC2H5C4H4SC3HCHCHSCS2FeCFeSFeS2HCHCH2FeS2FeSCFeS2FeCFeHS2C6H4CSHCH2C6H4C3H4NC3HC2H2FeHCHCHCHC2HSNHFeHC2H3S2HCHFeHCHCH6SH2C3H2CH2SHCHSHCH3S2HFeHC3SHSH2CHCNH4NC9H4SH4CH2FeH2CH2CHC3SH2CFeSFeS2FeS2FeSFeS3FeS2FeS2FeSFeS3FeS2H3CHCSH2NCH6C3HC2H3C6H4C6H4C6H4C9H6C2H2CH9CH4CH2CH4NHC3HCH2CHC2H2C2H2NH3C2H4CHC2H2CHSHC2NH3NC7HC3H5C2H2C5HCH3CHCH2SH3SC2SHFeHCSCHFeSFeS2FeS2FeSFeS3FeS2FeS2FeSFeS3NH2CH2FeS3H2CH2CHC3H3C6H4C6H4C6H4C6H3C5NH2CHNC5HFeCH5CH8CNC9H14CHC2H6CHCH2C2SCHCHC2HCHCHC2HCH2CH2CHC2H5C2HCH2CSNC2HC2H2CHC2HCFeH3CH2NC2HCHSHSCH3CH2C2HCHC2H2FeH5C2NCSCSHFeSFeSHSHCHCFeS2H3CH2FeS2FeS2FeS2FeSFeHS2HC2HC7H8C2H2C6H6CHCH3SHC2HCH2NHCH2C2H3CH2SH4CH2CH3NCH2CHCHCH2NHC4HC4NCHCSH3CH3CH3C2Fe
_chemical_formula_sum              "S256 H1152 C960 Fe128 N64"
_cell_length_a       50.6034
_cell_length_b       51.4308
_cell_length_c       52.7039
_cell_angle_alpha    89.8808
_cell_angle_beta     90.0225
_cell_angle_gamma    89.9813

_space_group_name_H-M_alt    "P 1"
_space_group_IT_number       1

loop_
  _space_group_symop_operation_xyz
  'x, y, z'

loop_
  _atom_site_type_symbol
  _atom_site_label
  _atom_site_symmetry_multiplicity
  _atom_site_fract_x
  _atom_site_fract_y
  _atom_site_fract_z
  _atom_site_occupancy
  S   S1        1.0  0.02323  0.30268  0.99788  1.0000
  S   S2        1.0  0.23768  0.16738  0.97237  1.0000
  H   H1        1.0  0.09383  0.15183  0.25852  1.0000
  S   S3        1.0  0.23164  0.07178  0.39669  1.0000
  C   C1        1.0  0.08222  0.13882  0.24585  1.0000
  H   H2        1.0  0.01763  0.22243  0.99147  1.0000
  S   S4        1.0  0.22402  0.12656  0.42678  1.0000
  Fe  Fe1       1.0  0.19745  0.09867  0.40588  1.0000
  S   S5        1.0  0.16730  0.11637  0.37823  1.0000
  Fe  Fe2       1.0  0.25727  0.09789  0.42075  1.0000
  S   S6        1.0  0.29969  0.11379  0.41641  1.0000
  C   C2        1.0  0.08081  0.02447  0.01267  1.0000
  C   C3        1.0  0.15200  0.14820  0.44298  1.0000
  C   C4        1.0  0.10596  0.01785  0.00367  1.0000
  H   H3        1.0  0.02470  0.10242  0.29139  1.0000
  C   C5        1.0  0.09773  0.09157  0.31064  1.0000
  H   H4        1.0  0.10750  0.17933  0.05804  1.0000
  Fe  Fe3       1.0  0.01423  0.12863  0.06913  1.0000
  S   S7        1.0  0.04820  0.11316  0.04420  1.0000
  S   S8        1.0  0.01247  0.16909  0.08548  1.0000
  Fe  Fe4       1.0  0.00676  0.12657  0.35914  1.0000
  S   S9        1.0  0.04105  0.10619  0.37972  1.0000
  H   H5        1.0  0.01370  0.42404  0.98434  1.0000
  Fe  Fe5       1.0  0.20736  0.09652  0.02892  1.0000
  S   S10       1.0  0.20388  0.09854  0.98649  1.0000
  S   S11       1.0  0.17297  0.09752  0.05727  1.0000
  Fe  Fe6       1.0  0.26903  0.09323  0.02655  1.0000
  S   S12       1.0  0.26910  0.09515  0.98390  1.0000
  S   S13       1.0  0.30601  0.08629  0.05094  1.0000
  Fe  Fe7       1.0  0.23813  0.12632  0.98834  1.0000
  H   H6        1.0  0.09808  0.05576  0.06676  1.0000
  Fe  Fe8       1.0  0.23500  0.06683  0.98620  1.0000
  H   H7        1.0  0.05835  0.28986  0.95352  1.0000
  S   S14       1.0  0.24009  0.12606  0.03105  1.0000
  S   S15       1.0  0.23641  0.06313  0.02852  1.0000
  C   C6        1.0  0.13878  0.10471  0.05281  1.0000
  C   C7        1.0  0.12288  0.10951  0.07423  1.0000
  C   C8        1.0  0.09531  0.11316  0.07192  1.0000
  C   C9        1.0  0.08316  0.11139  0.04815  1.0000
  C   C10       1.0  0.09910  0.10701  0.02666  1.0000
  C   C11       1.0  0.12676  0.10398  0.02890  1.0000
  H   H8        1.0  0.13193  0.11007  0.09283  1.0000
  H   H9        1.0  0.08338  0.11649  0.08864  1.0000
  H   H10       1.0  0.08994  0.10545  0.00819  1.0000
  H   H11       1.0  0.13861  0.10022  0.01225  1.0000
  H   H12       1.0  0.16169  0.98739  0.03321  1.0000
  C   C12       1.0  0.07801  0.03805  0.03536  1.0000
  H   H13       1.0  0.10896  0.11555  0.27993  1.0000
  H   H14       1.0  0.03628  0.15877  0.96818  1.0000
  C   C13       1.0  0.13216  0.11388  0.37948  1.0000
  C   C14       1.0  0.11943  0.09535  0.39461  1.0000
  C   C15       1.0  0.09160  0.09353  0.39455  1.0000
  C   C16       1.0  0.07604  0.11031  0.37957  1.0000
  C   C17       1.0  0.08872  0.12914  0.36475  1.0000
  C   C18       1.0  0.11661  0.13078  0.36461  1.0000
  H   H15       1.0  0.13106  0.08198  0.40588  1.0000
  H   H16       1.0  0.08203  0.07878  0.40596  1.0000
  H   H17       1.0  0.07708  0.14212  0.35306  1.0000
  H   H18       1.0  0.12621  0.14518  0.35281  1.0000
  C   C19       1.0  0.07731  0.08005  0.32432  1.0000
  S   S16       1.0  0.23136  0.03194  0.95951  1.0000
  C   C20       1.0  0.23488  0.99797  0.96529  1.0000
  C   C21       1.0  0.24104  0.98796  0.98930  1.0000
  C   C22       1.0  0.05718  0.16871  0.42339  1.0000
  H   H19       1.0  0.24383  0.00107  0.00509  1.0000
  C   C23       1.0  0.00450  0.27626  0.00950  1.0000
  C   C24       1.0  0.07819  0.18590  0.42640  1.0000
  C   C25       1.0  0.99907  0.24126  0.04051  1.0000
  H   H20       1.0  0.03934  0.17482  0.41369  1.0000
  S   S17       1.0  0.18559  0.07676  0.44083  1.0000
  H   H21       1.0  0.11596  0.22676  0.05943  1.0000
  C   C26       1.0  0.07801  0.28163  0.95210  1.0000
  H   H22       1.0  0.26905  0.02759  0.41965  1.0000
  C   C27       1.0  0.00905  0.44333  0.97743  1.0000
  H   H23       1.0  0.19182  0.00014  0.01989  1.0000
  H   H24       1.0  0.31084  0.18791  0.97084  1.0000
  H   H25       1.0  0.00937  0.20391  0.39237  1.0000
  H   H26       1.0  0.19096  0.23828  0.96792  1.0000
  H   H27       1.0  0.14217  0.04522  0.05152  1.0000
  H   H28       1.0  0.06848  0.17372  0.96983  1.0000
  H   H29       1.0  0.05564  0.09525  0.23378  1.0000
  H   H30       1.0  0.28521  0.00642  0.39755  1.0000
  H   H31       1.0  0.00578  0.23119  0.05738  1.0000
  N   N1        1.0  0.04070  0.18770  0.99751  1.0000
  C   C28       1.0  0.05153  0.16662  0.98134  1.0000
  C   C29       1.0  0.01994  0.17656  0.01408  1.0000
  C   C30       1.0  0.02795  0.20706  0.98048  1.0000
  C   C31       1.0  0.06185  0.19884  0.01361  1.0000
  C   C32       1.0  0.06727  0.22597  0.01477  1.0000
  H   H32       1.0  0.16004  0.23335  0.98336  1.0000
  C   C33       1.0  0.10122  0.21907  0.04655  1.0000
  H   H33       1.0  0.17550  0.01751  0.04438  1.0000
  H   H34       1.0  0.17748  0.00007  0.97767  1.0000
  H   H35       1.0  0.29308  0.00691  0.97606  1.0000
  C   C34       1.0  0.30391  0.02575  0.97589  1.0000
  H   H36       1.0  0.09538  0.12317  0.23855  1.0000
  H   H37       1.0  0.02712  0.15952  0.02503  1.0000
  C   C35       1.0  0.00446  0.25937  0.42789  1.0000
  H   H38       1.0  0.01306  0.19099  0.02823  1.0000
  S   S18       1.0  0.21804  0.00695  0.43229  1.0000
  H   H39       1.0  0.11799  0.08889  0.31692  1.0000
  C   C36       1.0  0.28440  0.01217  0.41788  1.0000
  H   H40       1.0  0.14709  0.01419  0.96799  1.0000
  C   C37       1.0  0.00172  0.22228  0.39905  1.0000
  H   H41       1.0  0.08527  0.28483  0.99193  1.0000
  C   C38       1.0  0.09644  0.19242  0.04579  1.0000
  C   C39       1.0  0.08241  0.13490  0.44430  1.0000
  C   C40       1.0  0.05119  0.08417  0.31709  1.0000
  C   C41       1.0  0.09335  0.27871  0.97382  1.0000
  H   H42       1.0  0.17386  0.26581  0.98014  1.0000
  H   H43       1.0  0.07629  0.15076  0.22910  1.0000
  C   C42       1.0  0.04535  0.09962  0.29599  1.0000
  H   H44       1.0  0.11714  0.19176  0.44033  1.0000
  H   H45       1.0  0.05640  0.24009  0.00371  1.0000
  H   H46       1.0  0.29782  0.00585  0.02325  1.0000
  C   C43       1.0  0.08660  0.23580  0.03115  1.0000
  H   H47       1.0  0.08981  0.25661  0.03232  1.0000
  H   H48       1.0  0.15512  0.16903  0.43846  1.0000
  H   H49       1.0  0.08166  0.06856  0.34109  1.0000
  N   N2        1.0  0.05886  0.12785  0.25916  1.0000
  H   H50       1.0  0.07337  0.16181  0.03052  1.0000
  H   H51       1.0  0.28985  0.03989  0.02154  1.0000
  C   C44       1.0  0.12917  0.02485  0.01730  1.0000
  C   C45       1.0  0.01410  0.23536  0.41923  1.0000
  C   C46       1.0  0.10031  0.04476  0.04934  1.0000
  H   H52       1.0  0.03802  0.12393  0.22353  1.0000
  N   N3        1.0  0.31029  0.02162  0.42733  1.0000
  C   C47       1.0  0.17188  0.00555  0.02717  1.0000
  C   C48       1.0  0.16932  0.04473  0.00217  1.0000
  H   H53       1.0  0.03040  0.26971  0.04138  1.0000
  C   C49       1.0  0.04222  0.15000  0.26746  1.0000
  H   H54       1.0  0.06334  0.01939  0.00184  1.0000
  H   H55       1.0  0.05844  0.14962  0.99266  1.0000
  H   H56       1.0  0.03533  0.07587  0.32837  1.0000
  H   H57       1.0  0.01241  0.19806  0.96837  1.0000
  C   C50       1.0  0.04385  0.11218  0.24044  1.0000
  H   H58       1.0  0.12965  0.26673  0.98983  1.0000
  H   H59       1.0  0.03753  0.16345  0.25148  1.0000
  H   H60       1.0  0.14726  0.98461  0.98688  1.0000
  H   H61       1.0  0.28836  0.04107  0.97624  1.0000
  H   H62       1.0  0.04255  0.21645  0.96762  1.0000
  Fe  Fe9       1.0  0.01042  0.32317  0.96176  1.0000
  H   H63       1.0  0.04290  0.12999  0.42972  1.0000
  H   H64       1.0  0.17157  0.05696  0.01940  1.0000
  C   C51       1.0  0.07695  0.18246  0.02975  1.0000
  H   H65       1.0  0.05216  0.16142  0.28265  1.0000
  S   S19       1.0  0.00655  0.15760  0.32875  1.0000
  H   H66       1.0  0.02518  0.10431  0.24846  1.0000
  H   H67       1.0  0.02289  0.14352  0.27515  1.0000
  H   H68       1.0  0.32105  0.03522  0.38980  1.0000
  N   N4        1.0  0.32231  0.02800  0.99777  1.0000
  C   C52       1.0  0.15681  0.00389  0.98409  1.0000
  C   C53       1.0  0.00687  0.44931  0.44194  1.0000
  C   C54       1.0  0.30642  0.02567  0.02129  1.0000
  H   H69       1.0  0.05856  0.04382  0.04197  1.0000
  C   C55       1.0  0.09216  0.10707  0.28944  1.0000
  Fe  Fe10      1.0  0.22114  0.05141  0.43352  1.0000
  H   H70       1.0  0.15785  0.05632  0.98810  1.0000
  H   H71       1.0  0.14924  0.13784  0.42468  1.0000
  H   H72       1.0  0.31443  0.02787  0.95747  1.0000
  H   H73       1.0  0.10667  0.00760  0.98584  1.0000
  C   C56       1.0  0.12552  0.03846  0.04046  1.0000
  C   C57       1.0  0.06566  0.11148  0.28140  1.0000
  N   N5        1.0  0.15617  0.01965  0.00771  1.0000
  H   H74       1.0  0.18949  0.04177  0.99432  1.0000
  H   H75       1.0  0.31061  0.08529  0.36873  1.0000
  H   H76       1.0  0.31823  0.02981  0.03864  1.0000
  C   C58       1.0  0.31929  0.04232  0.40967  1.0000
  C   C59       1.0  0.01297  0.26308  0.03143  1.0000
  H   H77       1.0  0.12732  0.10300  0.45034  1.0000
  C   C60       1.0  0.11890  0.26837  0.97222  1.0000
  C   C61       1.0  0.05920  0.14340  0.43253  1.0000
  H   H78       1.0  0.32318  0.98276  0.43714  1.0000
  H   H79       1.0  0.07648  0.20559  0.41917  1.0000
  H   H80       1.0  0.00229  0.17001  0.00318  1.0000
  H   H81       1.0  0.30492  0.05873  0.40920  1.0000
  C   C62       1.0  0.17090  0.24680  0.97046  1.0000
  H   H82       1.0  0.30147  0.25631  0.96110  1.0000
  H   H83       1.0  0.03133  0.22690  0.42813  1.0000
  C   C63       1.0  0.10142  0.17772  0.43842  1.0000
  H   H84       1.0  0.31903  0.06986  0.99587  1.0000
  H   H85       1.0  0.01066  0.44642  0.42195  1.0000
  C   C64       1.0  0.10437  0.15184  0.44751  1.0000
  C   C65       1.0  0.99910  0.44656  0.95287  1.0000
  H   H86       1.0  0.08273  0.11480  0.45017  1.0000
  H   H87       1.0  0.27706  0.99491  0.42845  1.0000
  H   H88       1.0  0.32073  0.07104  0.44873  1.0000
  H   H89       1.0  0.00631  0.40800  0.45039  1.0000
  H   H90       1.0  0.31155  0.28465  0.48743  1.0000
  N   N6        1.0  0.07698  0.41741  0.90904  1.0000
  H   H91       1.0  0.10411  0.33796  0.92435  1.0000
  H   H92       1.0  0.15311  0.33616  0.92771  1.0000
  Fe  Fe11      1.0  0.03539  0.33346  0.91059  1.0000
  S   S20       1.0  0.06838  0.32611  0.88183  1.0000
  Fe  Fe12      1.0  0.25436  0.24863  0.56743  1.0000
  S   S21       1.0  0.25121  0.28902  0.55200  1.0000
  S   S22       1.0  0.26515  0.22060  0.53601  1.0000
  Fe  Fe13      1.0  0.24922  0.26825  0.62230  1.0000
  S   S23       1.0  0.24532  0.31004  0.60974  1.0000
  S   S24       1.0  0.25463  0.25336  0.66308  1.0000
  Fe  Fe14      1.0  0.21776  0.29429  0.57957  1.0000
  S   S25       1.0  0.18340  0.31526  0.55995  1.0000
  Fe  Fe15      1.0  0.27892  0.30069  0.58301  1.0000
  S   S26       1.0  0.31297  0.32884  0.57561  1.0000
  S   S27       1.0  0.21947  0.25284  0.59362  1.0000
  S   S28       1.0  0.28424  0.25999  0.59693  1.0000
  Fe  Fe16      1.0  0.28525  0.29181  0.86236  1.0000
  S   S29       1.0  0.27965  0.26345  0.83012  1.0000
  H   H93       1.0  0.30293  0.32289  0.76019  1.0000
  Fe  Fe17      1.0  0.22432  0.30189  0.86644  1.0000
  S   S30       1.0  0.21515  0.27438  0.83465  1.0000
  S   S31       1.0  0.19408  0.32067  0.89311  1.0000
  Fe  Fe18      1.0  0.24522  0.24805  0.85272  1.0000
  S   S32       1.0  0.23805  0.20479  0.85765  1.0000
  Fe  Fe19      1.0  0.25012  0.29222  0.81439  1.0000
  S   S33       1.0  0.24475  0.30576  0.77300  1.0000
  S   S34       1.0  0.25241  0.27431  0.88558  1.0000
  S   S35       1.0  0.25766  0.32191  0.84554  1.0000
  Fe  Fe20      1.0  0.02629  0.31698  0.53387  1.0000
  S   S36       1.0  0.03398  0.33535  0.49603  1.0000
  S   S37       1.0  0.05758  0.30597  0.56343  1.0000
  Fe  Fe21      1.0  0.21397  0.10317  0.46123  1.0000
  C   C66       1.0  0.99707  0.45621  0.49346  1.0000
  H   H94       1.0  0.13590  0.43831  0.58342  1.0000
  N   N7        1.0  0.31203  0.32975  0.65817  1.0000
  H   H95       1.0  0.15124  0.15297  0.49395  1.0000
  H   H96       1.0  0.08800  0.35442  0.58169  1.0000
  H   H97       1.0  0.14263  0.21068  0.94443  1.0000
  C   C67       1.0  0.15913  0.40273  0.89172  1.0000
  C   C68       1.0  0.23599  0.19359  0.88930  1.0000
  C   C69       1.0  0.23055  0.21091  0.90898  1.0000
  Fe  Fe22      1.0  0.00129  0.37603  0.93669  1.0000
  C   C70       1.0  0.24015  0.15849  0.92042  1.0000
  C   C71       1.0  0.24031  0.16723  0.89503  1.0000
  H   H98       1.0  0.22639  0.23100  0.90479  1.0000
  H   H99       1.0  0.24403  0.13827  0.92478  1.0000
  H   H100      1.0  0.24432  0.15362  0.87988  1.0000
  C   C72       1.0  0.24626  0.19375  0.52573  1.0000
  C   C73       1.0  0.22323  0.18583  0.53823  1.0000
  C   C74       1.0  0.20890  0.16426  0.52920  1.0000
  C   C75       1.0  0.21756  0.15050  0.50772  1.0000
  C   C76       1.0  0.24039  0.15864  0.49513  1.0000
  C   C77       1.0  0.25468  0.18013  0.50414  1.0000
  H   H101      1.0  0.21678  0.19596  0.55509  1.0000
  H   H102      1.0  0.19135  0.15789  0.53915  1.0000
  H   H103      1.0  0.24730  0.14813  0.47864  1.0000
  H   H104      1.0  0.27250  0.18599  0.49438  1.0000
  C   C78       1.0  0.14863  0.31015  0.56016  1.0000
  C   C79       1.0  0.13583  0.29694  0.57985  1.0000
  C   C80       1.0  0.10799  0.29530  0.58020  1.0000
  C   C81       1.0  0.09264  0.30630  0.56064  1.0000
  C   C82       1.0  0.10552  0.31864  0.54045  1.0000
  C   C83       1.0  0.13331  0.32082  0.54042  1.0000
  H   H105      1.0  0.14729  0.28879  0.59528  1.0000
  H   H106      1.0  0.09823  0.28582  0.59597  1.0000
  H   H107      1.0  0.09409  0.32704  0.52516  1.0000
  H   H108      1.0  0.14298  0.33112  0.52510  1.0000
  C   C84       1.0  0.25343  0.26938  0.69306  1.0000
  C   C85       1.0  0.24068  0.29327  0.69644  1.0000
  C   C86       1.0  0.23826  0.30404  0.72099  1.0000
  C   C87       1.0  0.24888  0.29136  0.74243  1.0000
  C   C88       1.0  0.26264  0.26805  0.73884  1.0000
  C   C89       1.0  0.26454  0.25698  0.71440  1.0000
  H   H109      1.0  0.23194  0.30305  0.68031  1.0000
  H   H110      1.0  0.22785  0.32224  0.72344  1.0000
  H   H111      1.0  0.27196  0.25867  0.75483  1.0000
  H   H112      1.0  0.27462  0.23859  0.71202  1.0000
  C   C90       1.0  0.10316  0.32349  0.88609  1.0000
  C   C91       1.0  0.11868  0.31444  0.86579  1.0000
  C   C92       1.0  0.14643  0.31297  0.86778  1.0000
  C   C93       1.0  0.15907  0.32098  0.89002  1.0000
  C   C94       1.0  0.14355  0.32983  0.91044  1.0000
  C   C95       1.0  0.11574  0.33092  0.90858  1.0000
  H   H113      1.0  0.10915  0.30872  0.84828  1.0000
  H   H114      1.0  0.15807  0.30620  0.85189  1.0000
  H   H115      1.0  0.12096  0.26003  0.90785  1.0000
  H   H116      1.0  0.14863  0.11005  0.47640  1.0000
  C   C96       1.0  0.09768  0.37311  0.58199  1.0000
  H   H117      1.0  0.14516  0.37276  0.86682  1.0000
  C   C97       1.0  0.31914  0.23178  0.48419  1.0000
  H   H118      1.0  0.22756  0.21608  0.94938  1.0000
  Fe  Fe23      1.0  0.00595  0.30507  0.48057  1.0000
  H   H119      1.0  0.28016  0.35967  0.69123  1.0000
  Fe  Fe24      1.0  0.99727  0.35929  0.50334  1.0000
  H   H120      1.0  0.03736  0.40399  0.90113  1.0000
  C   C98       1.0  0.12991  0.26089  0.94844  1.0000
  S   S38       1.0  0.00035  0.35707  0.89827  1.0000
  H   H121      1.0  0.15857  0.39738  0.59528  1.0000
  H   H122      1.0  0.22658  0.98802  0.92637  1.0000
  C   C99       1.0  0.12610  0.25140  0.52422  1.0000
  C   C100      1.0  0.29520  0.02116  0.49811  1.0000
  H   H123      1.0  0.05204  0.41525  0.94229  1.0000
  H   H124      1.0  0.16740  0.43363  0.91786  1.0000
  H   H125      1.0  0.04399  0.43261  0.57743  1.0000
  H   H126      1.0  0.27368  0.34622  0.65007  1.0000
  H   H127      1.0  0.16411  0.98478  0.46074  1.0000
  C   C101      1.0  0.13957  0.38822  0.87976  1.0000
  C   C102      1.0  0.30529  0.32484  0.73981  1.0000
  H   H128      1.0  0.28373  0.29922  0.65279  1.0000
  H   H129      1.0  0.17554  0.21483  0.93235  1.0000
  H   H130      1.0  0.05450  0.43072  0.54448  1.0000
  H   H131      1.0  0.09893  0.38040  0.87529  1.0000
  H   H132      1.0  0.31421  0.23963  0.46507  1.0000
  H   H133      1.0  0.28778  0.00759  0.51218  1.0000
  C   C103      1.0  0.17315  0.26759  0.92978  1.0000
  H   H134      1.0  0.04470  0.35987  0.58610  1.0000
  C   C104      1.0  0.08406  0.39604  0.57463  1.0000
  H   H135      1.0  0.01835  0.38110  0.57840  1.0000
  C   C105      1.0  0.12544  0.42729  0.91382  1.0000
  C   C106      1.0  0.23443  0.98923  0.47979  1.0000
  C   C107      1.0  0.13568  0.25401  0.47925  1.0000
  H   H136      1.0  0.13503  0.18016  0.47960  1.0000
  H   H137      1.0  0.29829  0.26379  0.92786  1.0000
  S   S39       1.0  0.19954  0.12329  0.49696  1.0000
  H   H138      1.0  0.04115  0.38996  0.60315  1.0000
  H   H139      1.0  0.23549  0.00942  0.48542  1.0000
  H   H140      1.0  0.27679  0.35550  0.73694  1.0000
  H   H141      1.0  0.07624  0.27731  0.91164  1.0000
  C   C108      1.0  0.12421  0.37367  0.58930  1.0000
  N   N8        1.0  0.05650  0.39448  0.56528  1.0000
  C   C109      1.0  0.10498  0.41252  0.90233  1.0000
  C   C110      1.0  0.31056  0.06406  0.48697  1.0000
  H   H142      1.0  0.05934  0.40218  0.87480  1.0000
  H   H143      1.0  0.18361  0.22960  0.47383  1.0000
  H   H144      1.0  0.28472  0.22084  0.91542  1.0000
  H   H145      1.0  0.13138  0.25002  0.54403  1.0000
  C   C111      1.0  0.14526  0.25096  0.50445  1.0000
  C   C112      1.0  0.06962  0.44452  0.90244  1.0000
  H   H146      1.0  0.20243  0.24208  0.53930  1.0000
  H   H147      1.0  0.17596  0.20813  0.49983  1.0000
  H   H148      1.0  0.29836  0.05285  0.52452  1.0000
  H   H149      1.0  0.20864  0.27324  0.50622  1.0000
  H   H150      1.0  0.08805  0.96881  0.49314  1.0000
  C   C113      1.0  0.03957  0.38082  0.58409  1.0000
  H   H151      1.0  0.06923  0.38872  0.52672  1.0000
  C   C114      1.0  0.29259  0.34530  0.70019  1.0000
  C   C115      1.0  0.18070  0.24417  0.53644  1.0000
  H   H152      1.0  0.06198  0.37914  0.90060  1.0000
  S   S40       1.0  0.00936  0.30122  0.92495  1.0000
  C   C116      1.0  0.11288  0.39289  0.88489  1.0000
  H   H153      1.0  0.20709  0.22467  0.49838  1.0000
  N   N9        1.0  0.21479  0.21115  0.78055  1.0000
  C   C117      1.0  0.23842  0.22639  0.78781  1.0000
  C   C118      1.0  0.19227  0.21908  0.79687  1.0000
  C   C119      1.0  0.22045  0.18337  0.78620  1.0000
  C   C120      1.0  0.20867  0.21636  0.75353  1.0000
  C   C121      1.0  0.21173  0.19729  0.73422  1.0000
  C   C122      1.0  0.20083  0.24163  0.74562  1.0000
  C   C123      1.0  0.20729  0.20339  0.70867  1.0000
  C   C124      1.0  0.19609  0.24737  0.72009  1.0000
  C   C125      1.0  0.19955  0.22836  0.70163  1.0000
  H   H154      1.0  0.23517  0.24770  0.78581  1.0000
  H   H155      1.0  0.24415  0.22278  0.80785  1.0000
  H   H156      1.0  0.25569  0.22116  0.77580  1.0000
  H   H157      1.0  0.18839  0.24031  0.79609  1.0000
  H   H158      1.0  0.19608  0.21456  0.81727  1.0000
  H   H159      1.0  0.17379  0.20892  0.79117  1.0000
  H   H160      1.0  0.23861  0.17653  0.77635  1.0000
  H   H161      1.0  0.22416  0.18016  0.80687  1.0000
  H   H162      1.0  0.20353  0.17070  0.78083  1.0000
  H   H163      1.0  0.21802  0.17767  0.73824  1.0000
  H   H164      1.0  0.19930  0.25753  0.75896  1.0000
  H   H165      1.0  0.21039  0.18884  0.69411  1.0000
  H   H166      1.0  0.19080  0.26699  0.71448  1.0000
  H   H167      1.0  0.19699  0.23323  0.68175  1.0000
  C   C126      1.0  0.09918  0.25462  0.51892  1.0000
  C   C127      1.0  0.08812  0.27444  0.92859  1.0000
  H   H168      1.0  0.17978  0.39855  0.88800  1.0000
  C   C128      1.0  0.23136  0.98054  0.94503  1.0000
  H   H169      1.0  0.03602  0.37859  0.53313  1.0000
  C   C129      1.0  0.29647  0.21318  0.93169  1.0000
  H   H170      1.0  0.04842  0.44853  0.90686  1.0000
  H   H171      1.0  0.30017  0.22614  0.49337  1.0000
  S   S41       1.0  0.02177  0.27543  0.45244  1.0000
  H   H172      1.0  0.29713  0.35007  0.62513  1.0000
  C   C130      1.0  0.05623  0.37961  0.54127  1.0000
  H   H173      1.0  0.16550  0.26918  0.91006  1.0000
  C   C131      1.0  0.09050  0.25755  0.49400  1.0000
  C   C132      1.0  0.15568  0.22412  0.93359  1.0000
  C   C133      1.0  0.10869  0.25717  0.47420  1.0000
  C   C134      1.0  0.29834  0.01317  0.47295  1.0000
  C   C135      1.0  0.30119  0.04659  0.50508  1.0000
  C   C136      1.0  0.30972  0.32870  0.68619  1.0000
  C   C137      1.0  0.18718  0.27329  0.50145  1.0000
  C   C138      1.0  0.05821  0.39989  0.89577  1.0000
  H   H174      1.0  0.11384  0.11094  0.48129  1.0000
  H   H175      1.0  0.11600  0.15651  0.49675  1.0000
  C   C139      1.0  0.29500  0.34990  0.64620  1.0000
  C   C140      1.0  0.09858  0.41972  0.57545  1.0000
  C   C141      1.0  0.13792  0.39711  0.58980  1.0000
  H   H176      1.0  0.17822  0.29034  0.51125  1.0000
  C   C142      1.0  0.18550  0.22690  0.49464  1.0000
  C   C143      1.0  0.04424  0.42024  0.56014  1.0000
  H   H177      1.0  0.19397  0.26080  0.92812  1.0000
  N   N10       1.0  0.17405  0.24879  0.50934  1.0000
  C   C144      1.0  0.15194  0.97463  0.47459  1.0000
  H   H178      1.0  0.30025  0.36976  0.65283  1.0000
  H   H179      1.0  0.02332  0.41826  0.55367  1.0000
  H   H180      1.0  0.29614  0.26605  0.51237  1.0000
  H   H181      1.0  0.17366  0.28768  0.93766  1.0000
  H   H182      1.0  0.17140  0.22604  0.54374  1.0000
  H   H183      1.0  0.06294  0.35922  0.54396  1.0000
  C   C145      1.0  0.12958  0.11569  0.46731  1.0000
  H   H184      1.0  0.17452  0.26076  0.54860  1.0000
  H   H185      1.0  0.08998  0.43814  0.57011  1.0000
  C   C146      1.0  0.13302  0.15905  0.48360  1.0000
  C   C147      1.0  0.12510  0.42011  0.58304  1.0000
  H   H186      1.0  0.30144  0.19264  0.92706  1.0000
  C   C148      1.0  0.07324  0.41364  0.93674  1.0000
  H   H187      1.0  0.14814  0.22515  0.91380  1.0000
  C   C149      1.0  0.15209  0.42236  0.90860  1.0000
  C   C150      1.0  0.23571  0.17618  0.94010  1.0000
  H   H188      1.0  0.31712  0.28807  0.65377  1.0000
  N   N11       1.0  0.32056  0.22900  0.93623  1.0000
  C   C151      1.0  0.23073  0.20231  0.93423  1.0000
  C   C152      1.0  0.31193  0.25577  0.94253  1.0000
  C   C153      1.0  0.24040  0.96934  0.49739  1.0000
  H   H189      1.0  0.06963  0.26060  0.49005  1.0000
  H   H190      1.0  0.13428  0.35571  0.59425  1.0000
  C   C154      1.0  0.32460  0.31025  0.70033  1.0000
  H   H191      1.0  0.08494  0.25560  0.53432  1.0000
  S   S42       1.0  0.32275  0.29337  0.88697  1.0000
  H   H192      1.0  0.24595  0.97444  0.51658  1.0000
  C   C155      1.0  0.11376  0.26446  0.92666  1.0000
  C   C156      1.0  0.30431  0.30432  0.64730  1.0000
  H   H193      1.0  0.18553  0.27687  0.48072  1.0000
  N   N12       1.0  0.15694  0.25006  0.94584  1.0000
  N   N13       1.0  0.12920  0.14365  0.46012  1.0000
  H   H194      1.0  0.08127  0.45910  0.91323  1.0000
  H   H195      1.0  0.29311  0.99332  0.46846  1.0000
  S   S43       1.0  0.00008  0.28582  0.51825  1.0000
  H   H196      1.0  0.08043  0.39413  0.94281  1.0000
  H   H197      1.0  0.30545  0.30452  0.62622  1.0000
  H   H198      1.0  0.14905  0.25470  0.46330  1.0000
  C   C157      1.0  0.29055  0.34329  0.72660  1.0000
  H   H199      1.0  0.12097  0.44256  0.92722  1.0000
  S   S44       1.0  0.03833  0.35437  0.94776  1.0000
  H   H200      1.0  0.32304  0.28652  0.51971  1.0000
  H   H201      1.0  0.07274  0.44839  0.88186  1.0000
  C   C158      1.0  0.22670  0.98289  0.45509  1.0000
  C   C159      1.0  0.31549  0.27307  0.50489  1.0000
  H   H202      1.0  0.31486  0.08397  0.49233  1.0000
  S   S45       1.0  0.24853  0.07596  0.45708  1.0000
  C   C160      1.0  0.31383  0.05627  0.46176  1.0000
  C   C161      1.0  0.99946  0.43072  0.48396  1.0000
  S   S46       1.0  0.99631  0.40404  0.50546  1.0000
  H   H203      1.0  0.10176  0.25995  0.45489  1.0000
  H   H204      1.0  0.08393  0.42839  0.94820  1.0000
  H   H205      1.0  0.32298  0.23586  0.89579  1.0000
  C   C162      1.0  0.12476  0.97870  0.47512  1.0000
  C   C163      1.0  0.00441  0.42741  0.45804  1.0000
  H   H206      1.0  0.32342  0.23117  0.53414  1.0000
  C   C164      1.0  0.32229  0.30836  0.72672  1.0000
  C   C165      1.0  0.10923  0.96560  0.49286  1.0000
  H   H207      1.0  0.28304  0.21334  0.94842  1.0000
  C   C166      1.0  0.30756  0.03053  0.45392  1.0000
  H   H208      1.0  0.11573  0.99202  0.46169  1.0000
  H   H209      1.0  0.17086  0.14107  0.45141  1.0000
  Fe  Fe25      1.0  0.03850  0.59429  0.42789  1.0000
  S   S47       1.0  0.08180  0.60802  0.42642  1.0000
  Fe  Fe26      1.0  0.24508  0.65360  0.12887  1.0000
  S   S48       1.0  0.24802  0.61652  0.10665  1.0000
  S   S49       1.0  0.22906  0.64764  0.16925  1.0000
  Fe  Fe27      1.0  0.25835  0.68517  0.08102  1.0000
  S   S50       1.0  0.26153  0.64981  0.05605  1.0000
  S   S51       1.0  0.27112  0.72469  0.06633  1.0000
  Fe  Fe28      1.0  0.22430  0.63678  0.07625  1.0000
  S   S52       1.0  0.19021  0.61260  0.05961  1.0000
  Fe  Fe29      1.0  0.28482  0.63300  0.08863  1.0000
  S   S53       1.0  0.00767  0.50161  0.43017  1.0000
  S   S54       1.0  0.21974  0.67337  0.09918  1.0000
  S   S55       1.0  0.28330  0.66894  0.11287  1.0000
  Fe  Fe30      1.0  0.28553  0.61589  0.36394  1.0000
  S   S56       1.0  0.29325  0.65702  0.35234  1.0000
  C   C167      1.0  0.22530  0.95651  0.44818  1.0000
  Fe  Fe31      1.0  0.22453  0.62224  0.35520  1.0000
  S   S57       1.0  0.22913  0.66417  0.34336  1.0000
  S   S58       1.0  0.18363  0.60262  0.35402  1.0000
  Fe  Fe32      1.0  0.26408  0.64974  0.32041  1.0000
  S   S59       1.0  0.27777  0.66240  0.28069  1.0000
  Fe  Fe33      1.0  0.25790  0.66730  0.37601  1.0000
  S   S60       1.0  0.25936  0.69118  0.41219  1.0000
  S   S61       1.0  0.25837  0.60760  0.33078  1.0000
  S   S62       1.0  0.25104  0.62619  0.38896  1.0000
  Fe  Fe34      1.0  0.03429  0.61232  0.01765  1.0000
  S   S63       1.0  0.06987  0.63775  0.02917  1.0000
  S   S64       1.0  0.02975  0.59134  0.98024  1.0000
  S   S65       1.0  0.20771  0.78523  0.98081  1.0000
  H   H210      1.0  0.19431  0.82290  0.05553  1.0000
  H   H211      1.0  0.18111  0.61602  0.17033  1.0000
  C   C168      1.0  0.24039  0.94338  0.97247  1.0000
  H   H212      1.0  0.14877  0.67266  0.39507  1.0000
  C   C169      1.0  0.00683  0.49048  0.98476  1.0000
  C   C170      1.0  0.25727  0.72484  0.41795  1.0000
  C   C171      1.0  0.25706  0.74330  0.39844  1.0000
  C   C172      1.0  0.25336  0.77820  0.42970  1.0000
  H   H213      1.0  0.23118  0.82777  0.00531  1.0000
  C   C173      1.0  0.30661  0.59520  0.19361  1.0000
  H   H214      1.0  0.25853  0.73709  0.37889  1.0000
  C   C174      1.0  0.25543  0.73311  0.44323  1.0000
  N   N14       1.0  0.23775  0.85024  0.03888  1.0000
  C   C175      1.0  0.25413  0.73958  0.04090  1.0000
  C   C176      1.0  0.26650  0.75969  0.02728  1.0000
  C   C177      1.0  0.25271  0.77346  0.00836  1.0000
  C   C178      1.0  0.22633  0.76735  0.00318  1.0000
  C   C179      1.0  0.21410  0.74699  0.01651  1.0000
  C   C180      1.0  0.22800  0.73301  0.03521  1.0000
  H   H215      1.0  0.28671  0.76485  0.03165  1.0000
  H   H216      1.0  0.26240  0.78895  0.99806  1.0000
  H   H217      1.0  0.19372  0.74213  0.01254  1.0000
  H   H218      1.0  0.21830  0.71760  0.04565  1.0000
  C   C181      1.0  0.15685  0.62018  0.05116  1.0000
  C   C182      1.0  0.14731  0.64572  0.05026  1.0000
  C   C183      1.0  0.12080  0.65066  0.04321  1.0000
  C   C184      1.0  0.10337  0.63020  0.03713  1.0000
  C   C185      1.0  0.11287  0.60467  0.03820  1.0000
  C   C186      1.0  0.13942  0.59975  0.04509  1.0000
  H   H219      1.0  0.16043  0.66168  0.05469  1.0000
  H   H220      1.0  0.11374  0.67049  0.04252  1.0000
  H   H221      1.0  0.09980  0.58869  0.03371  1.0000
  H   H222      1.0  0.14652  0.57992  0.04567  1.0000
  C   C187      1.0  0.24285  0.65260  0.20004  1.0000
  C   C188      1.0  0.22799  0.64529  0.22150  1.0000
  C   C189      1.0  0.23823  0.64821  0.24629  1.0000
  C   C190      1.0  0.26354  0.65851  0.24994  1.0000
  C   C191      1.0  0.27829  0.66603  0.22847  1.0000
  C   C192      1.0  0.26805  0.66313  0.20369  1.0000
  H   H223      1.0  0.20844  0.63722  0.21900  1.0000
  H   H224      1.0  0.22658  0.64244  0.26257  1.0000
  H   H225      1.0  0.29781  0.67417  0.23106  1.0000
  H   H226      1.0  0.27960  0.66923  0.18750  1.0000
  C   C193      1.0  0.10951  0.60689  0.40545  1.0000
  C   C194      1.0  0.10789  0.59718  0.38071  1.0000
  C   C195      1.0  0.13064  0.59639  0.36516  1.0000
  C   C196      1.0  0.15525  0.60548  0.37396  1.0000
  C   C197      1.0  0.15683  0.61519  0.39869  1.0000
  C   C198      1.0  0.13412  0.61596  0.41426  1.0000
  H   H227      1.0  0.08914  0.59042  0.37344  1.0000
  H   H228      1.0  0.12918  0.58865  0.34614  1.0000
  H   H229      1.0  0.17576  0.62107  0.40610  1.0000
  S   S66       1.0  0.31768  0.59071  0.38252  1.0000
  S   S67       1.0  0.26450  0.83955  0.96087  1.0000
  C   C199      1.0  0.15440  0.65490  0.15008  1.0000
  C   C200      1.0  0.30391  0.62280  0.15684  1.0000
  C   C201      1.0  0.26484  0.85852  0.03150  1.0000
  H   H230      1.0  0.17394  0.65955  0.15875  1.0000
  H   H231      1.0  0.31571  0.80907  0.44134  1.0000
  S   S68       1.0  0.01165  0.51708  0.00590  1.0000
  H   H232      1.0  0.30821  0.62514  0.13628  1.0000
  C   C202      1.0  0.99694  0.49370  0.96016  1.0000
  H   H233      1.0  0.08408  0.55148  0.44701  1.0000
  C   C203      1.0  0.29525  0.57699  0.15222  1.0000
  C   C204      1.0  0.12364  0.78348  0.44507  1.0000
  H   H234      1.0  0.25521  0.59617  0.23622  1.0000
  H   H235      1.0  0.22409  0.86183  0.00172  1.0000
  C   C205      1.0  0.13591  0.54620  0.42896  1.0000
  H   H236      1.0  0.13574  0.62313  0.43347  1.0000
  H   H237      1.0  0.13567  0.70314  0.40620  1.0000
  C   C206      1.0  0.07002  0.74320  0.97844  1.0000
  H   H238      1.0  0.18207  0.66089  0.43971  1.0000
  H   H239      1.0  0.07501  0.73769  0.99762  1.0000
  H   H240      1.0  0.07142  0.48628  0.42325  1.0000
  C   C207      1.0  0.22301  0.84508  0.01510  1.0000
  H   H241      1.0  0.28246  0.62668  0.15949  1.0000
  C   C208      1.0  0.24382  0.96084  0.99281  1.0000
  H   H242      1.0  0.03866  0.67722  0.00368  1.0000
  H   H243      1.0  0.19731  0.74656  0.41952  1.0000
  S   S69       1.0  0.00407  0.62146  0.43465  1.0000
  H   H244      1.0  0.27374  0.58117  0.15315  1.0000
  S   S70       1.0  0.99655  0.63524  0.01276  1.0000
  C   C209      1.0  0.22498  0.87227  0.05217  1.0000
  N   N15       1.0  0.17594  0.69575  0.41728  1.0000
  H   H245      1.0  0.07937  0.68042  0.96026  1.0000
  H   H246      1.0  0.23521  0.87654  0.07040  1.0000
  H   H247      1.0  0.22535  0.89030  0.04034  1.0000
  H   H248      1.0  0.21117  0.67966  0.43392  1.0000
  H   H249      1.0  0.20857  0.71137  0.39573  1.0000
  H   H250      1.0  0.07406  0.55534  0.40187  1.0000
  H   H251      1.0  0.25530  0.78422  0.38924  1.0000
  H   H252      1.0  0.27747  0.78356  0.08697  1.0000
  H   H253      1.0  0.30693  0.66043  0.40849  1.0000
  S   S71       1.0  0.32138  0.60648  0.08720  1.0000
  H   H254      1.0  0.21929  0.95138  0.42912  1.0000
  H   H255      1.0  0.18684  0.69161  0.37778  1.0000
  H   H256      1.0  0.26351  0.59671  0.19073  1.0000
  C   C210      1.0  0.29617  0.59626  0.24658  1.0000
  C   C211      1.0  0.32648  0.65963  0.41684  1.0000
  H   H257      1.0  0.07781  0.52823  0.38087  1.0000
  S   S72       1.0  0.25167  0.81175  0.43655  1.0000
  H   H258      1.0  0.09036  0.77982  0.98289  1.0000
  C   C212      1.0  0.08456  0.52991  0.44487  1.0000
  N   N16       1.0  0.04422  0.70139  0.97051  1.0000
  C   C213      1.0  0.27538  0.59553  0.22931  1.0000
  H   H259      1.0  0.17282  0.56637  0.43459  1.0000
  S   S73       1.0  0.24429  0.90937  0.97803  1.0000
  C   C214      1.0  0.04786  0.69605  0.99802  1.0000
  H   H260      1.0  0.29868  0.55712  0.15993  1.0000
  Fe  Fe35      1.0  0.00421  0.54555  0.43699  1.0000
  H   H261      1.0  0.28017  0.82253  0.06118  1.0000
  N   N17       1.0  0.31143  0.59658  0.16592  1.0000
  H   H262      1.0  0.27543  0.84271  0.02125  1.0000
  H   H263      1.0  0.00665  0.68120  0.97181  1.0000
  H   H264      1.0  0.09451  0.48624  0.39777  1.0000
  H   H265      1.0  0.13889  0.65894  0.16451  1.0000
  C   C215      1.0  0.19219  0.67317  0.42532  1.0000
  C   C216      1.0  0.21290  0.81510  0.06214  1.0000
  C   C217      1.0  0.07914  0.76750  0.97017  1.0000
  C   C218      1.0  0.17136  0.54805  0.39813  1.0000
  C   C219      1.0  0.26067  0.81523  0.06530  1.0000
  C   C220      1.0  0.32213  0.59621  0.23784  1.0000
  C   C221      1.0  0.18735  0.73989  0.43646  1.0000
  C   C222      1.0  0.23523  0.78150  0.08613  1.0000
  H   H266      1.0  0.00457  0.71605  0.97478  1.0000
  H   H267      1.0  0.17641  0.72362  0.38655  1.0000
  C   C223      1.0  0.01283  0.46515  0.99324  1.0000
  H   H268      1.0  0.29210  0.59758  0.26676  1.0000
  H   H269      1.0  0.06911  0.69414  0.00322  1.0000
  C   C224      1.0  0.23731  0.82687  0.05538  1.0000
  H   H270      1.0  0.09555  0.76656  0.41938  1.0000
  H   H271      1.0  0.26445  0.87557  0.01837  1.0000
  C   C225      1.0  0.25946  0.79289  0.08045  1.0000
  C   C226      1.0  0.28040  0.59545  0.20324  1.0000
  Fe  Fe36      1.0  0.22653  0.81720  0.95730  1.0000
  C   C227      1.0  0.21198  0.79262  0.07708  1.0000
  S   S74       1.0  0.01441  0.56893  0.40191  1.0000
  C   C228      1.0  0.14880  0.68658  0.41129  1.0000
  N   N18       1.0  0.09298  0.52229  0.41892  1.0000
  H   H272      1.0  0.05325  0.52713  0.40506  1.0000
  H   H273      1.0  0.20165  0.84137  0.01818  1.0000
  H   H274      1.0  0.27671  0.86459  0.04822  1.0000
  N   N19       1.0  0.15314  0.62748  0.14138  1.0000
  C   C229      1.0  0.17286  0.62374  0.12095  1.0000
  C   C230      1.0  0.12643  0.62163  0.13138  1.0000
  C   C231      1.0  0.11566  0.63671  0.11128  1.0000
  C   C232      1.0  0.11066  0.60074  0.14063  1.0000
  C   C233      1.0  0.09066  0.63140  0.10126  1.0000
  C   C234      1.0  0.08575  0.59547  0.13026  1.0000
  C   C235      1.0  0.07581  0.61074  0.11059  1.0000
  H   H275      1.0  0.14725  0.61279  0.17933  1.0000
  H   H276      1.0  0.17172  0.60379  0.11280  1.0000
  H   H277      1.0  0.19339  0.62677  0.12789  1.0000
  H   H278      1.0  0.16996  0.63755  0.10493  1.0000
  H   H279      1.0  0.15187  0.66900  0.13427  1.0000
  H   H280      1.0  0.12673  0.65243  0.10276  1.0000
  H   H281      1.0  0.11720  0.58799  0.15566  1.0000
  H   H282      1.0  0.08291  0.64305  0.08576  1.0000
  H   H283      1.0  0.07415  0.57928  0.13733  1.0000
  H   H284      1.0  0.05667  0.60644  0.10231  1.0000
  H   H285      1.0  0.16236  0.58991  0.15743  1.0000
  H   H286      1.0  0.12904  0.55260  0.44730  1.0000
  C   C236      1.0  0.09884  0.77386  0.43841  1.0000
  H   H287      1.0  0.20390  0.86820  0.05659  1.0000
  C   C237      1.0  0.25522  0.76994  0.40436  1.0000
  H   H288      1.0  0.23461  0.76355  0.09697  1.0000
  C   C238      1.0  0.01541  0.69996  0.96527  1.0000
  C   C239      1.0  0.16111  0.61072  0.16308  1.0000
  H   H289      1.0  0.29993  0.57662  0.13151  1.0000
  C   C240      1.0  0.05477  0.72693  0.96226  1.0000
  C   C241      1.0  0.25336  0.75962  0.44909  1.0000
  H   H290      1.0  0.04994  0.66087  0.96153  1.0000
  H   H291      1.0  0.19746  0.66037  0.40907  1.0000
  H   H292      1.0  0.31191  0.73560  0.98920  1.0000
  H   H293      1.0  0.16401  0.52929  0.36257  1.0000
  C   C242      1.0  0.05777  0.68045  0.95630  1.0000
  C   C243      1.0  0.12001  0.53108  0.41230  1.0000
  C   C244      1.0  0.18738  0.70621  0.39337  1.0000
  C   C245      1.0  0.13104  0.52490  0.38826  1.0000
  C   C246      1.0  0.07375  0.53371  0.40085  1.0000
  Fe  Fe37      1.0  0.00631  0.56134  0.00253  1.0000
  C   C247      1.0  0.09131  0.49352  0.41735  1.0000
  H   H294      1.0  0.12003  0.51388  0.37441  1.0000
  H   H295      1.0  0.30769  0.76384  0.44122  1.0000
  S   S75       1.0  0.01294  0.58156  0.04018  1.0000
  H   H296      1.0  0.24874  0.95331  0.01140  1.0000
  C   C248      1.0  0.17527  0.71495  0.43822  1.0000
  H   H297      1.0  0.10629  0.48416  0.42988  1.0000
  C   C249      1.0  0.15627  0.53342  0.38132  1.0000
  H   H298      1.0  0.19321  0.78341  0.08122  1.0000
  C   C250      1.0  0.16125  0.55432  0.42190  1.0000
  H   H299      1.0  0.19058  0.55529  0.39234  1.0000
  H   H300      1.0  0.13957  0.78367  0.43132  1.0000
  H   H301      1.0  0.03852  0.71135  0.00991  1.0000
  H   H302      1.0  0.13944  0.67595  0.42730  1.0000
  H   H303      1.0  0.31484  0.63825  0.16722  1.0000
  H   H304      1.0  0.31196  0.76698  0.95341  1.0000
  H   H305      1.0  0.02048  0.46239  0.01224  1.0000
  H   H306      1.0  0.05951  0.76595  0.44972  1.0000
  H   H307      1.0  0.06420  0.52286  0.44924  1.0000
  H   H308      1.0  0.08704  0.76941  0.52926  1.0000
  H   H309      1.0  0.22982  0.91643  0.46018  1.0000
  S   S76       1.0  0.23284  0.80901  0.91626  1.0000
  H   H310      1.0  0.02792  0.78905  0.47432  1.0000
  S   S77       1.0  0.24667  0.87037  0.90815  1.0000
  H   H311      1.0  0.05503  0.76734  0.91016  1.0000
  Fe  Fe38      1.0  0.20961  0.84534  0.90902  1.0000
  S   S78       1.0  0.17778  0.84034  0.87850  1.0000
  Fe  Fe39      1.0  0.26939  0.83390  0.91873  1.0000
  S   S79       1.0  0.30487  0.81339  0.90007  1.0000
  Fe  Fe40      1.0  0.02454  0.80422  0.58655  1.0000
  S   S80       1.0  0.05935  0.83228  0.58115  1.0000
  S   S81       1.0  0.02912  0.76260  0.59814  1.0000
  Fe  Fe41      1.0  0.02398  0.80120  0.86723  1.0000
  S   S82       1.0  0.05311  0.82363  0.89240  1.0000
  S   S83       1.0  0.03638  0.77484  0.83556  1.0000
  Fe  Fe42      1.0  0.20995  0.82621  0.52325  1.0000
  S   S84       1.0  0.21227  0.85144  0.48831  1.0000
  S   S85       1.0  0.17296  0.80391  0.53609  1.0000
  Fe  Fe43      1.0  0.27150  0.82574  0.52977  1.0000
  S   S86       1.0  0.27760  0.85114  0.49545  1.0000
  S   S87       1.0  0.30315  0.80434  0.55315  1.0000
  Fe  Fe44      1.0  0.24293  0.87445  0.50975  1.0000
  S   S88       1.0  0.24398  0.91874  0.51417  1.0000
  Fe  Fe45      1.0  0.24660  0.82610  0.47693  1.0000
  H   H312      1.0  0.05279  0.76728  0.53719  1.0000
  S   S89       1.0  0.23860  0.85057  0.54576  1.0000
  S   S90       1.0  0.24241  0.79945  0.51015  1.0000
  C   C251      1.0  0.03424  0.77623  0.49022  1.0000
  C   C252      1.0  0.32441  0.75972  0.45438  1.0000
  C   C253      1.0  0.23873  0.94293  0.49054  1.0000
  Fe  Fe46      1.0  0.01088  0.74508  0.85529  1.0000
  C   C254      1.0  0.30917  0.78898  0.48703  1.0000
  C   C255      1.0  0.09169  0.82435  0.57047  1.0000
  C   C256      1.0  0.10079  0.79870  0.56992  1.0000
  C   C257      1.0  0.12601  0.79300  0.55998  1.0000
  C   C258      1.0  0.14255  0.81280  0.55060  1.0000
  C   C259      1.0  0.13370  0.83855  0.55166  1.0000
  C   C260      1.0  0.10844  0.84428  0.56164  1.0000
  H   H313      1.0  0.08827  0.78319  0.57686  1.0000
  H   H314      1.0  0.13267  0.77301  0.55930  1.0000
  H   H315      1.0  0.14616  0.85388  0.54437  1.0000
  H   H316      1.0  0.10159  0.86419  0.56209  1.0000
  H   H317      1.0  0.06690  0.74516  0.51473  1.0000
  C   C261      1.0  0.17117  0.76960  0.88853  1.0000
  H   H318      1.0  0.99748  0.49748  0.48506  1.0000
  C   C262      1.0  0.09612  0.73199  0.88503  1.0000
  C   C263      1.0  0.02482  0.66413  0.89696  1.0000
  H   H319      1.0  0.15583  0.71966  0.50059  1.0000
  C   C264      1.0  0.14312  0.83606  0.88279  1.0000
  C   C265      1.0  0.13025  0.84299  0.90529  1.0000
  C   C266      1.0  0.10273  0.83913  0.90782  1.0000
  C   C267      1.0  0.08776  0.82802  0.88809  1.0000
  C   C268      1.0  0.10066  0.82094  0.86567  1.0000
  C   C269      1.0  0.12807  0.82524  0.86296  1.0000
  H   H320      1.0  0.14143  0.85161  0.92061  1.0000
  H   H321      1.0  0.09294  0.84496  0.92515  1.0000
  H   H322      1.0  0.08942  0.81259  0.85023  1.0000
  H   H323      1.0  0.13773  0.82006  0.84536  1.0000
  C   C270      1.0  0.18187  0.74769  0.92729  1.0000
  H   H324      1.0  0.19074  0.73088  0.91712  1.0000
  H   H325      1.0  0.23135  0.94035  0.93271  1.0000
  Fe  Fe47      1.0  0.99877  0.78713  0.81570  1.0000
  H   H326      1.0  0.07567  0.81702  0.52118  1.0000
  Fe  Fe48      1.0  0.99959  0.75350  0.56747  1.0000
  H   H327      1.0  0.15252  0.70757  0.92869  1.0000
  H   H328      1.0  0.03398  0.75557  0.48391  1.0000
  H   H329      1.0  0.17827  0.75351  0.87622  1.0000
  C   C271      1.0  0.99948  0.47809  0.47737  1.0000
  C   C272      1.0  0.10761  0.79246  0.48735  1.0000
  C   C273      1.0  0.14946  0.78161  0.92757  1.0000
  H   H330      1.0  0.12808  0.90152  0.53720  1.0000
  H   H331      1.0  0.03961  0.72455  0.92335  1.0000
  C   C274      1.0  0.01239  0.64876  0.91559  1.0000
  C   C275      1.0  0.16379  0.70822  0.46193  1.0000
  N   N20       1.0  0.15983  0.75949  0.91259  1.0000
  H   H332      1.0  0.19777  0.77549  0.45565  1.0000
  H   H333      1.0  0.25536  0.71890  0.45840  1.0000
  H   H334      1.0  0.31439  0.80543  0.49977  1.0000
  C   C276      1.0  0.13800  0.74119  0.90693  1.0000
  C   C277      1.0  0.11647  0.74915  0.89142  1.0000
  H   H335      1.0  0.07998  0.73840  0.87291  1.0000
  H   H336      1.0  0.15682  0.78125  0.87738  1.0000
  H   H337      1.0  0.11224  0.79939  0.50618  1.0000
  C   C278      1.0  0.07818  0.77371  0.45609  1.0000
  H   H338      1.0  0.18809  0.78297  0.89196  1.0000
  H   H339      1.0  0.25175  0.76557  0.46862  1.0000
  S   S91       1.0  0.99993  0.77083  0.88766  1.0000
  C   C279      1.0  0.11668  0.69834  0.91008  1.0000
  H   H340      1.0  0.05392  0.82500  0.49542  1.0000
  C   C280      1.0  0.23132  0.93662  0.46574  1.0000
  C   C281      1.0  0.01215  0.68620  0.88696  1.0000
  H   H341      1.0  0.29107  0.79457  0.47635  1.0000
  H   H342      1.0  0.11517  0.76875  0.88404  1.0000
  H   H343      1.0  0.02785  0.69465  0.49405  1.0000
  H   H344      1.0  0.31809  0.74299  0.46630  1.0000
  H   H345      1.0  0.17763  0.76243  0.49647  1.0000
  S   S92       1.0  0.02879  0.70583  0.86462  1.0000
  C   C282      1.0  0.00219  0.69596  0.52666  1.0000
  H   H346      1.0  0.04435  0.65896  0.89035  1.0000
  N   N21       1.0  0.06054  0.78390  0.50031  1.0000
  C   C283      1.0  0.06717  0.76575  0.52125  1.0000
  C   C284      1.0  0.07352  0.77620  0.94570  1.0000
  H   H347      1.0  0.04143  0.81200  0.52472  1.0000
  H   H348      1.0  0.19816  0.76188  0.93056  1.0000
  H   H349      1.0  0.01863  0.77748  0.50508  1.0000
  H   H350      1.0  0.14733  0.80011  0.47485  1.0000
  C   C285      1.0  0.05784  0.81059  0.51074  1.0000
  C   C286      1.0  0.23406  0.95344  0.94855  1.0000
  H   H351      1.0  0.02230  0.63184  0.92327  1.0000
  H   H352      1.0  0.11666  0.67855  0.91722  1.0000
  H   H353      1.0  0.13319  0.79184  0.91758  1.0000
  H   H354      1.0  0.08044  0.69346  0.88906  1.0000
  C   C287      1.0  0.13730  0.71528  0.91645  1.0000
  C   C288      1.0  0.09626  0.70663  0.89426  1.0000
  C   C289      1.0  0.16367  0.95744  0.49179  1.0000
  C   C290      1.0  0.08191  0.78335  0.48112  1.0000
  N   N22       1.0  0.07022  0.79703  0.66435  1.0000
  C   C291      1.0  0.04748  0.80960  0.65155  1.0000
  C   C292      1.0  0.09474  0.81092  0.65689  1.0000
  C   C293      1.0  0.07220  0.77004  0.65450  1.0000
  C   C294      1.0  0.06657  0.79837  0.69222  1.0000
  C   C295      1.0  0.06388  0.77586  0.70776  1.0000
  C   C296      1.0  0.06513  0.82285  0.70460  1.0000
  C   C297      1.0  0.06044  0.77793  0.73402  1.0000
  C   C298      1.0  0.06139  0.82466  0.73083  1.0000
  C   C299      1.0  0.05912  0.80224  0.74551  1.0000
  H   H355      1.0  0.02871  0.79957  0.65653  1.0000
  H   H356      1.0  0.04519  0.83039  0.65673  1.0000
  H   H357      1.0  0.04953  0.80904  0.63055  1.0000
  H   H358      1.0  0.11223  0.80277  0.66696  1.0000
  H   H359      1.0  0.09378  0.83205  0.66113  1.0000
  H   H360      1.0  0.09845  0.80950  0.63607  1.0000
  H   H361      1.0  0.05360  0.75892  0.65794  1.0000
  H   H362      1.0  0.07544  0.76974  0.63361  1.0000
  H   H363      1.0  0.08900  0.75936  0.66328  1.0000
  H   H364      1.0  0.06363  0.75641  0.70011  1.0000
  H   H365      1.0  0.06638  0.84081  0.69402  1.0000
  H   H366      1.0  0.05773  0.76059  0.74547  1.0000
  H   H367      1.0  0.05968  0.84350  0.73986  1.0000
  H   H368      1.0  0.05542  0.80370  0.76574  1.0000
  H   H369      1.0  0.19813  0.94771  0.53038  1.0000
  C   C300      1.0  0.18792  0.75679  0.45724  1.0000
  C   C301      1.0  0.17666  0.74945  0.48027  1.0000
  C   C302      1.0  0.16441  0.72531  0.48255  1.0000
  H   H370      1.0  0.15489  0.68936  0.46490  1.0000
  S   S93       1.0  0.02973  0.56989  0.46254  1.0000
  H   H371      1.0  0.30354  0.77242  0.49947  1.0000
  C   C303      1.0  0.12800  0.79275  0.46951  1.0000
  H   H372      1.0  0.08003  0.79525  0.93941  1.0000
  H   H373      1.0  0.19274  0.92656  0.55633  1.0000
  C   C304      1.0  0.05925  0.76047  0.92923  1.0000
  H   H374      1.0  0.99939  0.73027  0.71383  1.0000
  S   S94       1.0  0.01165  0.72817  0.53399  1.0000
  N   N23       1.0  0.16171  0.92565  0.52810  1.0000
  H   H375      1.0  0.16511  0.79639  0.93138  1.0000
  C   C305      1.0  0.05025  0.73607  0.93715  1.0000
  C   C306      1.0  0.99435  0.78845  0.74448  1.0000
  H   H376      1.0  0.05521  0.68268  0.93550  1.0000
  H   H377      1.0  0.01593  0.64962  0.48217  1.0000
  C   C307      1.0  0.14341  0.91356  0.54675  1.0000
  C   C308      1.0  0.99689  0.76160  0.74100  1.0000
  C   C309      1.0  0.12083  0.94835  0.51021  1.0000
  H   H378      1.0  0.14161  0.77496  0.94620  1.0000
  H   H379      1.0  0.99878  0.74898  0.75734  1.0000
  H   H380      1.0  0.09783  0.52157  0.45962  1.0000
  C   C310      1.0  0.18234  0.93965  0.54272  1.0000
  H   H381      1.0  0.18490  0.89041  0.52641  1.0000
  C   C311      1.0  0.00672  0.65857  0.49845  1.0000
  H   H382      1.0  0.13349  0.92851  0.55868  1.0000
  H   H383      1.0  0.17545  0.74140  0.94656  1.0000
  H   H384      1.0  0.17375  0.95618  0.55353  1.0000
  H   H385      1.0  0.01082  0.70114  0.94473  1.0000
  C   C312      1.0  0.01352  0.68410  0.50528  1.0000
  H   H386      1.0  0.31182  0.65796  0.45490  1.0000
  H   H387      1.0  0.15407  0.90030  0.56003  1.0000
  H   H388      1.0  0.10762  0.93884  0.52336  1.0000
  C   C313      1.0  0.14858  0.94381  0.51021  1.0000
  H   H389      1.0  0.18950  0.91156  0.50009  1.0000
  C   C314      1.0  0.17439  0.90430  0.51365  1.0000
  C   C315      1.0  0.00438  0.47478  0.45146  1.0000
  H   H390      1.0  0.18476  0.95488  0.49047  1.0000
  H   H391      1.0  0.15961  0.89314  0.50244  1.0000
  S   S95       1.0  0.99682  0.79510  0.55468  1.0000
  Fe  Fe49      1.0  0.99405  0.59554  0.46738  1.0000
  C   C316      1.0  0.99487  0.76708  0.69465  1.0000
  S   S96       1.0  0.99575  0.75253  0.66390  1.0000
  C   C317      1.0  0.99725  0.75104  0.71625  1.0000
  S   S97       1.0  0.99465  0.80319  0.77512  1.0000
  S   S98       1.0  0.20148  0.85247  0.95017  1.0000
  Fe  Fe50      1.0  0.23984  0.87491  0.95049  1.0000
  H   H392      1.0  0.47358  0.21331  0.04621  1.0000
  Fe  Fe51      1.0  0.45869  0.13974  0.07282  1.0000
  S   S99       1.0  0.42118  0.13866  0.04798  1.0000
  S   S100      1.0  0.46495  0.16823  0.10498  1.0000
  Fe  Fe52      1.0  0.47643  0.15965  0.31447  1.0000
  S   S101      1.0  0.47794  0.11721  0.32471  1.0000
  S   S102      1.0  0.47510  0.17609  0.27384  1.0000
  Fe  Fe53      1.0  0.46853  0.17566  0.37052  1.0000
  S   S103      1.0  0.46912  0.13394  0.38325  1.0000
  S   S104      1.0  0.45888  0.20090  0.40473  1.0000
  Fe  Fe54      1.0  0.44273  0.12586  0.35002  1.0000
  S   S105      1.0  0.40426  0.10200  0.34806  1.0000
  S   S106      1.0  0.44033  0.16769  0.33847  1.0000
  C   C318      1.0  0.38922  0.12396  0.04958  1.0000
  C   C319      1.0  0.38156  0.10747  0.06942  1.0000
  C   C320      1.0  0.35601  0.09631  0.06959  1.0000
  C   C321      1.0  0.33738  0.21884  0.95703  1.0000
  C   C322      1.0  0.34533  0.11811  0.03028  1.0000
  C   C323      1.0  0.37097  0.12900  0.02996  1.0000
  H   H393      1.0  0.39533  0.10328  0.08459  1.0000
  H   H394      1.0  0.34613  0.05893  0.01399  1.0000
  C   C324      1.0  0.46628  0.24131  0.43748  1.0000
  H   H395      1.0  0.37682  0.14140  0.01436  1.0000
  C   C325      1.0  0.48668  0.13883  0.19461  1.0000
  C   C326      1.0  0.47894  0.16067  0.24371  1.0000
  C   C327      1.0  0.49078  0.13623  0.24107  1.0000
  C   C328      1.0  0.49468  0.12547  0.21669  1.0000
  H   H396      1.0  0.49750  0.12585  0.25774  1.0000
  H   H397      1.0  0.50422  0.10673  0.21491  1.0000
  C   C329      1.0  0.33765  0.10169  0.05016  1.0000
  C   C330      1.0  0.35127  0.12440  0.40289  1.0000
  C   C331      1.0  0.37453  0.12228  0.38817  1.0000
  C   C332      1.0  0.37504  0.10635  0.36668  1.0000
  C   C333      1.0  0.35176  0.09297  0.35994  1.0000
  C   C334      1.0  0.55950  0.17304  0.97901  1.0000
  H   H398      1.0  0.35136  0.13655  0.41962  1.0000
  H   H399      1.0  0.39219  0.13271  0.39368  1.0000
  H   H400      1.0  0.35180  0.08067  0.34332  1.0000
  H   H401      1.0  0.50598  0.19967  0.44526  1.0000
  C   C335      1.0  0.49378  0.27915  0.42960  1.0000
  C   C336      1.0  0.47285  0.23098  0.41364  1.0000
  C   C337      1.0  0.54564  0.21467  0.96015  1.0000
  H   H402      1.0  0.54009  0.16741  0.18196  1.0000
  C   C338      1.0  0.38344  0.98988  0.01761  1.0000
  C   C339      1.0  0.49505  0.43544  0.98342  1.0000
  H   H403      1.0  0.48609  0.41672  0.98708  1.0000
  C   C340      1.0  0.52184  0.25921  0.04239  1.0000
  C   C341      1.0  0.51267  0.27318  0.02107  1.0000
  H   H404      1.0  0.53975  0.26528  0.05188  1.0000
  H   H405      1.0  0.52343  0.28995  0.01423  1.0000
  S   S107      1.0  0.47622  0.28227  0.98248  1.0000
  H   H406      1.0  0.45710  0.23813  0.00915  1.0000
  Fe  Fe55      1.0  0.49067  0.13705  0.12244  1.0000
  S   S108      1.0  0.48252  0.10760  0.09121  1.0000
  S   S109      1.0  0.49267  0.12429  0.16436  1.0000
  Fe  Fe56      1.0  0.50196  0.18011  0.08411  1.0000
  S   S110      1.0  0.49421  0.15426  0.05110  1.0000
  S   S111      1.0  0.51934  0.22036  0.07840  1.0000
  Fe  Fe57      1.0  0.51859  0.12442  0.07170  1.0000
  S   S112      1.0  0.54921  0.10491  0.04580  1.0000
  S   S113      1.0  0.52822  0.15122  0.10382  1.0000
  Fe  Fe58      1.0  0.50429  0.12993  0.35728  1.0000
  S   S114      1.0  0.53979  0.10716  0.37341  1.0000
  S   S115      1.0  0.50468  0.17210  0.34569  1.0000
  H   H407      1.0  0.54801  0.19914  0.40122  1.0000
  C   C342      1.0  0.62225  0.09470  0.07807  1.0000
  C   C343      1.0  0.59510  0.10028  0.07495  1.0000
  C   C344      1.0  0.58323  0.09789  0.05108  1.0000
  C   C345      1.0  0.59894  0.08998  0.03042  1.0000
  C   C346      1.0  0.62616  0.08481  0.03346  1.0000
  H   H408      1.0  0.63112  0.09643  0.09667  1.0000
  H   H409      1.0  0.58330  0.10620  0.09106  1.0000
  H   H410      1.0  0.58996  0.08803  0.01188  1.0000
  C   C347      1.0  0.37836  0.22149  0.98202  1.0000
  C   C348      1.0  0.47408  0.16289  0.19733  1.0000
  C   C349      1.0  0.47052  0.17383  0.22167  1.0000
  H   H411      1.0  0.46690  0.17299  0.18073  1.0000
  H   H412      1.0  0.46121  0.19267  0.22344  1.0000
  C   C350      1.0  0.62882  0.12314  0.38836  1.0000
  C   C351      1.0  0.61744  0.09904  0.39416  1.0000
  C   C352      1.0  0.59032  0.09453  0.38923  1.0000
  C   C353      1.0  0.57417  0.11387  0.37826  1.0000
  C   C354      1.0  0.58570  0.13781  0.37204  1.0000
  C   C355      1.0  0.61272  0.14242  0.37723  1.0000
  H   H413      1.0  0.62943  0.08396  0.40268  1.0000
  H   H414      1.0  0.58178  0.07588  0.39403  1.0000
  H   H415      1.0  0.57391  0.15274  0.36307  1.0000
  H   H416      1.0  0.62125  0.16109  0.37250  1.0000
  H   H417      1.0  0.33051  0.98553  0.96469  1.0000
  C   C356      1.0  0.50063  0.26868  0.40587  1.0000
  C   C357      1.0  0.49032  0.24458  0.39794  1.0000
  H   H418      1.0  0.51374  0.27941  0.39347  1.0000
  H   H419      1.0  0.49547  0.23682  0.37953  1.0000
  Fe  Fe59      1.0  0.49325  0.31424  0.95776  1.0000
  C   C358      1.0  0.52704  0.19397  0.44806  1.0000
  C   C359      1.0  0.48917  0.26572  0.00913  1.0000
  C   C360      1.0  0.47527  0.24404  0.01830  1.0000
  C   C361      1.0  0.48462  0.22989  0.03928  1.0000
  C   C362      1.0  0.50780  0.23753  0.05153  1.0000
  H   H420      1.0  0.39728  0.23070  0.98570  1.0000
  H   H421      1.0  0.56480  0.26083  0.97338  1.0000
  N   N24       1.0  0.40361  0.12873  0.26663  1.0000
  C   C363      1.0  0.40284  0.15693  0.27254  1.0000
  C   C364      1.0  0.37944  0.11626  0.27694  1.0000
  C   C365      1.0  0.42654  0.11744  0.28035  1.0000
  C   C366      1.0  0.40485  0.12508  0.23877  1.0000
  C   C367      1.0  0.38447  0.13503  0.22295  1.0000
  C   C368      1.0  0.42612  0.11209  0.22649  1.0000
  C   C369      1.0  0.38553  0.13250  0.19654  1.0000
  C   C370      1.0  0.42694  0.10964  0.20007  1.0000
  H   H422      1.0  0.64915  0.00541  0.05655  1.0000
  H   H423      1.0  0.38472  0.16656  0.26530  1.0000
  H   H424      1.0  0.40338  0.16052  0.29337  1.0000
  H   H425      1.0  0.42013  0.16716  0.26406  1.0000
  H   H426      1.0  0.44365  0.10015  0.19104  1.0000
  H   H427      1.0  0.60823  0.14560  0.04440  1.0000
  H   H428      1.0  0.40125  0.24755  0.43794  1.0000
  H   H429      1.0  0.44542  0.12665  0.27436  1.0000
  H   H430      1.0  0.42497  0.12063  0.30116  1.0000
  H   H431      1.0  0.42794  0.09604  0.27764  1.0000
  H   H432      1.0  0.36769  0.14511  0.23092  1.0000
  H   H433      1.0  0.44267  0.10401  0.23676  1.0000
  H   H434      1.0  0.38284  0.19363  0.01232  1.0000
  C   C371      1.0  0.54985  0.26157  0.95791  1.0000
  H   H435      1.0  0.58286  0.19388  0.95271  1.0000
  C   C372      1.0  0.36322  0.00840  0.01704  1.0000
  H   H436      1.0  0.35040  0.08354  0.08500  1.0000
  H   H437      1.0  0.49432  0.15954  0.42880  1.0000
  H   H438      1.0  0.34920  0.00628  0.43387  1.0000
  C   C373      1.0  0.56436  0.19416  0.96288  1.0000
  C   C374      1.0  0.60669  0.16581  0.03906  1.0000
  H   H439      1.0  0.63793  0.07899  0.01731  1.0000
  C   C375      1.0  0.58194  0.17757  0.04163  1.0000
  C   C376      1.0  0.59974  0.21773  0.02531  1.0000
  C   C377      1.0  0.57848  0.20351  0.03483  1.0000
  S   S116      1.0  0.50640  0.30979  0.43864  1.0000
  C   C378      1.0  0.53038  0.22320  0.23019  1.0000
  H   H440      1.0  0.57250  0.21196  0.15189  1.0000
  H   H441      1.0  0.36322  0.02309  0.03172  1.0000
  H   H442      1.0  0.40786  0.11831  0.16463  1.0000
  C   C379      1.0  0.59419  0.12912  0.44593  1.0000
  C   C380      1.0  0.63160  0.99663  0.00938  1.0000
  H   H443      1.0  0.56530  0.16642  0.04885  1.0000
  H   H444      1.0  0.37897  0.09517  0.27223  1.0000
  H   H445      1.0  0.55920  0.21251  0.03684  1.0000
  H   H446      1.0  0.51421  0.18965  0.39898  1.0000
  C   C381      1.0  0.56198  0.16361  0.43661  1.0000
  H   H447      1.0  0.50334  0.20455  0.12812  1.0000
  C   C382      1.0  0.47684  0.26520  0.44552  1.0000
  H   H448      1.0  0.50735  0.17957  0.15151  1.0000
  C   C383      1.0  0.32954  0.19784  0.97299  1.0000
  C   C384      1.0  0.62466  0.20613  0.02273  1.0000
  C   C385      1.0  0.62893  0.17975  0.02984  1.0000
  C   C386      1.0  0.53614  0.17172  0.99292  1.0000
  C   C387      1.0  0.53830  0.18372  0.19477  1.0000
  C   C388      1.0  0.65329  0.14547  0.00887  1.0000
  H   H449      1.0  0.36991  0.14050  0.18479  1.0000
  H   H450      1.0  0.64903  0.13995  0.05906  1.0000
  H   H451      1.0  0.49947  0.19060  0.00189  1.0000
  H   H452      1.0  0.55286  0.20831  0.12358  1.0000
  C   C389      1.0  0.34340  0.00804  0.99795  1.0000
  H   H453      1.0  0.33940  0.17310  0.00472  1.0000
  H   H454      1.0  0.51791  0.13616  0.41855  1.0000
  H   H455      1.0  0.47208  0.45542  0.01191  1.0000
  H   H456      1.0  0.54554  0.25343  0.15849  1.0000
  H   H457      1.0  0.65297  0.03374  0.03737  1.0000
  C   C390      1.0  0.36510  0.96918  0.98056  1.0000
  C   C391      1.0  0.48721  0.45742  0.99754  1.0000
  H   H458      1.0  0.37851  0.11785  0.29806  1.0000
  H   H459      1.0  0.52662  0.23825  0.24411  1.0000
  H   H460      1.0  0.33161  0.12226  0.01507  1.0000
  H   H461      1.0  0.53580  0.19345  0.25852  1.0000
  H   H462      1.0  0.55517  0.18221  0.14540  1.0000
  C   C392      1.0  0.37025  0.20067  0.99708  1.0000
  C   C393      1.0  0.55379  0.20373  0.14427  1.0000
  H   H463      1.0  0.59684  0.23792  0.02006  1.0000
  N   N25       1.0  0.53052  0.21419  0.15808  1.0000
  H   H464      1.0  0.52734  0.24518  0.13043  1.0000
  H   H465      1.0  0.34746  0.05655  0.98000  1.0000
  C   C394      1.0  0.51463  0.43779  0.96484  1.0000
  H   H466      1.0  0.53035  0.26555  0.96686  1.0000
  H   H467      1.0  0.53977  0.16699  0.39065  1.0000
  H   H468      1.0  0.50974  0.25092  0.15900  1.0000
  H   H469      1.0  0.52456  0.24876  0.19925  1.0000
  C   C395      1.0  0.38441  0.97033  0.99938  1.0000
  C   C396      1.0  0.53572  0.19799  0.23840  1.0000
  N   N26       1.0  0.65499  0.16674  0.02774  1.0000
  H   H470      1.0  0.42716  0.39563  0.95546  1.0000
  C   C397      1.0  0.36216  0.23060  0.96238  1.0000
  H   H471      1.0  0.48851  0.20811  0.15880  1.0000
  H   H472      1.0  0.53859  0.21205  0.44491  1.0000
  C   C398      1.0  0.51456  0.15191  0.43272  1.0000
  H   H473      1.0  0.54329  0.15860  0.22720  1.0000
  C   C399      1.0  0.53313  0.20924  0.18567  1.0000
  C   C400      1.0  0.53991  0.17836  0.22072  1.0000
  H   H474      1.0  0.50710  0.22765  0.97384  1.0000
  H   H475      1.0  0.53249  0.15527  0.00541  1.0000
  C   C401      1.0  0.52915  0.22892  0.20423  1.0000
  H   H476      1.0  0.36104  0.12524  0.26953  1.0000
  C   C402      1.0  0.52826  0.24221  0.15141  1.0000
  C   C403      1.0  0.50643  0.20101  0.14872  1.0000
  C   C404      1.0  0.32835  0.09543  0.37443  1.0000
  C   C405      1.0  0.63802  0.08722  0.05732  1.0000
  H   H477      1.0  0.57391  0.15754  0.98089  1.0000
  C   C406      1.0  0.52218  0.21277  0.97479  1.0000
  H   H478      1.0  0.64025  0.21824  0.01525  1.0000
  H   H479      1.0  0.33290  0.99337  0.40627  1.0000
  C   C407      1.0  0.40681  0.11995  0.18512  1.0000
  H   H480      1.0  0.62283  0.01647  0.00789  1.0000
  C   C408      1.0  0.51758  0.19160  0.99090  1.0000
  H   H481      1.0  0.33906  0.05011  0.41500  1.0000
  C   C409      1.0  0.34482  0.98767  0.97975  1.0000
  C   C410      1.0  0.56826  0.13699  0.44091  1.0000
  C   C411      1.0  0.53426  0.18260  0.40426  1.0000
  C   C412      1.0  0.34583  0.18903  0.99267  1.0000
  S   S117      1.0  0.53364  0.33267  0.95419  1.0000
  H   H482      1.0  0.64931  0.15318  0.98948  1.0000
  C   C413      1.0  0.33431  0.05434  0.99678  1.0000
  H   H483      1.0  0.55370  0.12170  0.43963  1.0000
  H   H484      1.0  0.62915  0.98754  0.99041  1.0000
  H   H485      1.0  0.45290  0.23080  0.44978  1.0000
  N   N27       1.0  0.53489  0.17266  0.43063  1.0000
  H   H486      1.0  0.63741  0.13140  0.01341  1.0000
  H   H487      1.0  0.61943  0.98535  0.02315  1.0000
  C   C414      1.0  0.32971  0.00006  0.42612  1.0000
  H   H488      1.0  0.39848  0.99074  0.03227  1.0000
  H   H489      1.0  0.58017  0.20195  0.43334  1.0000
  C   C415      1.0  0.58330  0.18156  0.43725  1.0000
  H   H490      1.0  0.63482  0.14075  0.44915  1.0000
  H   H491      1.0  0.59869  0.10864  0.44836  1.0000
  C   C416      1.0  0.60920  0.17340  0.44204  1.0000
  H   H492      1.0  0.62529  0.18726  0.44170  1.0000
  C   C417      1.0  0.61462  0.14722  0.44637  1.0000
  C   C418      1.0  0.32803  0.11095  0.39626  1.0000
  H   H493      1.0  0.52126  0.46149  0.43540  1.0000
  N   N28       1.0  0.65967  0.99755  0.01754  1.0000
  H   H494      1.0  0.36914  0.24709  0.95153  1.0000
  S   S118      1.0  0.51067  0.35814  0.90118  1.0000
  Fe  Fe60      1.0  0.47173  0.33862  0.90924  1.0000
  S   S119      1.0  0.43733  0.34620  0.88203  1.0000
  Fe  Fe61      1.0  0.46377  0.32487  0.52545  1.0000
  S   S120      1.0  0.46094  0.34798  0.48912  1.0000
  S   S121      1.0  0.43242  0.30095  0.54652  1.0000
  Fe  Fe62      1.0  0.49776  0.32613  0.47764  1.0000
  C   C419      1.0  0.62879  0.35682  0.85209  1.0000
  Fe  Fe63      1.0  0.48960  0.37611  0.50739  1.0000
  S   S122      1.0  0.48448  0.42007  0.51248  1.0000
  S   S123      1.0  0.49876  0.30115  0.51246  1.0000
  S   S124      1.0  0.48979  0.35421  0.54457  1.0000
  H   H495      1.0  0.55341  0.37637  0.53895  1.0000
  H   H496      1.0  0.46706  0.42732  0.90441  1.0000
  H   H497      1.0  0.36780  0.29096  0.91987  1.0000
  H   H498      1.0  0.59892  0.36701  0.92969  1.0000
  H   H499      1.0  0.39392  0.42042  0.89777  1.0000
  C   C420      1.0  0.34590  0.32049  0.56700  1.0000
  C   C421      1.0  0.35634  0.29572  0.57159  1.0000
  C   C422      1.0  0.38291  0.29023  0.56543  1.0000
  C   C423      1.0  0.39925  0.30923  0.55425  1.0000
  C   C424      1.0  0.38874  0.33392  0.54950  1.0000
  C   C425      1.0  0.36230  0.33954  0.55605  1.0000
  H   H500      1.0  0.34407  0.28092  0.58021  1.0000
  H   H501      1.0  0.39082  0.27106  0.56918  1.0000
  H   H502      1.0  0.40101  0.34876  0.54092  1.0000
  H   H503      1.0  0.35449  0.35880  0.55251  1.0000
  C   C426      1.0  0.40566  0.33113  0.88347  1.0000
  C   C427      1.0  0.39850  0.31468  0.90349  1.0000
  C   C428      1.0  0.37306  0.30346  0.90418  1.0000
  C   C429      1.0  0.35446  0.30834  0.88484  1.0000
  C   C430      1.0  0.36161  0.32481  0.86482  1.0000
  C   C431      1.0  0.38702  0.33620  0.86422  1.0000
  H   H504      1.0  0.41253  0.31065  0.91849  1.0000
  C   C432      1.0  0.59693  0.41803  0.91747  1.0000
  H   H505      1.0  0.34756  0.32883  0.84984  1.0000
  H   H506      1.0  0.39232  0.34891  0.84866  1.0000
  H   H507      1.0  0.38174  0.43953  0.93551  1.0000
  H   H508      1.0  0.52944  0.18798  0.46823  1.0000
  H   H509      1.0  0.36549  0.29232  0.51366  1.0000
  S   S125      1.0  0.49196  0.30077  0.91727  1.0000
  Fe  Fe64      1.0  0.53101  0.32125  0.91312  1.0000
  S   S126      1.0  0.56256  0.30025  0.88959  1.0000
  Fe  Fe65      1.0  0.52462  0.33223  0.52903  1.0000
  S   S127      1.0  0.52620  0.35592  0.49325  1.0000
  S   S128      1.0  0.55705  0.32294  0.55785  1.0000
  C   C433      1.0  0.50478  0.44288  0.46857  1.0000
  H   H510      1.0  0.57212  0.45686  0.52881  1.0000
  C   C434      1.0  0.63492  0.30770  0.57112  1.0000
  C   C435      1.0  0.60733  0.31067  0.57371  1.0000
  C   C436      1.0  0.59157  0.31859  0.55308  1.0000
  C   C437      1.0  0.60375  0.32361  0.52976  1.0000
  C   C438      1.0  0.63140  0.32100  0.52726  1.0000
  H   H511      1.0  0.35120  0.25257  0.53692  1.0000
  H   H512      1.0  0.59819  0.30700  0.59191  1.0000
  H   H513      1.0  0.59195  0.32989  0.51375  1.0000
  H   H514      1.0  0.64066  0.32536  0.50925  1.0000
  C   C439      1.0  0.59779  0.30164  0.88929  1.0000
  C   C440      1.0  0.61165  0.28993  0.86916  1.0000
  C   C441      1.0  0.63946  0.29179  0.86740  1.0000
  H   H515      1.0  0.65070  0.32740  0.92045  1.0000
  C   C442      1.0  0.61653  0.42553  0.52600  1.0000
  C   C443      1.0  0.61220  0.31415  0.90831  1.0000
  H   H516      1.0  0.60079  0.27985  0.85448  1.0000
  C   C444      1.0  0.35824  0.26070  0.48694  1.0000
  C   C445      1.0  0.65917  0.38571  0.87311  1.0000
  H   H517      1.0  0.60206  0.32195  0.92460  1.0000
  H   H518      1.0  0.57050  0.39328  0.49689  1.0000
  C   C446      1.0  0.63988  0.31670  0.90617  1.0000
  H   H519      1.0  0.65827  0.43244  0.52094  1.0000
  H   H520      1.0  0.35492  0.22211  0.52091  1.0000
  H   H521      1.0  0.39634  0.39781  0.93867  1.0000
  H   H522      1.0  0.52613  0.21993  0.91351  1.0000
  H   H523      1.0  0.58891  0.35748  0.86443  1.0000
  N   N29       1.0  0.56834  0.41496  0.53168  1.0000
  C   C447      1.0  0.37224  0.28230  0.49691  1.0000
  C   C448      1.0  0.52798  0.23850  0.92415  1.0000
  H   H524      1.0  0.47162  0.27299  0.46389  1.0000
  C   C449      1.0  0.63214  0.38349  0.55604  1.0000
  H   H525      1.0  0.34407  0.21027  0.90752  1.0000
  H   H526      1.0  0.52902  0.40132  0.54073  1.0000
  C   C450      1.0  0.55010  0.39684  0.54496  1.0000
  C   C451      1.0  0.60803  0.36655  0.86675  1.0000
  H   H527      1.0  0.46013  0.39340  0.90636  1.0000
  H   H528      1.0  0.35210  0.24400  0.91240  1.0000
  H   H529      1.0  0.42164  0.37718  0.92694  1.0000
  H   H530      1.0  0.50925  0.42341  0.46211  1.0000
  C   C452      1.0  0.64338  0.42030  0.52981  1.0000
  H   H531      1.0  0.61147  0.44181  0.51393  1.0000
  H   H532      1.0  0.56532  0.44473  0.56014  1.0000
  H   H533      1.0  0.60374  0.43491  0.90596  1.0000
  H   H534      1.0  0.42284  0.43534  0.88432  1.0000
  H   H535      1.0  0.55841  0.38668  0.87474  1.0000
  H   H536      1.0  0.33779  0.29679  0.69103  1.0000
  C   C453      1.0  0.39869  0.45120  0.94056  1.0000
  C   C454      1.0  0.45750  0.41224  0.91645  1.0000
  H   H537      1.0  0.64145  0.24226  0.50168  1.0000
  H   H538      1.0  0.57432  0.35692  0.90708  1.0000
  H   H539      1.0  0.57956  0.42477  0.92875  1.0000
  H   H540      1.0  0.40601  0.30770  0.49386  1.0000
  C   C455      1.0  0.63849  0.39586  0.88767  1.0000
  H   H541      1.0  0.54213  0.41422  0.49936  1.0000
  H   H542      1.0  0.46625  0.45547  0.93811  1.0000
  H   H543      1.0  0.57305  0.41832  0.87103  1.0000
  C   C456      1.0  0.65115  0.39923  0.54471  1.0000
  H   H544      1.0  0.50852  0.24261  0.93314  1.0000
  H   H545      1.0  0.55235  0.39799  0.56592  1.0000
  H   H546      1.0  0.61238  0.41293  0.93168  1.0000
  H   H547      1.0  0.55083  0.41147  0.89684  1.0000
  H   H548      1.0  0.33335  0.29373  0.73708  1.0000
  H   H549      1.0  0.57373  0.42778  0.49281  1.0000
  C   C457      1.0  0.34117  0.23872  0.52395  1.0000
  H   H550      1.0  0.53977  0.44578  0.53631  1.0000
  H   H551      1.0  0.65769  0.27140  0.51195  1.0000
  C   C458      1.0  0.58200  0.37383  0.91795  1.0000
  C   C459      1.0  0.65370  0.30576  0.88561  1.0000
  H   H552      1.0  0.55435  0.27874  0.94573  1.0000
  C   C460      1.0  0.42475  0.44304  0.93443  1.0000
  H   H553      1.0  0.64974  0.28336  0.85141  1.0000
  C   C461      1.0  0.61219  0.38650  0.88492  1.0000
  C   C462      1.0  0.56120  0.44173  0.53961  1.0000
  H   H554      1.0  0.33036  0.21330  0.48200  1.0000
  C   C463      1.0  0.59659  0.40974  0.53707  1.0000
  C   C464      1.0  0.56721  0.40330  0.88518  1.0000
  C   C465      1.0  0.36952  0.24819  0.46541  1.0000
  H   H555      1.0  0.56610  0.37973  0.93124  1.0000
  N   N30       1.0  0.42915  0.41810  0.92103  1.0000
  H   H556      1.0  0.64378  0.41056  0.90133  1.0000
  H   H557      1.0  0.65856  0.26284  0.47943  1.0000
  C   C466      1.0  0.49239  0.44651  0.49201  1.0000
  C   C467      1.0  0.41573  0.41870  0.89600  1.0000
  C   C468      1.0  0.39559  0.29125  0.48573  1.0000
  H   H558      1.0  0.59172  0.37521  0.56147  1.0000
  H   H559      1.0  0.64678  0.30172  0.58721  1.0000
  H   H560      1.0  0.41941  0.40051  0.88504  1.0000
  H   H561      1.0  0.32881  0.26958  0.94357  1.0000
  H   H562      1.0  0.46866  0.41062  0.93460  1.0000
  H   H563      1.0  0.63830  0.36693  0.56741  1.0000
  N   N31       1.0  0.49243  0.27494  0.59647  1.0000
  C   C469      1.0  0.49203  0.30377  0.59567  1.0000
  C   C470      1.0  0.49772  0.26505  0.57052  1.0000
  C   C471      1.0  0.46554  0.26606  0.60383  1.0000
  C   C472      1.0  0.51349  0.26605  0.61400  1.0000
  C   C473      1.0  0.50823  0.25145  0.63641  1.0000
  C   C474      1.0  0.54035  0.27210  0.60893  1.0000
  C   C475      1.0  0.52873  0.24344  0.65249  1.0000
  C   C476      1.0  0.56066  0.26400  0.62509  1.0000
  C   C477      1.0  0.55487  0.24969  0.64683  1.0000
  H   H564      1.0  0.51073  0.31203  0.58807  1.0000
  H   H565      1.0  0.47591  0.31120  0.58317  1.0000
  H   H566      1.0  0.48901  0.31210  0.61492  1.0000
  H   H567      1.0  0.51589  0.27366  0.56207  1.0000
  H   H568      1.0  0.48132  0.26993  0.55720  1.0000
  H   H569      1.0  0.50011  0.24355  0.57052  1.0000
  H   H570      1.0  0.45957  0.27399  0.62259  1.0000
  H   H571      1.0  0.45027  0.27287  0.59007  1.0000
  H   H572      1.0  0.46424  0.24446  0.60419  1.0000
  H   H573      1.0  0.48849  0.24594  0.64199  1.0000
  H   H574      1.0  0.54589  0.28322  0.59237  1.0000
  H   H575      1.0  0.52434  0.23232  0.66948  1.0000
  H   H576      1.0  0.58101  0.26892  0.62070  1.0000
  H   H577      1.0  0.57070  0.24346  0.65933  1.0000
  C   C478      1.0  0.60525  0.38854  0.55239  1.0000
  H   H578      1.0  0.53121  0.25437  0.91002  1.0000
  C   C479      1.0  0.33565  0.22970  0.91206  1.0000
  H   H579      1.0  0.35357  0.31977  0.65679  1.0000
  H   H580      1.0  0.59245  0.23627  0.94155  1.0000
  C   C480      1.0  0.64716  0.31304  0.54790  1.0000
  H   H581      1.0  0.36080  0.23123  0.45677  1.0000
  N   N32       1.0  0.59010  0.39548  0.90112  1.0000
  C   C481      1.0  0.56353  0.41246  0.50403  1.0000
  C   C482      1.0  0.65433  0.36624  0.85540  1.0000
  C   C483      1.0  0.57505  0.23602  0.92863  1.0000
  H   H582      1.0  0.62530  0.34102  0.83892  1.0000
  H   H583      1.0  0.57742  0.25309  0.91575  1.0000
  H   H584      1.0  0.57599  0.21851  0.91629  1.0000
  C   C484      1.0  0.39290  0.25734  0.45435  1.0000
  C   C485      1.0  0.65934  0.25452  0.49886  1.0000
  H   H585      1.0  0.34185  0.33714  0.62974  1.0000
  C   C486      1.0  0.41807  0.39634  0.93621  1.0000
  C   C487      1.0  0.40581  0.27891  0.46440  1.0000
  H   H586      1.0  0.42390  0.28596  0.45574  1.0000
  S   S129      1.0  0.47083  0.35144  0.94989  1.0000
  H   H587      1.0  0.34666  0.35394  0.65935  1.0000
  N   N33       1.0  0.54978  0.23717  0.94298  1.0000
  C   C488      1.0  0.33974  0.33538  0.65078  1.0000
  C   C489      1.0  0.44574  0.45986  0.94176  1.0000
  N   N34       1.0  0.33389  0.25118  0.49956  1.0000
  S   S130      1.0  0.52545  0.41094  0.94635  1.0000
  Fe  Fe66      1.0  0.51094  0.36895  0.94257  1.0000
  H   H588      1.0  0.51418  0.14322  0.45204  1.0000
  C   C490      1.0  0.33949  0.59206  0.15877  1.0000
  S   S131      1.0  0.51348  0.57599  0.40167  1.0000
  C   C491      1.0  0.61347  0.69591  0.98951  1.0000
  H   H589      1.0  0.34667  0.57300  0.16605  1.0000
  S   S132      1.0  0.49849  0.63210  0.42318  1.0000
  Fe  Fe67      1.0  0.47566  0.59781  0.40896  1.0000
  S   S133      1.0  0.44351  0.60339  0.37880  1.0000
  Fe  Fe68      1.0  0.49878  0.55221  0.01072  1.0000
  S   S134      1.0  0.49364  0.57298  0.04829  1.0000
  S   S135      1.0  0.48735  0.50907  0.01111  1.0000
  Fe  Fe69      1.0  0.51224  0.60256  0.98329  1.0000
  S   S136      1.0  0.50717  0.62620  0.01834  1.0000
  C   C492      1.0  0.37713  0.73260  0.97319  1.0000
  Fe  Fe70      1.0  0.47052  0.60265  0.02597  1.0000
  S   S137      1.0  0.43557  0.62815  0.03862  1.0000
  S   S138      1.0  0.47386  0.58114  0.98886  1.0000
  C   C493      1.0  0.35252  0.61259  0.07239  1.0000
  C   C494      1.0  0.35933  0.63707  0.06276  1.0000
  C   C495      1.0  0.38464  0.64128  0.05219  1.0000
  C   C496      1.0  0.40341  0.62109  0.05076  1.0000
  C   C497      1.0  0.39654  0.59656  0.06026  1.0000
  C   C498      1.0  0.37134  0.59243  0.07113  1.0000
  H   H590      1.0  0.35320  0.61674  0.34658  1.0000
  H   H591      1.0  0.38973  0.66038  0.04508  1.0000
  H   H592      1.0  0.41071  0.58083  0.05942  1.0000
  H   H593      1.0  0.36635  0.57340  0.07847  1.0000
  C   C499      1.0  0.40844  0.60112  0.38122  1.0000
  C   C500      1.0  0.39593  0.58901  0.40176  1.0000
  C   C501      1.0  0.36811  0.58672  0.40228  1.0000
  H   H594      1.0  0.42643  0.67257  0.42091  1.0000
  C   C502      1.0  0.36492  0.60922  0.36213  1.0000
  C   C503      1.0  0.39274  0.61127  0.36150  1.0000
  H   H595      1.0  0.40768  0.58069  0.41685  1.0000
  H   H596      1.0  0.35868  0.57667  0.41788  1.0000
  H   H597      1.0  0.42523  0.63749  0.41866  1.0000
  H   H598      1.0  0.40216  0.62061  0.34547  1.0000
  C   C504      1.0  0.49870  0.48198  0.99321  1.0000
  H   H599      1.0  0.59188  0.66652  0.44017  1.0000
  H   H600      1.0  0.60543  0.61137  0.97126  1.0000
  Fe  Fe71      1.0  0.53595  0.60883  0.41966  1.0000
  S   S139      1.0  0.57045  0.63279  0.40351  1.0000
  Fe  Fe72      1.0  0.53073  0.59516  0.03797  1.0000
  S   S140      1.0  0.56064  0.61290  0.06591  1.0000
  S   S141      1.0  0.53768  0.57216  0.00231  1.0000
  H   H601      1.0  0.42956  0.75060  0.96992  1.0000
  C   C505      1.0  0.63909  0.62687  0.07967  1.0000
  C   C506      1.0  0.61115  0.62817  0.07953  1.0000
  C   C507      1.0  0.59590  0.61044  0.06535  1.0000
  C   C508      1.0  0.60904  0.59131  0.05133  1.0000
  C   C509      1.0  0.63694  0.58988  0.05164  1.0000
  H   H602      1.0  0.43373  0.47787  0.41637  1.0000
  H   H603      1.0  0.60130  0.64299  0.09056  1.0000
  H   H604      1.0  0.59772  0.57730  0.04056  1.0000
  C   C510      1.0  0.39148  0.50953  0.40045  1.0000
  C   C511      1.0  0.60489  0.62633  0.39959  1.0000
  C   C512      1.0  0.61638  0.60262  0.40652  1.0000
  C   C513      1.0  0.64379  0.59859  0.40321  1.0000
  H   H605      1.0  0.47705  0.53184  0.40205  1.0000
  H   H606      1.0  0.35326  0.71325  0.00149  1.0000
  C   C514      1.0  0.62124  0.64589  0.38932  1.0000
  H   H607      1.0  0.60418  0.58736  0.41444  1.0000
  Fe  Fe73      1.0  0.50827  0.56052  0.44159  1.0000
  H   H608      1.0  0.58405  0.63318  0.95499  1.0000
  H   H609      1.0  0.61263  0.66434  0.38389  1.0000
  H   H610      1.0  0.34518  0.65282  0.06362  1.0000
  H   H611      1.0  0.63514  0.58690  0.31430  1.0000
  C   C515      1.0  0.51812  0.48434  0.97448  1.0000
  H   H612      1.0  0.39022  0.65707  0.39859  1.0000
  S   S142      1.0  0.46925  0.58094  0.44765  1.0000
  H   H613      1.0  0.62265  0.73685  0.98720  1.0000
  N   N35       1.0  0.48512  0.64821  0.09906  1.0000
  C   C516      1.0  0.50456  0.65342  0.11952  1.0000
  C   C517      1.0  0.48587  0.61986  0.09392  1.0000
  C   C518      1.0  0.49378  0.66180  0.07566  1.0000
  C   C519      1.0  0.45855  0.65775  0.10639  1.0000
  C   C520      1.0  0.45488  0.68410  0.11360  1.0000
  C   C521      1.0  0.43556  0.64183  0.10559  1.0000
  C   C522      1.0  0.42985  0.69382  0.11974  1.0000
  C   C523      1.0  0.41064  0.65177  0.11167  1.0000
  C   C524      1.0  0.40777  0.67769  0.11869  1.0000
  H   H614      1.0  0.49799  0.64465  0.13779  1.0000
  H   H615      1.0  0.52438  0.64511  0.11489  1.0000
  H   H616      1.0  0.50783  0.67451  0.12266  1.0000
  H   H617      1.0  0.47944  0.60832  0.11069  1.0000
  H   H618      1.0  0.50615  0.61312  0.08887  1.0000
  H   H619      1.0  0.47305  0.61477  0.07752  1.0000
  H   H620      1.0  0.49565  0.68312  0.07839  1.0000
  H   H621      1.0  0.51339  0.65458  0.06902  1.0000
  H   H622      1.0  0.47933  0.65869  0.05995  1.0000
  H   H623      1.0  0.47127  0.69753  0.11401  1.0000
  H   H624      1.0  0.43605  0.62180  0.09948  1.0000
  H   H625      1.0  0.42747  0.71408  0.12491  1.0000
  H   H626      1.0  0.39332  0.63942  0.11012  1.0000
  H   H627      1.0  0.38829  0.68536  0.12289  1.0000
  H   H628      1.0  0.34798  0.59606  0.20637  1.0000
  C   C525      1.0  0.57718  0.63819  0.00521  1.0000
  H   H629      1.0  0.61901  0.63911  0.95489  1.0000
  C   C526      1.0  0.57229  0.68307  0.96975  1.0000
  H   H630      1.0  0.37839  0.55173  0.34067  1.0000
  C   C527      1.0  0.64518  0.60550  0.31909  1.0000
  C   C528      1.0  0.42619  0.65416  0.43202  1.0000
  H   H631      1.0  0.47387  0.48960  0.37707  1.0000
  C   C529      1.0  0.45309  0.49501  0.37235  1.0000
  C   C530      1.0  0.35352  0.72731  0.98609  1.0000
  H   H632      1.0  0.37397  0.48022  0.95821  1.0000
  C   C531      1.0  0.56750  0.70892  0.96291  1.0000
  H   H633      1.0  0.55767  0.66884  0.96429  1.0000
  H   H634      1.0  0.44696  0.54955  0.40779  1.0000
  H   H635      1.0  0.52703  0.50310  0.97086  1.0000
  H   H636      1.0  0.34629  0.66040  0.38090  1.0000
  H   H637      1.0  0.34215  0.59184  0.13773  1.0000
  H   H638      1.0  0.65046  0.64062  0.09069  1.0000
  C   C532      1.0  0.60225  0.63234  0.96682  1.0000
  H   H639      1.0  0.63146  0.69234  0.99998  1.0000
  C   C533      1.0  0.66016  0.61816  0.39303  1.0000
  H   H640      1.0  0.42367  0.54004  0.35170  1.0000
  S   S143      1.0  0.51485  0.51642  0.44127  1.0000
  C   C534      1.0  0.41502  0.49035  0.96060  1.0000
  H   H641      1.0  0.39437  0.72194  0.97936  1.0000
  H   H642      1.0  0.41147  0.50828  0.97088  1.0000
  C   C535      1.0  0.44385  0.49707  0.41692  1.0000
  H   H643      1.0  0.39364  0.49816  0.41755  1.0000
  N   N36       1.0  0.59986  0.64811  0.99024  1.0000
  H   H644      1.0  0.58023  0.61768  0.01135  1.0000
  H   H645      1.0  0.46494  0.49287  0.42155  1.0000
  H   H646      1.0  0.35261  0.60785  0.16573  1.0000
  H   H647      1.0  0.40013  0.95601  0.99985  1.0000
  H   H648      1.0  0.64416  0.60734  0.34017  1.0000
  H   H649      1.0  0.34100  0.53719  0.36717  1.0000
  C   C536      1.0  0.37766  0.65601  0.43860  1.0000
  H   H650      1.0  0.64229  0.64972  0.99526  1.0000
  H   H651      1.0  0.58199  0.74821  0.96353  1.0000
  H   H652      1.0  0.45935  0.54590  0.37630  1.0000
  C   C537      1.0  0.64867  0.64189  0.38608  1.0000
  H   H653      1.0  0.44573  0.65270  0.44158  1.0000
  H   H654      1.0  0.65240  0.58014  0.40867  1.0000
  C   C538      1.0  0.38209  0.53941  0.35702  1.0000
  H   H655      1.0  0.54232  0.70255  0.44525  1.0000
  C   C539      1.0  0.36565  0.51633  0.39359  1.0000
  H   H656      1.0  0.44166  0.47671  0.36973  1.0000
  H   H657      1.0  0.62317  0.65415  0.02410  1.0000
  H   H658      1.0  0.43604  0.50867  0.43309  1.0000
  C   C540      1.0  0.62412  0.64375  0.00559  1.0000
  C   C541      1.0  0.39400  0.47447  0.95351  1.0000
  H   H659      1.0  0.33820  0.59722  0.25142  1.0000
  C   C542      1.0  0.35240  0.59667  0.38241  1.0000
  H   H660      1.0  0.35006  0.80173  0.43779  1.0000
  H   H661      1.0  0.62686  0.62280  0.01029  1.0000
  C   C543      1.0  0.36098  0.53124  0.37196  1.0000
  H   H662      1.0  0.64679  0.57479  0.04094  1.0000
  H   H663      1.0  0.57394  0.65000  0.02262  1.0000
  N   N37       1.0  0.44119  0.51135  0.39248  1.0000
  C   C544      1.0  0.41352  0.51771  0.38567  1.0000
  C   C545      1.0  0.34872  0.65965  0.40133  1.0000
  C   C546      1.0  0.40797  0.53274  0.36366  1.0000
  H   H664      1.0  0.47531  0.64177  0.95727  1.0000
  H   H665      1.0  0.63328  0.60074  0.27244  1.0000
  H   H666      1.0  0.63953  0.59659  0.22698  1.0000
  C   C547      1.0  0.59535  0.67572  0.98336  1.0000
  H   H667      1.0  0.63360  0.62207  0.31125  1.0000
  C   C548      1.0  0.44077  0.48313  0.95461  1.0000
  H   H668      1.0  0.45372  0.50519  0.35373  1.0000
  H   H669      1.0  0.34141  0.75328  0.44257  1.0000
  C   C549      1.0  0.45677  0.53565  0.39472  1.0000
  H   H670      1.0  0.36584  0.95385  0.96647  1.0000
  C   C550      1.0  0.33016  0.73981  0.97916  1.0000
  C   C551      1.0  0.37400  0.65774  0.41188  1.0000
  H   H671      1.0  0.55847  0.63814  0.99421  1.0000
  H   H672      1.0  0.40869  0.79343  0.95813  1.0000
  H   H673      1.0  0.45705  0.49556  0.96033  1.0000
  C   C552      1.0  0.52607  0.46234  0.96046  1.0000
  H   H674      1.0  0.34911  0.51043  0.40533  1.0000
  C   C553      1.0  0.60861  0.72172  0.98234  1.0000
  H   H675      1.0  0.54485  0.66798  0.44106  1.0000
  C   C554      1.0  0.65222  0.60761  0.06578  1.0000
  C   C555      1.0  0.65334  0.60080  0.26553  1.0000
  C   C556      1.0  0.37796  0.75090  0.95291  1.0000
  H   H676      1.0  0.54961  0.71392  0.95257  1.0000
  C   C557      1.0  0.65664  0.59839  0.23925  1.0000
  C   C558      1.0  0.58567  0.72821  0.96911  1.0000
  H   H677      1.0  0.59168  0.70110  0.44015  1.0000
  C   C559      1.0  0.32934  0.65810  0.44305  1.0000
  C   C560      1.0  0.33021  0.75748  0.95909  1.0000
  C   C561      1.0  0.32743  0.59561  0.21177  1.0000
  N   N38       1.0  0.40405  0.65355  0.45053  1.0000
  S   S144      1.0  0.47591  0.64554  0.48676  1.0000
  H   H678      1.0  0.52606  0.65528  0.56661  1.0000
  Fe  Fe74      1.0  0.49949  0.74720  0.59113  1.0000
  S   S145      1.0  0.49529  0.77397  0.55781  1.0000
  S   S146      1.0  0.50907  0.70421  0.58781  1.0000
  Fe  Fe75      1.0  0.49821  0.79107  0.62995  1.0000
  S   S147      1.0  0.49395  0.82114  0.59889  1.0000
  S   S148      1.0  0.50689  0.80552  0.67041  1.0000
  Fe  Fe76      1.0  0.46403  0.79417  0.58115  1.0000
  S   S149      1.0  0.42958  0.81319  0.55944  1.0000
  S   S150      1.0  0.46617  0.76535  0.61368  1.0000
  Fe  Fe77      1.0  0.47937  0.74875  0.87635  1.0000
  S   S151      1.0  0.48556  0.78619  0.89691  1.0000
  S   S152      1.0  0.46260  0.71573  0.89992  1.0000
  Fe  Fe78      1.0  0.48841  0.77471  0.82428  1.0000
  S   S153      1.0  0.49529  0.81416  0.84208  1.0000
  S   S154      1.0  0.48158  0.76341  0.78249  1.0000
  Fe  Fe79      1.0  0.46017  0.80450  0.86703  1.0000
  S   S155      1.0  0.42780  0.83346  0.87824  1.0000
  S   S156      1.0  0.45197  0.76678  0.84779  1.0000
  C   C562      1.0  0.39435  0.81080  0.55877  1.0000
  C   C563      1.0  0.38040  0.79230  0.57295  1.0000
  C   C564      1.0  0.35258  0.79067  0.57096  1.0000
  H   H679      1.0  0.44986  0.67775  0.93760  1.0000
  C   C565      1.0  0.35222  0.82596  0.54068  1.0000
  C   C566      1.0  0.38002  0.82758  0.54265  1.0000
  H   H680      1.0  0.39104  0.77919  0.58535  1.0000
  C   C567      1.0  0.39997  0.74781  0.91231  1.0000
  H   H681      1.0  0.33788  0.74529  0.50633  1.0000
  H   H682      1.0  0.39056  0.84194  0.53157  1.0000
  C   C568      1.0  0.49845  0.79429  0.70148  1.0000
  C   C569      1.0  0.48818  0.77630  0.75168  1.0000
  C   C570      1.0  0.47672  0.76409  0.73045  1.0000
  C   C571      1.0  0.48158  0.77315  0.70556  1.0000
  H   H683      1.0  0.46405  0.74739  0.73327  1.0000
  H   H684      1.0  0.47227  0.76376  0.68959  1.0000
  N   N39       1.0  0.33142  0.78285  0.46976  1.0000
  C   C572      1.0  0.35139  0.84283  0.90174  1.0000
  C   C573      1.0  0.37857  0.84667  0.89677  1.0000
  C   C574      1.0  0.39373  0.82749  0.88449  1.0000
  C   C575      1.0  0.38126  0.80453  0.87685  1.0000
  C   C576      1.0  0.35405  0.80084  0.88152  1.0000
  H   H685      1.0  0.39424  0.67467  0.48483  1.0000
  H   H686      1.0  0.38792  0.86462  0.90257  1.0000
  H   H687      1.0  0.39250  0.78973  0.86708  1.0000
  H   H688      1.0  0.38117  0.80797  0.46946  1.0000
  C   C577      1.0  0.60288  0.73966  0.90179  1.0000
  H   H689      1.0  0.56749  0.76496  0.53584  1.0000
  C   C578      1.0  0.35541  0.75678  0.50300  1.0000
  C   C579      1.0  0.48206  0.69121  0.91424  1.0000
  N   N40       1.0  0.56242  0.86665  0.62044  1.0000
  H   H690      1.0  0.49903  0.72378  0.63716  1.0000
  C   C580      1.0  0.48704  0.66176  0.51425  1.0000
  C   C581      1.0  0.50089  0.68828  0.55919  1.0000
  C   C582      1.0  0.48298  0.69939  0.54216  1.0000
  C   C583      1.0  0.47593  0.68608  0.51994  1.0000
  H   H691      1.0  0.47409  0.71802  0.54639  1.0000
  H   H692      1.0  0.46167  0.69471  0.50716  1.0000
  H   H693      1.0  0.47694  0.47506  0.51799  1.0000
  C   C584      1.0  0.49305  0.49368  0.48463  1.0000
  H   H694      1.0  0.48847  0.51315  0.49100  1.0000
  H   H695      1.0  0.51388  0.63194  0.52690  1.0000
  Fe  Fe80      1.0  0.52527  0.79896  0.57771  1.0000
  S   S157      1.0  0.55698  0.81893  0.55362  1.0000
  S   S158      1.0  0.53155  0.77087  0.60959  1.0000
  Fe  Fe81      1.0  0.52042  0.79226  0.87081  1.0000
  S   S159      1.0  0.55657  0.80524  0.89419  1.0000
  S   S160      1.0  0.51539  0.75316  0.85170  1.0000
  C   C585      1.0  0.59210  0.81898  0.55621  1.0000
  C   C586      1.0  0.60709  0.83051  0.53671  1.0000
  C   C587      1.0  0.63482  0.83284  0.53872  1.0000
  S   S161      1.0  0.53294  0.59273  0.45937  1.0000
  C   C588      1.0  0.63292  0.81198  0.57977  1.0000
  C   C589      1.0  0.60529  0.80907  0.57749  1.0000
  H   H696      1.0  0.59714  0.83818  0.52014  1.0000
  H   H697      1.0  0.61140  0.68311  0.46306  1.0000
  H   H698      1.0  0.42542  0.79092  0.92804  1.0000
  H   H699      1.0  0.59426  0.79968  0.59245  1.0000
  C   C590      1.0  0.50949  0.80684  0.72275  1.0000
  C   C591      1.0  0.50428  0.79804  0.74769  1.0000
  H   H700      1.0  0.52241  0.82334  0.71992  1.0000
  H   H701      1.0  0.51317  0.80775  0.76376  1.0000
  C   C592      1.0  0.64588  0.82322  0.88578  1.0000
  C   C593      1.0  0.63297  0.82595  0.90910  1.0000
  C   C594      1.0  0.60565  0.82065  0.91112  1.0000
  C   C595      1.0  0.59075  0.81267  0.88992  1.0000
  C   C596      1.0  0.60360  0.81019  0.86653  1.0000
  C   C597      1.0  0.63094  0.81551  0.86450  1.0000
  H   H702      1.0  0.64402  0.83209  0.92561  1.0000
  H   H703      1.0  0.59594  0.82275  0.92929  1.0000
  H   H704      1.0  0.59250  0.80411  0.85004  1.0000
  H   H705      1.0  0.64063  0.81342  0.84632  1.0000
  C   C598      1.0  0.50849  0.68717  0.90748  1.0000
  C   C599      1.0  0.52272  0.66634  0.91826  1.0000
  H   H706      1.0  0.51765  0.69959  0.89343  1.0000
  H   H707      1.0  0.64597  0.84233  0.52385  1.0000
  C   C600      1.0  0.50545  0.65082  0.53095  1.0000
  C   C601      1.0  0.51220  0.66400  0.55348  1.0000
  H   H708      1.0  0.34161  0.83914  0.52833  1.0000
  H   H709      1.0  0.33878  0.82353  0.46265  1.0000
  H   H710      1.0  0.54006  0.87898  0.65320  1.0000
  H   H711      1.0  0.55482  0.73607  0.65257  1.0000
  H   H712      1.0  0.54959  0.76325  0.73409  1.0000
  H   H713      1.0  0.48478  0.72383  0.66830  1.0000
  C   C602      1.0  0.53493  0.72620  0.74647  1.0000
  H   H714      1.0  0.53634  0.73104  0.76646  1.0000
  C   C603      1.0  0.52480  0.70223  0.73903  1.0000
  C   C604      1.0  0.58813  0.74699  0.50477  1.0000
  H   H715      1.0  0.61876  0.89260  0.55403  1.0000
  N   N41       1.0  0.52472  0.70969  0.66672  1.0000
  C   C605      1.0  0.56003  0.88134  0.64455  1.0000
  C   C606      1.0  0.40145  0.78603  0.49722  1.0000
  H   H716      1.0  0.61675  0.67779  0.91951  1.0000
  H   H717      1.0  0.64281  0.80515  0.59673  1.0000
  H   H718      1.0  0.51360  0.67754  0.70890  1.0000
  C   C607      1.0  0.40562  0.62852  0.46450  1.0000
  C   C608      1.0  0.65031  0.73534  0.91115  1.0000
  C   C609      1.0  0.50343  0.72709  0.65757  1.0000
  H   H719      1.0  0.49714  0.67768  0.66914  1.0000
  H   H720      1.0  0.44479  0.75084  0.93928  1.0000
  C   C610      1.0  0.52192  0.69631  0.71326  1.0000
  H   H721      1.0  0.52685  0.68065  0.46734  1.0000
  H   H722      1.0  0.34205  0.77631  0.58205  1.0000
  C   C611      1.0  0.59171  0.88113  0.58363  1.0000
  H   H723      1.0  0.34459  0.78306  0.87538  1.0000
  H   H724      1.0  0.53937  0.86285  0.58613  1.0000
  C   C612      1.0  0.48656  0.47202  0.49991  1.0000
  C   C613      1.0  0.47031  0.67485  0.93237  1.0000
  C   C614      1.0  0.54238  0.74434  0.72820  1.0000
  H   H725      1.0  0.54386  0.75420  0.68912  1.0000
  N   N42       1.0  0.41506  0.81520  0.78590  1.0000
  C   C615      1.0  0.41016  0.78867  0.79591  1.0000
  C   C616      1.0  0.42167  0.81278  0.75853  1.0000
  C   C617      1.0  0.43860  0.82620  0.79888  1.0000
  C   C618      1.0  0.39154  0.83158  0.79085  1.0000
  C   C619      1.0  0.38375  0.83696  0.81614  1.0000
  C   C620      1.0  0.37515  0.84163  0.77119  1.0000
  H   H726      1.0  0.34007  0.85768  0.91136  1.0000
  C   C621      1.0  0.62009  0.69810  0.91508  1.0000
  H   H727      1.0  0.54119  0.46444  0.94610  1.0000
  H   H728      1.0  0.40691  0.78863  0.81678  1.0000
  H   H729      1.0  0.39236  0.77984  0.78701  1.0000
  H   H730      1.0  0.42719  0.77545  0.79227  1.0000
  H   H731      1.0  0.40567  0.80289  0.74774  1.0000
  H   H732      1.0  0.43971  0.80076  0.75561  1.0000
  H   H733      1.0  0.42576  0.83210  0.74982  1.0000
  H   H734      1.0  0.45692  0.81512  0.79426  1.0000
  H   H735      1.0  0.44188  0.84682  0.79328  1.0000
  H   H736      1.0  0.43691  0.82561  0.81991  1.0000
  H   H737      1.0  0.39518  0.82989  0.83197  1.0000
  H   H738      1.0  0.39153  0.62755  0.48061  1.0000
  H   H739      1.0  0.63021  0.77076  0.89905  1.0000
  H   H740      1.0  0.41754  0.76242  0.52715  1.0000
  C   C622      1.0  0.62814  0.75043  0.90370  1.0000
  Fe  Fe82      1.0  0.49413  0.61441  0.46180  1.0000
  H   H741      1.0  0.51867  0.68838  0.75342  1.0000
  C   C623      1.0  0.63708  0.87109  0.61222  1.0000
  C   C624      1.0  0.52905  0.71455  0.69410  1.0000
  C   C625      1.0  0.56941  0.70614  0.48842  1.0000
  H   H742      1.0  0.55291  0.65598  0.49744  1.0000
  C   C626      1.0  0.35239  0.85603  0.77681  1.0000
  H   H743      1.0  0.35239  0.77638  0.93037  1.0000
  C   C627      1.0  0.58894  0.72608  0.48778  1.0000
  H   H744      1.0  0.57509  0.83111  0.63898  1.0000
  C   C628      1.0  0.54919  0.71521  0.65209  1.0000
  C   C629      1.0  0.37766  0.75134  0.51784  1.0000
  H   H745      1.0  0.52052  0.87115  0.61347  1.0000
  H   H746      1.0  0.51463  0.67942  0.63998  1.0000
  C   C630      1.0  0.54870  0.72950  0.52390  1.0000
  H   H747      1.0  0.39787  0.72625  0.91162  1.0000
  H   H748      1.0  0.57517  0.88445  0.57109  1.0000
  H   H749      1.0  0.57431  0.87459  0.65916  1.0000
  H   H750      1.0  0.50870  0.74798  0.65965  1.0000
  C   C631      1.0  0.35452  0.65630  0.45387  1.0000
  C   C632      1.0  0.35546  0.77725  0.48487  1.0000
  C   C633      1.0  0.57069  0.65902  0.48541  1.0000
  H   H751      1.0  0.58633  0.75179  0.89593  1.0000
  C   C634      1.0  0.59890  0.71347  0.90723  1.0000
  H   H752      1.0  0.37683  0.73637  0.53232  1.0000
  H   H753      1.0  0.35571  0.65473  0.47427  1.0000
  C   C635      1.0  0.36096  0.85121  0.82157  1.0000
  H   H754      1.0  0.35536  0.85468  0.84118  1.0000
  C   C636      1.0  0.33827  0.80748  0.55487  1.0000
  H   H755      1.0  0.38253  0.75627  0.90255  1.0000
  C   C637      1.0  0.61213  0.86643  0.62269  1.0000
  C   C638      1.0  0.63938  0.88098  0.58772  1.0000
  H   H756      1.0  0.32751  0.87165  0.80625  1.0000
  H   H757      1.0  0.60505  0.72609  0.47436  1.0000
  C   C639      1.0  0.34527  0.86072  0.80194  1.0000
  H   H758      1.0  0.53173  0.66834  0.66777  1.0000
  H   H759      1.0  0.41910  0.79794  0.49589  1.0000
  C   C640      1.0  0.64785  0.82410  0.56055  1.0000
  H   H760      1.0  0.58830  0.65863  0.49808  1.0000
  N   N43       1.0  0.56947  0.68370  0.47080  1.0000
  H   H761      1.0  0.61146  0.85833  0.64160  1.0000
  H   H762      1.0  0.56348  0.90248  0.64137  1.0000
  H   H763      1.0  0.53317  0.73084  0.53801  1.0000
  H   H764      1.0  0.60313  0.76206  0.50404  1.0000
  C   C641      1.0  0.56806  0.74868  0.52277  1.0000
  C   C642      1.0  0.64549  0.70876  0.91714  1.0000
  C   C643      1.0  0.53923  0.73882  0.70242  1.0000
  H   H765      1.0  0.57926  0.70516  0.90556  1.0000
  H   H766      1.0  0.54019  0.83420  0.63524  1.0000
  C   C644      1.0  0.54924  0.70861  0.50696  1.0000
  C   C645      1.0  0.53990  0.87447  0.60398  1.0000
  H   H767      1.0  0.54679  0.71045  0.63157  1.0000
  H   H768      1.0  0.56615  0.70369  0.65951  1.0000
  N   N44       1.0  0.40253  0.75708  0.93880  1.0000
  H   H769      1.0  0.54083  0.89547  0.59896  1.0000
  H   H770      1.0  0.57186  0.64181  0.47261  1.0000
  C   C646      1.0  0.58861  0.87153  0.60880  1.0000
  C   C647      1.0  0.51676  0.68253  0.66085  1.0000
  C   C648      1.0  0.55949  0.83854  0.62603  1.0000
  H   H771      1.0  0.56047  0.82693  0.60830  1.0000
  C   C649      1.0  0.61677  0.88592  0.57346  1.0000
  H   H772      1.0  0.53365  0.69438  0.50848  1.0000
  C   C650      1.0  0.50575  0.49005  0.46134  1.0000
  C   C651      1.0  0.40063  0.76593  0.51493  1.0000
  C   C652      1.0  0.51080  0.64981  0.93619  1.0000
  C   C653      1.0  0.48468  0.65440  0.94351  1.0000
  H   H773      1.0  0.37935  0.83854  0.75135  1.0000
  C   C654      1.0  0.40702  0.78563  0.93853  1.0000
  C   C655      1.0  0.33893  0.81984  0.89414  1.0000
  H   H774      1.0  0.41770  0.75290  0.90076  1.0000
  H   H775      1.0  0.39090  0.79645  0.92894  1.0000
  H   H776      1.0  0.54290  0.66283  0.91245  1.0000
  H   H777      1.0  0.65485  0.86635  0.62278  1.0000
  H   H778      1.0  0.42565  0.62523  0.47267  1.0000
  C   C656      1.0  0.37928  0.79173  0.48232  1.0000
  C   C657      1.0  0.54481  0.68378  0.45553  1.0000
  C   C658      1.0  0.40827  0.67521  0.46866  1.0000
  C   C659      1.0  0.59214  0.68380  0.45287  1.0000
  H   H779      1.0  0.34007  0.86344  0.76158  1.0000
  H   H780      1.0  0.40122  0.61188  0.45172  1.0000
  H   H781      1.0  0.40615  0.69438  0.45904  1.0000
  H   H782      1.0  0.42839  0.67445  0.47722  1.0000
  S   S162      1.0  0.52886  0.62337  0.94883  1.0000
  C   C660      1.0  0.51150  0.46454  0.45342  1.0000
  C   C661      1.0  0.33434  0.80527  0.45213  1.0000
  C   C662      1.0  0.35364  0.76286  0.94605  1.0000
  H   H783      1.0  0.65879  0.88377  0.57940  1.0000
  C   C663      1.0  0.42662  0.74490  0.94977  1.0000
  H   H784      1.0  0.42601  0.72328  0.94839  1.0000
  C   C664      1.0  0.66266  0.15551  0.05268  1.0000
  H   H785      1.0  0.69941  0.97982  0.39048  1.0000
  S   S163      1.0  0.71658  0.06988  0.39843  1.0000
  C   C665      1.0  0.79673  0.97260  0.42674  1.0000
  S   S164      1.0  0.76341  0.07903  0.44167  1.0000
  S   S165      1.0  0.73655  0.12788  0.41022  1.0000
  Fe  Fe83      1.0  0.69743  0.10704  0.41164  1.0000
  C   C666      1.0  0.84767  0.21540  0.41071  1.0000
  Fe  Fe84      1.0  0.75613  0.09009  0.40113  1.0000
  S   S166      1.0  0.78814  0.08799  0.37058  1.0000
  Fe  Fe85      1.0  0.95423  0.11935  0.07962  1.0000
  S   S167      1.0  0.92034  0.09004  0.07553  1.0000
  S   S168      1.0  0.94913  0.15892  0.09669  1.0000
  H   H786      1.0  0.82352  0.14661  0.38081  1.0000
  C   C667      1.0  0.80294  0.97197  0.97564  1.0000
  H   H787      1.0  0.88670  0.08625  0.19367  1.0000
  C   C668      1.0  0.80923  0.14604  0.96042  1.0000
  H   H788      1.0  0.84111  0.14042  0.42524  1.0000
  H   H789      1.0  0.81571  0.02289  0.42398  1.0000
  Fe  Fe86      1.0  0.94488  0.12404  0.36108  1.0000
  S   S169      1.0  0.91167  0.10888  0.38685  1.0000
  S   S170      1.0  0.94083  0.15431  0.33061  1.0000
  Fe  Fe87      1.0  0.70520  0.08125  0.03240  1.0000
  S   S171      1.0  0.69744  0.07789  0.99078  1.0000
  C   C669      1.0  0.76776  0.01884  0.40426  1.0000
  Fe  Fe88      1.0  0.76552  0.09213  0.02405  1.0000
  S   S172      1.0  0.76090  0.08926  0.98162  1.0000
  S   S173      1.0  0.80154  0.11379  0.04004  1.0000
  Fe  Fe89      1.0  0.72383  0.11264  0.98638  1.0000
  C   C670      1.0  0.94236  0.18823  0.42850  1.0000
  Fe  Fe90      1.0  0.73511  0.05419  0.98998  1.0000
  H   H790      1.0  0.77974  0.17936  0.42522  1.0000
  S   S174      1.0  0.72944  0.11732  0.02813  1.0000
  S   S175      1.0  0.74171  0.05562  0.03238  1.0000
  C   C671      1.0  0.88773  0.09692  0.06455  1.0000
  C   C672      1.0  0.87840  0.12240  0.06200  1.0000
  C   C673      1.0  0.85200  0.12704  0.05462  1.0000
  C   C674      1.0  0.83468  0.10636  0.04909  1.0000
  C   C675      1.0  0.84410  0.08087  0.05130  1.0000
  C   C676      1.0  0.87039  0.07622  0.05923  1.0000
  H   H791      1.0  0.89143  0.13857  0.06598  1.0000
  H   H792      1.0  0.84496  0.14684  0.05323  1.0000
  H   H793      1.0  0.83107  0.06474  0.04725  1.0000
  H   H794      1.0  0.87734  0.05642  0.06118  1.0000
  C   C677      1.0  0.86602  0.17535  0.39424  1.0000
  S   S176      1.0  0.99219  0.16533  0.15799  1.0000
  H   H795      1.0  0.95317  0.26606  0.38641  1.0000
  C   C678      1.0  0.81313  0.19311  0.96061  1.0000
  H   H796      1.0  0.79093  0.14995  0.39252  1.0000
  H   H797      1.0  0.78403  0.18912  0.00275  1.0000
  C   C679      1.0  0.82247  0.09379  0.37531  1.0000
  C   C680      1.0  0.83870  0.09924  0.35428  1.0000
  C   C681      1.0  0.86601  0.10408  0.35734  1.0000
  C   C682      1.0  0.87752  0.10277  0.38145  1.0000
  C   C683      1.0  0.86133  0.09691  0.40240  1.0000
  C   C684      1.0  0.83393  0.09286  0.39945  1.0000
  H   H798      1.0  0.83007  0.10002  0.33550  1.0000
  H   H799      1.0  0.87818  0.10856  0.34103  1.0000
  H   H800      1.0  0.87004  0.09579  0.42113  1.0000
  H   H801      1.0  0.82178  0.08871  0.41584  1.0000
  C   C685      1.0  0.80945  0.16101  0.38864  1.0000
  C   C686      1.0  0.97789  0.13218  0.23857  1.0000
  C   C687      1.0  0.73680  0.98480  0.96985  1.0000
  H   H802      1.0  0.95623  0.22561  0.43789  1.0000
  H   H803      1.0  0.73666  0.96851  0.41875  1.0000
  H   H804      1.0  0.92692  0.15835  0.17390  1.0000
  H   H805      1.0  0.84963  0.20848  0.97773  1.0000
  N   N45       1.0  0.79200  0.00724  0.39326  1.0000
  C   C688      1.0  0.87109  0.22833  0.40419  1.0000
  C   C689      1.0  0.82542  0.15410  0.43130  1.0000
  C   C690      1.0  0.79091  0.01137  0.36534  1.0000
  H   H806      1.0  0.90532  0.17805  0.37861  1.0000
  C   C691      1.0  0.66098  0.01387  0.04077  1.0000
  C   C692      1.0  0.98247  0.12522  0.19267  1.0000
  H   H807      1.0  0.80760  0.14216  0.43574  1.0000
  H   H808      1.0  0.87470  0.13963  0.14167  1.0000
  Fe  Fe91      1.0  0.97417  0.13385  0.31028  1.0000
  H   H809      1.0  0.83207  0.16316  0.44936  1.0000
  C   C693      1.0  0.97982  0.23334  0.38703  1.0000
  H   H810      1.0  0.80819  0.12791  0.97203  1.0000
  C   C694      1.0  0.83164  0.16597  0.99535  1.0000
  H   H811      1.0  0.83410  0.01264  0.39653  1.0000
  C   C695      1.0  0.98217  0.27023  0.41625  1.0000
  H   H812      1.0  0.76718  0.17145  0.97827  1.0000
  C   C696      1.0  0.97777  0.11556  0.21735  1.0000
  C   C697      1.0  0.78476  0.17122  0.99096  1.0000
  H   H813      1.0  0.89497  0.12973  0.11535  1.0000
  S   S177      1.0  0.97269  0.11850  0.26929  1.0000
  N   N46       1.0  0.80995  0.16959  0.97664  1.0000
  H   H814      1.0  0.80520  0.17532  0.37330  1.0000
  Fe  Fe92      1.0  0.72265  0.06107  0.44007  1.0000
  H   H815      1.0  0.74964  0.00878  0.39749  1.0000
  C   C698      1.0  0.74005  0.97472  0.99433  1.0000
  C   C699      1.0  0.92738  0.16667  0.43548  1.0000
  H   H816      1.0  0.69604  0.17392  0.01888  1.0000
  H   H817      1.0  0.79821  0.97437  0.99557  1.0000
  H   H818      1.0  0.83240  0.18220  0.00928  1.0000
  S   S178      1.0  0.97575  0.14627  0.38284  1.0000
  S   S179      1.0  0.99166  0.11013  0.10164  1.0000
  H   H819      1.0  0.87095  0.09150  0.15126  1.0000
  C   C700      1.0  0.81528  0.02173  0.40293  1.0000
  H   H820      1.0  0.81532  0.04222  0.39611  1.0000
  Fe  Fe93      1.0  0.97411  0.17340  0.06435  1.0000
  H   H821      1.0  0.97505  0.27780  0.98005  1.0000
  C   C701      1.0  0.88916  0.18850  0.38758  1.0000
  H   H822      1.0  0.74205  0.98779  0.01025  1.0000
  C   C702      1.0  0.67671  0.18434  0.01966  1.0000
  H   H823      1.0  0.85120  0.16412  0.98587  1.0000
  H   H824      1.0  0.89249  0.08556  0.12499  1.0000
  H   H825      1.0  0.69639  0.01286  0.00351  1.0000
  H   H826      1.0  0.88920  0.09845  0.23806  1.0000
  H   H827      1.0  0.67922  0.20085  0.03305  1.0000
  H   H828      1.0  0.78983  0.03246  0.36040  1.0000
  S   S180      1.0  0.95875  0.20480  0.03776  1.0000
  H   H829      1.0  0.90979  0.13988  0.25103  1.0000
  H   H830      1.0  0.80891  0.00367  0.35582  1.0000
  C   C703      1.0  0.94400  0.20983  0.44443  1.0000
  C   C704      1.0  0.79397  0.97954  0.40079  1.0000
  C   C705      1.0  0.97004  0.25733  0.39573  1.0000
  H   H831      1.0  0.90106  0.07264  0.15518  1.0000
  H   H832      1.0  0.94675  0.12810  0.14635  1.0000
  C   C706      1.0  0.67535  0.01084  0.99763  1.0000
  H   H833      1.0  0.67542  0.00025  0.97927  1.0000
  H   H834      1.0  0.83248  0.22694  0.41961  1.0000
  S   S181      1.0  0.66261  0.13066  0.39535  1.0000
  H   H835      1.0  0.82894  0.14788  0.00668  1.0000
  C   C707      1.0  0.83446  0.21093  0.96351  1.0000
  H   H836      1.0  0.79273  0.20638  0.40787  1.0000
  S   S182      1.0  0.73602  0.01885  0.96358  1.0000
  H   H837      1.0  0.68252  0.14618  0.05204  1.0000
  C   C708      1.0  0.97641  0.23266  0.02783  1.0000
  H   H838      1.0  0.95015  0.23966  0.99633  1.0000
  H   H839      1.0  0.66759  0.03063  0.99356  1.0000
  H   H840      1.0  0.87324  0.24894  0.40797  1.0000
  S   S183      1.0  0.96422  0.21766  0.36123  1.0000
  S   S184      1.0  0.67232  0.08118  0.06217  1.0000
  H   H841      1.0  0.97479  0.28888  0.42254  1.0000
  Fe  Fe94      1.0  0.97320  0.17551  0.35152  1.0000
  H   H842      1.0  0.77300  0.00235  0.35685  1.0000
  C   C709      1.0  0.98180  0.26774  0.99691  1.0000
  C   C710      1.0  0.89171  0.21495  0.39250  1.0000
  C   C711      1.0  0.96772  0.24614  0.00617  1.0000
  S   S185      1.0  0.97695  0.13411  0.04620  1.0000
  H   H843      1.0  0.90979  0.22499  0.38724  1.0000
  S   S186      1.0  0.97611  0.10177  0.33973  1.0000
  H   H844      1.0  0.97420  0.09500  0.22007  1.0000
  H   H845      1.0  0.86533  0.15476  0.39031  1.0000
  C   C712      1.0  0.66980  0.97078  0.02121  1.0000
  H   H846      1.0  0.76753  0.01808  0.42534  1.0000
  C   C713      1.0  0.84431  0.18844  0.40559  1.0000
  N   N47       1.0  0.81971  0.17408  0.41174  1.0000
  H   H847      1.0  0.90687  0.15352  0.13678  1.0000
  H   H848      1.0  0.78212  0.15421  0.00390  1.0000
  H   H849      1.0  0.92764  0.16987  0.21863  1.0000
  H   H850      1.0  0.76586  0.03970  0.39889  1.0000
  N   N48       1.0  0.90683  0.11415  0.15172  1.0000
  C   C714      1.0  0.93473  0.11012  0.14422  1.0000
  C   C715      1.0  0.89211  0.08990  0.14575  1.0000
  C   C716      1.0  0.89534  0.13519  0.13582  1.0000
  C   C717      1.0  0.90601  0.12144  0.17888  1.0000
  C   C718      1.0  0.91748  0.14518  0.18712  1.0000
  C   C719      1.0  0.89552  0.10481  0.19799  1.0000
  C   C720      1.0  0.91824  0.15190  0.21279  1.0000
  C   C721      1.0  0.89673  0.11161  0.22367  1.0000
  C   C722      1.0  0.90816  0.13503  0.23106  1.0000
  H   H851      1.0  0.94417  0.09471  0.15597  1.0000
  H   H852      1.0  0.93643  0.10405  0.12408  1.0000
  H   H853      1.0  0.95271  0.18837  0.41052  1.0000
  H   H854      1.0  0.92634  0.14991  0.42303  1.0000
  S   S187      1.0  0.71055  0.15091  0.96948  1.0000
  H   H855      1.0  0.67347  0.19201  0.00012  1.0000
  H   H856      1.0  0.80272  0.01308  0.96818  1.0000
  H   H857      1.0  0.79693  0.98724  0.44143  1.0000
  H   H858      1.0  0.66303  0.17067  0.06770  1.0000
  C   C723      1.0  0.79810  0.19081  0.42163  1.0000
  H   H859      1.0  0.80338  0.19970  0.44019  1.0000
  H   H860      1.0  0.98294  0.11209  0.17672  1.0000
  Fe  Fe95      1.0  0.98766  0.15099  0.11688  1.0000
  H   H861      1.0  0.68685  0.15580  0.44154  1.0000
  H   H862      1.0  0.68257  0.97431  0.06095  1.0000
  C   C724      1.0  0.80557  0.99384  0.96025  1.0000
  H   H863      1.0  0.68203  0.19982  0.42370  1.0000
  H   H864      1.0  0.67204  0.13416  0.00786  1.0000
  C   C725      1.0  0.98280  0.15867  0.23476  1.0000
  H   H865      1.0  0.98291  0.17175  0.25081  1.0000
  C   C726      1.0  0.98728  0.16835  0.21002  1.0000
  C   C727      1.0  0.98688  0.15178  0.18877  1.0000
  C   C728      1.0  0.68331  0.19735  0.44412  1.0000
  S   S188      1.0  0.97337  0.34648  0.95381  1.0000
  H   H866      1.0  0.68171  0.01677  0.04731  1.0000
  H   H867      1.0  0.99080  0.18892  0.20729  1.0000
  C   C729      1.0  0.79047  0.33208  0.72398  1.0000
  Fe  Fe96      1.0  0.97424  0.32662  0.91570  1.0000
  S   S189      1.0  0.94063  0.31294  0.88976  1.0000
  Fe  Fe97      1.0  0.74077  0.24352  0.58433  1.0000
  S   S190      1.0  0.74735  0.27328  0.55380  1.0000
  S   S191      1.0  0.73620  0.20034  0.57711  1.0000
  Fe  Fe98      1.0  0.73342  0.28413  0.62595  1.0000
  S   S192      1.0  0.73883  0.31678  0.59777  1.0000
  S   S193      1.0  0.72150  0.29492  0.66659  1.0000
  Fe  Fe99      1.0  0.71263  0.29406  0.57145  1.0000
  S   S194      1.0  0.68196  0.31059  0.54374  1.0000
  Fe  Fe100     1.0  0.77320  0.29335  0.58260  1.0000
  S   S195      1.0  0.81063  0.31741  0.57463  1.0000
  S   S196      1.0  0.70474  0.26311  0.60040  1.0000
  S   S197      1.0  0.76900  0.26190  0.61233  1.0000
  Fe  Fe101     1.0  0.78303  0.29007  0.87059  1.0000
  S   S198      1.0  0.78788  0.25791  0.84251  1.0000
  S   S199      1.0  0.81447  0.30767  0.89679  1.0000
  Fe  Fe102     1.0  0.72236  0.29094  0.86318  1.0000
  S   S200      1.0  0.72295  0.25872  0.83404  1.0000
  S   S201      1.0  0.68804  0.31263  0.88224  1.0000
  Fe  Fe103     1.0  0.75222  0.23963  0.86029  1.0000
  S   S202      1.0  0.75429  0.19603  0.86565  1.0000
  Fe  Fe104     1.0  0.75861  0.27912  0.81757  1.0000
  S   S203      1.0  0.77273  0.27658  0.77621  1.0000
  S   S204      1.0  0.74929  0.27003  0.89046  1.0000
  S   S205      1.0  0.75613  0.31310  0.84478  1.0000
  Fe  Fe105     1.0  0.96529  0.31262  0.52353  1.0000
  S   S206      1.0  0.96953  0.33036  0.48448  1.0000
  S   S207      1.0  0.92880  0.29082  0.53862  1.0000
  H   H868      1.0  0.90117  0.29363  0.85562  1.0000
  H   H869      1.0  0.83854  0.28991  0.65225  1.0000
  H   H870      1.0  0.85214  0.29082  0.85764  1.0000
  C   C730      1.0  0.81285  0.32456  0.68326  1.0000
  H   H871      1.0  0.83440  0.34143  0.62402  1.0000
  C   C731      1.0  0.87004  0.38885  0.90104  1.0000
  S   S208      1.0  0.76202  0.15095  0.46958  1.0000
  H   H872      1.0  0.69042  0.14953  0.48792  1.0000
  H   H873      1.0  0.67927  0.39240  0.87602  1.0000
  N   N49       1.0  0.81319  0.32378  0.65516  1.0000
  C   C732      1.0  0.68437  0.21612  0.48703  1.0000
  H   H874      1.0  0.70708  0.26314  0.47805  1.0000
  H   H875      1.0  0.78262  0.22430  0.91084  1.0000
  H   H876      1.0  0.94554  0.36995  0.87613  1.0000
  H   H877      1.0  0.68084  0.23788  0.45153  1.0000
  H   H878      1.0  0.71841  0.16902  0.79236  1.0000
  H   H879      1.0  0.71697  0.23057  0.78115  1.0000
  C   C733      1.0  0.83549  0.31682  0.69733  1.0000
  C   C734      1.0  0.74195  0.18341  0.89440  1.0000
  C   C735      1.0  0.72715  0.19897  0.91081  1.0000
  H   H880      1.0  0.69581  0.24944  0.74384  1.0000
  C   C736      1.0  0.73789  0.14719  0.92419  1.0000
  C   C737      1.0  0.74724  0.15747  0.90110  1.0000
  H   H881      1.0  0.72288  0.21893  0.90578  1.0000
  H   H882      1.0  0.90313  0.32458  0.93120  1.0000
  H   H883      1.0  0.75869  0.14535  0.88846  1.0000
  C   C738      1.0  0.74312  0.18688  0.54703  1.0000
  C   C739      1.0  0.75621  0.20125  0.52834  1.0000
  C   C740      1.0  0.76157  0.19000  0.50461  1.0000
  C   C741      1.0  0.75361  0.16443  0.49926  1.0000
  C   C742      1.0  0.74020  0.15013  0.51780  1.0000
  C   C743      1.0  0.73510  0.16131  0.54167  1.0000
  H   H884      1.0  0.76271  0.22083  0.53235  1.0000
  H   H885      1.0  0.77211  0.20109  0.49041  1.0000
  H   H886      1.0  0.73426  0.13033  0.51395  1.0000
  H   H887      1.0  0.72502  0.15007  0.55610  1.0000
  C   C744      1.0  0.84312  0.30942  0.56391  1.0000
  C   C745      1.0  0.85205  0.28374  0.56194  1.0000
  C   C746      1.0  0.87826  0.27854  0.55417  1.0000
  C   C747      1.0  0.89588  0.29885  0.54805  1.0000
  C   C748      1.0  0.88689  0.32451  0.54983  1.0000
  C   C749      1.0  0.86076  0.32971  0.55785  1.0000
  H   H888      1.0  0.83886  0.26790  0.56664  1.0000
  H   H889      1.0  0.88497  0.25862  0.55305  1.0000
  H   H890      1.0  0.90010  0.34036  0.54523  1.0000
  H   H891      1.0  0.85414  0.34966  0.55928  1.0000
  C   C750      1.0  0.73557  0.28843  0.69693  1.0000
  C   C751      1.0  0.72292  0.29830  0.71868  1.0000
  C   C752      1.0  0.73354  0.29425  0.74315  1.0000
  C   C753      1.0  0.75712  0.28039  0.74615  1.0000
  C   C754      1.0  0.76967  0.27034  0.72441  1.0000
  C   C755      1.0  0.75891  0.27418  0.69996  1.0000
  H   H892      1.0  0.70485  0.30935  0.71657  1.0000
  H   H893      1.0  0.72376  0.30228  0.75961  1.0000
  H   H894      1.0  0.78799  0.25971  0.72649  1.0000
  H   H895      1.0  0.76875  0.26627  0.68351  1.0000
  C   C756      1.0  0.90570  0.30974  0.89311  1.0000
  C   C757      1.0  0.89221  0.31748  0.91502  1.0000
  C   C758      1.0  0.86436  0.31619  0.91595  1.0000
  C   C759      1.0  0.84963  0.30673  0.89526  1.0000
  C   C760      1.0  0.86315  0.29813  0.87370  1.0000
  C   C761      1.0  0.89098  0.29982  0.87261  1.0000
  C   C762      1.0  0.83680  0.23281  0.94779  1.0000
  C   C763      1.0  0.81864  0.29686  0.64653  1.0000
  C   C764      1.0  0.78785  0.33209  0.64345  1.0000
  H   H896      1.0  0.80385  0.28303  0.65444  1.0000
  H   H897      1.0  0.81793  0.29531  0.62543  1.0000
  H   H898      1.0  0.77128  0.31902  0.64905  1.0000
  H   H899      1.0  0.78885  0.33163  0.62236  1.0000
  H   H900      1.0  0.78267  0.35242  0.64863  1.0000
  H   H901      1.0  0.85335  0.31064  0.68787  1.0000
  C   C765      1.0  0.71627  0.22512  0.71729  1.0000
  C   C766      1.0  0.91705  0.42386  0.90087  1.0000
  H   H902      1.0  0.70751  0.27355  0.51025  1.0000
  H   H903      1.0  0.82006  0.25456  0.91673  1.0000
  C   C767      1.0  0.83531  0.31631  0.72387  1.0000
  H   H904      1.0  0.90436  0.18740  0.49216  1.0000
  H   H905      1.0  0.78785  0.17401  0.76576  1.0000
  H   H906      1.0  0.68790  0.96988  0.46367  1.0000
  H   H907      1.0  0.78531  0.21876  0.78251  1.0000
  H   H908      1.0  0.94752  0.27202  0.48857  1.0000
  H   H909      1.0  0.77279  0.33729  0.73444  1.0000
  H   H910      1.0  0.77938  0.16008  0.79559  1.0000
  H   H911      1.0  0.67196  0.39488  0.54734  1.0000
  H   H912      1.0  0.72184  0.19869  0.81015  1.0000
  C   C768      1.0  0.91513  0.18832  0.47448  1.0000
  H   H913      1.0  0.81231  0.32257  0.75772  1.0000
  H   H914      1.0  0.77987  0.20361  0.81307  1.0000
  H   H915      1.0  0.82577  0.35665  0.86407  1.0000
  H   H916      1.0  0.87019  0.39891  0.91900  1.0000
  C   C769      1.0  0.81278  0.32377  0.73716  1.0000
  H   H917      1.0  0.75953  0.15247  0.76843  1.0000
  H   H918      1.0  0.74016  0.19923  0.69519  1.0000
  C   C770      1.0  0.79028  0.33236  0.69745  1.0000
  H   H919      1.0  0.93955  0.26267  0.45691  1.0000
  H   H920      1.0  0.76136  0.17905  0.73150  1.0000
  H   H921      1.0  0.83127  0.36147  0.65185  1.0000
  H   H922      1.0  0.85256  0.30970  0.73425  1.0000
  N   N50       1.0  0.91912  0.39542  0.89652  1.0000
  H   H923      1.0  0.85410  0.32279  0.93275  1.0000
  C   C771      1.0  0.74994  0.99269  0.47383  1.0000
  C   C772      1.0  0.81817  0.23759  0.92888  1.0000
  C   C773      1.0  0.89367  0.38508  0.88696  1.0000
  H   H924      1.0  0.86608  0.34925  0.83874  1.0000
  C   C774      1.0  0.89154  0.37057  0.86408  1.0000
  H   H925      1.0  0.91031  0.38529  0.93554  1.0000
  H   H926      1.0  0.70603  0.20080  0.94622  1.0000
  C   C775      1.0  0.76141  0.96973  0.48357  1.0000
  H   H927      1.0  0.89185  0.22912  0.50049  1.0000
  C   C776      1.0  0.84440  0.36513  0.87002  1.0000
  C   C777      1.0  0.79444  0.19878  0.94131  1.0000
  H   H928      1.0  0.68932  0.18625  0.51660  1.0000
  H   H929      1.0  0.76158  0.01022  0.47216  1.0000
  C   C778      1.0  0.70972  0.23357  0.74155  1.0000
  C   C779      1.0  0.72348  0.99280  0.46621  1.0000
  H   H930      1.0  0.93635  0.43232  0.90699  1.0000
  H   H931      1.0  0.70325  0.22324  0.53659  1.0000
  N   N51       1.0  0.68382  0.23935  0.50361  1.0000
  H   H932      1.0  0.68360  0.25105  0.54305  1.0000
  H   H933      1.0  0.91072  0.43413  0.88328  1.0000
  H   H934      1.0  0.93110  0.21044  0.51985  1.0000
  C   C780      1.0  0.94331  0.22508  0.50972  1.0000
  C   C781      1.0  0.83422  0.34114  0.64523  1.0000
  H   H935      1.0  0.82818  0.38116  0.90411  1.0000
  H   H936      1.0  0.96032  0.39955  0.88646  1.0000
  H   H937      1.0  0.74169  0.17164  0.81805  1.0000
  H   H938      1.0  0.90847  0.36561  0.85264  1.0000
  C   C782      1.0  0.68713  0.19039  0.49660  1.0000
  H   H939      1.0  0.78195  0.96983  0.48927  1.0000
  C   C783      1.0  0.68780  0.16896  0.48028  1.0000
  C   C784      1.0  0.71758  0.18864  0.93370  1.0000
  H   H940      1.0  0.85429  0.33485  0.65116  1.0000
  H   H941      1.0  0.77186  0.33796  0.68862  1.0000
  C   C785      1.0  0.92579  0.38257  0.92087  1.0000
  H   H942      1.0  0.70741  0.23436  0.70081  1.0000
  S   S209      1.0  0.70168  0.09777  0.45320  1.0000
  H   H943      1.0  0.72581  0.24509  0.50110  1.0000
  C   C786      1.0  0.84584  0.37892  0.89266  1.0000
  C   C787      1.0  0.94162  0.39111  0.87891  1.0000
  N   N52       1.0  0.93144  0.23322  0.48522  1.0000
  H   H944      1.0  0.99317  0.45907  0.51345  1.0000
  H   H945      1.0  0.75803  0.22813  0.80170  1.0000
  H   H946      1.0  0.74198  0.12718  0.92923  1.0000
  N   N53       1.0  0.75342  0.19100  0.78332  1.0000
  C   C788      1.0  0.73291  0.18221  0.80160  1.0000
  C   C789      1.0  0.77074  0.16837  0.77786  1.0000
  C   C790      1.0  0.76991  0.21112  0.79567  1.0000
  C   C791      1.0  0.74074  0.20224  0.76043  1.0000
  C   C792      1.0  0.74698  0.19401  0.73535  1.0000
  C   C793      1.0  0.72191  0.22255  0.76282  1.0000
  C   C794      1.0  0.73486  0.20541  0.71419  1.0000
  H   H947      1.0  0.96335  0.21663  0.50681  1.0000
  C   C795      1.0  0.86717  0.36098  0.85578  1.0000
  C   C796      1.0  0.70703  0.25597  0.49793  1.0000
  C   C797      1.0  0.90430  0.24313  0.48979  1.0000
  H   H948      1.0  0.92835  0.36127  0.91816  1.0000
  H   H949      1.0  0.93798  0.40027  0.86010  1.0000
  H   H950      1.0  0.90440  0.26127  0.50127  1.0000
  H   H951      1.0  0.89416  0.24771  0.47158  1.0000
  H   H952      1.0  0.94557  0.24178  0.52295  1.0000
  C   C798      1.0  0.81394  0.96607  0.92413  1.0000
  C   C799      1.0  0.81120  0.99090  0.93456  1.0000
  H   H953      1.0  0.90275  0.42873  0.91612  1.0000
  H   H954      1.0  0.73179  0.97493  0.93040  1.0000
  C   C800      1.0  0.72293  0.16278  0.94047  1.0000
  C   C801      1.0  0.94746  0.25523  0.47524  1.0000
  C   C802      1.0  0.79706  0.22058  0.92564  1.0000
  C   C803      1.0  0.70845  0.96996  0.46936  1.0000
  C   C804      1.0  0.93029  0.21060  0.46792  1.0000
  H   H955      1.0  0.77761  0.18634  0.93818  1.0000
  C   C805      1.0  0.68455  0.23315  0.53117  1.0000
  H   H956      1.0  0.94454  0.39028  0.92895  1.0000
  H   H957      1.0  0.96858  0.24967  0.47260  1.0000
  H   H958      1.0  0.67059  0.35773  0.84487  1.0000
  C   C806      1.0  0.68255  0.21893  0.46024  1.0000
  H   H959      1.0  0.82717  0.14483  0.94826  1.0000
  C   C807      1.0  0.91376  0.16671  0.45843  1.0000
  H   H960      1.0  0.90221  0.14981  0.46378  1.0000
  H   H961      1.0  0.79168  0.14566  0.94772  1.0000
  S   S210      1.0  0.70865  0.02020  0.45119  1.0000
  H   H962      1.0  0.81303  0.00801  0.92264  1.0000
  H   H963      1.0  0.81829  0.96480  0.90411  1.0000
  H   H964      1.0  0.66763  0.22067  0.53694  1.0000
  S   S211      1.0  0.99110  0.34229  0.54265  1.0000
  C   C808      1.0  0.73441  0.96736  0.94941  1.0000
  C   C809      1.0  0.68597  0.17244  0.45413  1.0000
  S   S212      1.0  0.99378  0.41983  0.93200  1.0000
  H   H965      1.0  0.85316  0.24622  0.95019  1.0000
  Fe  Fe106     1.0  0.74202  0.11640  0.45092  1.0000
  H   H966      1.0  0.76493  0.68068  0.43943  1.0000
  C   C810      1.0  0.85978  0.53929  0.04669  1.0000
  S   S213      1.0  0.74020  0.89603  0.98375  1.0000
  C   C811      1.0  0.77913  0.75819  0.42411  1.0000
  H   H967      1.0  0.97294  0.53702  0.04323  1.0000
  Fe  Fe107     1.0  0.97905  0.59368  0.41201  1.0000
  S   S214      1.0  0.94909  0.60962  0.38346  1.0000
  Fe  Fe108     1.0  0.76035  0.63490  0.12863  1.0000
  S   S215      1.0  0.75651  0.60152  0.10089  1.0000
  S   S216      1.0  0.77369  0.62803  0.16986  1.0000
  Fe  Fe109     1.0  0.75601  0.67493  0.08591  1.0000
  S   S217      1.0  0.75192  0.64466  0.05576  1.0000
  S   S218      1.0  0.76127  0.71812  0.07863  1.0000
  Fe  Fe110     1.0  0.72358  0.62508  0.08281  1.0000
  S   S219      1.0  0.68744  0.60481  0.06490  1.0000
  Fe  Fe111     1.0  0.78488  0.62369  0.07593  1.0000
  S   S220      1.0  0.81774  0.60724  0.05060  1.0000
  S   S221      1.0  0.72570  0.65707  0.11217  1.0000
  S   S222      1.0  0.79067  0.65531  0.10437  1.0000
  Fe  Fe112     1.0  0.79055  0.62604  0.36439  1.0000
  S   S223      1.0  0.79446  0.66368  0.34283  1.0000
  S   S224      1.0  0.82325  0.59865  0.37868  1.0000
  Fe  Fe113     1.0  0.72993  0.63394  0.37246  1.0000
  S   S225      1.0  0.73058  0.67273  0.35272  1.0000
  S   S226      1.0  0.69454  0.61154  0.38900  1.0000
  Fe  Fe114     1.0  0.75620  0.65284  0.32328  1.0000
  S   S227      1.0  0.74130  0.66133  0.28286  1.0000
  Fe  Fe115     1.0  0.76862  0.68020  0.37369  1.0000
  S   S228      1.0  0.78552  0.71536  0.39407  1.0000
  S   S229      1.0  0.75412  0.61364  0.34247  1.0000
  S   S230      1.0  0.76607  0.64298  0.39578  1.0000
  N   N54       1.0  0.93332  0.52147  0.04583  1.0000
  H   H968      1.0  0.69065  0.85321  0.44367  1.0000
  H   H969      1.0  0.87582  0.55432  0.10734  1.0000
  C   C812      1.0  0.79911  0.92686  0.41642  1.0000
  H   H970      1.0  0.88513  0.63851  0.42373  1.0000
  H   H971      1.0  0.69886  0.93014  0.06500  1.0000
  Fe  Fe116     1.0  0.97480  0.60270  0.03186  1.0000
  S   S231      1.0  0.94371  0.61088  0.06248  1.0000
  S   S232      1.0  0.96703  0.58086  0.99589  1.0000
  S   S233      1.0  0.73868  0.76121  0.96738  1.0000
  H   H972      1.0  0.88540  0.52501  0.01834  1.0000
  H   H973      1.0  0.90948  0.63629  0.35419  1.0000
  C   C813      1.0  0.73894  0.93012  0.97771  1.0000
  H   H974      1.0  0.74424  0.94000  0.01712  1.0000
  H   H975      1.0  0.70637  0.63164  0.31428  1.0000
  C   C814      1.0  0.76627  0.73904  0.40970  1.0000
  H   H976      1.0  0.71831  0.84168  0.40561  1.0000
  C   C815      1.0  0.85671  0.54763  0.07162  1.0000
  C   C816      1.0  0.72420  0.75916  0.42005  1.0000
  C   C817      1.0  0.73871  0.73942  0.40790  1.0000
  H   H977      1.0  0.82805  0.66309  0.05260  1.0000
  H   H978      1.0  0.89068  0.67279  0.95327  1.0000
  H   H979      1.0  0.72864  0.72479  0.39678  1.0000
  C   C818      1.0  0.75476  0.73024  0.04777  1.0000
  C   C819      1.0  0.76007  0.75642  0.04199  1.0000
  C   C820      1.0  0.75528  0.76636  0.01745  1.0000
  C   C821      1.0  0.74520  0.75009  0.99853  1.0000
  C   C822      1.0  0.74009  0.72391  0.00430  1.0000
  C   C823      1.0  0.74474  0.71405  0.02879  1.0000
  H   H980      1.0  0.76783  0.76910  0.05655  1.0000
  H   H981      1.0  0.75931  0.78656  0.01319  1.0000
  H   H982      1.0  0.73225  0.71121  0.98981  1.0000
  H   H983      1.0  0.74024  0.69400  0.03299  1.0000
  C   C824      1.0  0.85271  0.60951  0.05404  1.0000
  C   C825      1.0  0.86461  0.61797  0.07653  1.0000
  C   C826      1.0  0.89243  0.61823  0.07877  1.0000
  C   C827      1.0  0.90871  0.61021  0.05858  1.0000
  C   C828      1.0  0.89680  0.60201  0.03601  1.0000
  C   C829      1.0  0.86900  0.60172  0.03378  1.0000
  H   H984      1.0  0.85240  0.62385  0.09235  1.0000
  H   H985      1.0  0.90141  0.62458  0.09633  1.0000
  H   H986      1.0  0.90897  0.59594  0.02023  1.0000
  H   H987      1.0  0.86005  0.59518  0.01628  1.0000
  C   C830      1.0  0.76354  0.63681  0.20114  1.0000
  C   C831      1.0  0.77892  0.62845  0.22191  1.0000
  C   C832      1.0  0.77225  0.63534  0.24704  1.0000
  C   C833      1.0  0.75014  0.65091  0.25174  1.0000
  C   C834      1.0  0.73458  0.65906  0.23101  1.0000
  C   C835      1.0  0.74111  0.65197  0.20590  1.0000
  H   H988      1.0  0.79625  0.61662  0.21851  1.0000
  H   H989      1.0  0.78444  0.62889  0.26271  1.0000
  H   H990      1.0  0.71736  0.67101  0.23441  1.0000
  H   H991      1.0  0.72878  0.65826  0.19031  1.0000
  C   C836      1.0  0.91391  0.60790  0.38405  1.0000
  C   C837      1.0  0.90031  0.59121  0.40051  1.0000
  C   C838      1.0  0.87251  0.58920  0.39912  1.0000
  C   C839      1.0  0.85786  0.60421  0.38168  1.0000
  C   C840      1.0  0.87139  0.62162  0.36594  1.0000
  C   C841      1.0  0.89923  0.62325  0.36698  1.0000
  H   H992      1.0  0.91122  0.57934  0.41379  1.0000
  H   H993      1.0  0.86228  0.57549  0.41123  1.0000
  H   H994      1.0  0.86049  0.63318  0.35231  1.0000
  C   C842      1.0  0.95312  0.54203  0.05103  1.0000
  C   C843      1.0  0.93470  0.51553  0.01826  1.0000
  C   C844      1.0  0.88422  0.51032  0.38321  1.0000
  C   C845      1.0  0.71531  0.86216  0.39910  1.0000
  C   C846      1.0  0.68186  0.59836  0.22865  1.0000
  N   N55       1.0  0.67294  0.60585  0.30988  1.0000
  H   H995      1.0  0.77473  0.79245  0.44747  1.0000
  H   H996      1.0  0.68259  0.63387  0.33894  1.0000
  C   C847      1.0  0.70286  0.95969  0.39572  1.0000
  H   H997      1.0  0.92858  0.62793  0.43267  1.0000
  N   N56       1.0  0.82776  0.68445  0.01731  1.0000
  C   C848      1.0  0.80842  0.66617  0.00597  1.0000
  C   C849      1.0  0.82453  0.68313  0.04531  1.0000
  C   C850      1.0  0.82097  0.71132  0.00924  1.0000
  C   C851      1.0  0.85476  0.67776  0.00853  1.0000
  C   C852      1.0  0.86108  0.67866  0.98227  1.0000
  H   H998      1.0  0.95502  0.50967  0.01238  1.0000
  Fe  Fe117     1.0  0.74085  0.86227  0.95533  1.0000
  C   C853      1.0  0.94002  0.48816  0.38118  1.0000
  H   H999      1.0  0.70291  0.75963  0.41822  1.0000
  H   H1000     1.0  0.81345  0.64566  0.01090  1.0000
  H   H1001     1.0  0.78798  0.66991  0.01292  1.0000
  H   H1002     1.0  0.80771  0.66758  0.98496  1.0000
  H   H1003     1.0  0.83809  0.69682  0.05516  1.0000
  C   C854      1.0  0.72392  0.95331  0.41153  1.0000
  H   H1004     1.0  0.80408  0.68842  0.05125  1.0000
  H   H1005     1.0  0.81985  0.71344  0.98829  1.0000
  H   H1006     1.0  0.80130  0.71748  0.01661  1.0000
  H   H1007     1.0  0.83583  0.72553  0.01631  1.0000
  H   H1008     1.0  0.96076  0.49038  0.05363  1.0000
  H   H1009     1.0  0.92371  0.55522  0.35355  1.0000
  H   H1010     1.0  0.67953  0.56494  0.31581  1.0000
  H   H1011     1.0  0.67086  0.87390  0.42432  1.0000
  C   C855      1.0  0.90056  0.66372  0.01627  1.0000
  N   N57       1.0  0.78115  0.71354  0.16421  1.0000
  C   C856      1.0  0.80458  0.69949  0.15417  1.0000
  C   C857      1.0  0.75730  0.70149  0.15296  1.0000
  C   C858      1.0  0.78294  0.74087  0.15521  1.0000
  C   C859      1.0  0.77913  0.71273  0.19226  1.0000
  C   C860      1.0  0.79637  0.69759  0.20770  1.0000
  C   C861      1.0  0.75895  0.72685  0.20492  1.0000
  C   C862      1.0  0.79389  0.69736  0.23413  1.0000
  C   C863      1.0  0.75654  0.72630  0.23135  1.0000
  C   C864      1.0  0.77406  0.71168  0.24593  1.0000
  H   H1012     1.0  0.80339  0.67821  0.15821  1.0000
  H   H1013     1.0  0.80614  0.70141  0.13317  1.0000
  H   H1014     1.0  0.82327  0.70723  0.16231  1.0000
  H   H1015     1.0  0.75552  0.68077  0.15882  1.0000
  H   H1016     1.0  0.75795  0.70202  0.13185  1.0000
  H   H1017     1.0  0.73879  0.71147  0.15870  1.0000
  H   H1018     1.0  0.79989  0.75109  0.16423  1.0000
  H   H1019     1.0  0.78558  0.74192  0.13419  1.0000
  H   H1020     1.0  0.76473  0.75218  0.15924  1.0000
  H   H1021     1.0  0.81149  0.68516  0.19987  1.0000
  H   H1022     1.0  0.74452  0.73802  0.19444  1.0000
  H   H1023     1.0  0.80677  0.68519  0.24555  1.0000
  H   H1024     1.0  0.74069  0.73677  0.24064  1.0000
  H   H1025     1.0  0.77169  0.71063  0.26637  1.0000
  C   C865      1.0  0.68486  0.63078  0.31815  1.0000
  H   H1026     1.0  0.84913  0.66168  0.40366  1.0000
  C   C866      1.0  0.90286  0.53849  0.07973  1.0000
  C   C867      1.0  0.67840  0.92727  0.00384  1.0000
  H   H1027     1.0  0.87247  0.66819  0.04556  1.0000
  H   H1028     1.0  0.84184  0.50894  0.37846  1.0000
  H   H1029     1.0  0.92544  0.65926  0.98342  1.0000
  H   H1030     1.0  0.94974  0.51113  0.42699  1.0000
  H   H1031     1.0  0.73813  0.85542  0.44350  1.0000
  H   H1032     1.0  0.70869  0.58455  0.31887  1.0000
  C   C868      1.0  0.73526  0.94021  0.95331  1.0000
  H   H1033     1.0  0.88156  0.56837  0.33627  1.0000
  C   C869      1.0  0.95608  0.53196  0.38257  1.0000
  H   H1034     1.0  0.91892  0.53876  0.09322  1.0000
  H   H1035     1.0  0.68472  0.58465  0.34348  1.0000
  C   C870      1.0  0.68924  0.87332  0.43582  1.0000
  C   C871      1.0  0.93060  0.51533  0.41728  1.0000
  S   S234      1.0  0.96738  0.56884  0.44507  1.0000
  C   C872      1.0  0.86008  0.51849  0.37298  1.0000
  H   H1036     1.0  0.84036  0.54626  0.34887  1.0000
  C   C873      1.0  0.71049  0.90742  0.41166  1.0000
  H   H1037     1.0  0.94952  0.67123  0.43333  1.0000
  C   C874      1.0  0.73649  0.87607  0.43733  1.0000
  C   C875      1.0  0.70088  0.60323  0.27048  1.0000
  H   H1038     1.0  0.95240  0.55248  0.38830  1.0000
  C   C876      1.0  0.85919  0.53933  0.35609  1.0000
  H   H1039     1.0  0.75520  0.88081  0.42731  1.0000
  C   C877      1.0  0.76461  0.77762  0.43666  1.0000
  H   H1040     1.0  0.96045  0.53152  0.36189  1.0000
  C   C878      1.0  0.86143  0.67163  0.41749  1.0000
  C   C879      1.0  0.68950  0.91449  0.39512  1.0000
  H   H1041     1.0  0.80047  0.75810  0.42530  1.0000
  C   C880      1.0  0.90670  0.54397  0.35928  1.0000
  H   H1042     1.0  0.94681  0.56075  0.04244  1.0000
  H   H1043     1.0  0.73234  0.86741  0.38678  1.0000
  C   C881      1.0  0.88228  0.65846  0.42932  1.0000
  H   H1044     1.0  0.84305  0.54033  0.03385  1.0000
  H   H1045     1.0  0.91653  0.50045  0.42440  1.0000
  C   C882      1.0  0.74138  0.94756  0.99815  1.0000
  H   H1046     1.0  0.84647  0.68424  0.96833  1.0000
  C   C883      1.0  0.80515  0.94703  0.96535  1.0000
  C   C884      1.0  0.68707  0.58407  0.32247  1.0000
  H   H1047     1.0  0.80181  0.93104  0.97827  1.0000
  H   H1048     1.0  0.92154  0.49908  0.01304  1.0000
  H   H1049     1.0  0.71867  0.60550  0.28166  1.0000
  H   H1050     1.0  0.92639  0.48180  0.05685  1.0000
  H   H1051     1.0  0.95905  0.48151  0.38975  1.0000
  C   C885      1.0  0.88247  0.55178  0.34900  1.0000
  C   C886      1.0  0.79597  0.93287  0.39080  1.0000
  H   H1052     1.0  0.92471  0.47386  0.38707  1.0000
  C   C887      1.0  0.88630  0.67215  0.97342  1.0000
  H   H1053     1.0  0.88386  0.49408  0.39622  1.0000
  H   H1054     1.0  0.92355  0.53462  0.42397  1.0000
  C   C888      1.0  0.87820  0.54725  0.08811  1.0000
  S   S235      1.0  0.77446  0.83329  0.95801  1.0000
  N   N58       1.0  0.93335  0.51498  0.38921  1.0000
  C   C889      1.0  0.88441  0.53068  0.03801  1.0000
  C   C890      1.0  0.90683  0.53017  0.05432  1.0000
  H   H1055     1.0  0.66160  0.95808  0.98242  1.0000
  C   C891      1.0  0.85631  0.69755  0.42328  1.0000
  C   C892      1.0  0.67550  0.60331  0.28199  1.0000
  H   H1056     1.0  0.79575  0.91736  0.37690  1.0000
  H   H1057     1.0  0.69724  0.86186  0.38715  1.0000
  C   C893      1.0  0.87535  0.67001  0.02534  1.0000
  H   H1058     1.0  0.94196  0.48694  0.36017  1.0000
  C   C894      1.0  0.90824  0.52320  0.37713  1.0000
  C   C895      1.0  0.94102  0.49765  0.05988  1.0000
  H   H1059     1.0  0.83777  0.55512  0.07794  1.0000
  C   C896      1.0  0.73707  0.77825  0.43453  1.0000
  Fe  Fe118     1.0  0.74309  0.80267  0.95276  1.0000
  H   H1060     1.0  0.84003  0.70759  0.41404  1.0000
  H   H1061     1.0  0.74383  0.92450  0.43264  1.0000
  H   H1062     1.0  0.92952  0.53289  0.00659  1.0000
  C   C897      1.0  0.72777  0.92767  0.41951  1.0000
  H   H1063     1.0  0.72354  0.60091  0.23591  1.0000
  H   H1064     1.0  0.97453  0.52564  0.39228  1.0000
  N   N59       1.0  0.71304  0.88030  0.42087  1.0000
  C   C898      1.0  0.69018  0.93646  0.04721  1.0000
  C   C899      1.0  0.66901  0.95265  0.00092  1.0000
  H   H1065     1.0  0.95612  0.54570  0.07158  1.0000
  C   C900      1.0  0.68579  0.94027  0.38733  1.0000
  H   H1066     1.0  0.94242  0.50109  0.08066  1.0000
  S   S236      1.0  0.70924  0.83110  0.95393  1.0000
  H   H1067     1.0  0.91592  0.65758  0.02938  1.0000
  S   S237      1.0  0.71834  0.80344  0.44847  1.0000
  C   C901      1.0  0.68902  0.91920  0.02690  1.0000
  H   H1068     1.0  0.82164  0.89523  0.96122  1.0000
  H   H1069     1.0  0.67574  0.64762  0.30815  1.0000
  H   H1070     1.0  0.67536  0.90023  0.38864  1.0000
  C   C902      1.0  0.90598  0.66462  0.99039  1.0000
  H   H1071     1.0  0.69707  0.89973  0.02872  1.0000
  H   H1072     1.0  0.67841  0.91397  0.98786  1.0000
  C   C903      1.0  0.89871  0.67098  0.44750  1.0000
  C   C904      1.0  0.79337  0.95879  0.38297  1.0000
  H   H1073     1.0  0.86810  0.73069  0.44516  1.0000
  C   C905      1.0  0.70392  0.60069  0.24424  1.0000
  H   H1074     1.0  0.80134  0.90682  0.42250  1.0000
  C   C906      1.0  0.87207  0.71045  0.44092  1.0000
  C   C907      1.0  0.79932  0.94666  0.43435  1.0000
  H   H1075     1.0  0.66923  0.94536  0.37523  1.0000
  H   H1076     1.0  0.80166  0.64912  0.44278  1.0000
  Fe  Fe119     1.0  0.99075  0.61255  0.97703  1.0000
  H   H1077     1.0  0.68439  0.59666  0.20828  1.0000
  H   H1078     1.0  0.78684  0.89686  0.95324  1.0000
  H   H1079     1.0  0.99223  0.51301  0.95332  1.0000
  H   H1080     1.0  0.66091  0.65721  0.37834  1.0000
  H   H1081     1.0  0.79112  0.96204  0.36285  1.0000
  C   C908      1.0  0.68077  0.96192  0.04455  1.0000
  C   C909      1.0  0.83947  0.91334  0.91695  1.0000
  N   N60       1.0  0.92092  0.65764  0.46048  1.0000
  C   C910      1.0  0.88344  0.80947  0.79521  1.0000
  S   S238      1.0  0.74652  0.80329  0.91015  1.0000
  C   C911      1.0  0.77524  0.74812  0.50336  1.0000
  S   S239      1.0  0.74336  0.86618  0.91295  1.0000
  H   H1082     1.0  0.82157  0.77176  0.50156  1.0000
  Fe  Fe120     1.0  0.71391  0.83308  0.91161  1.0000
  S   S240      1.0  0.68068  0.82797  0.88232  1.0000
  Fe  Fe121     1.0  0.77571  0.83575  0.91536  1.0000
  S   S241      1.0  0.81392  0.84396  0.89285  1.0000
  H   H1083     1.0  0.79733  0.92878  0.89047  1.0000
  S   S242      1.0  0.97010  0.63585  0.94639  1.0000
  H   H1084     1.0  0.73284  0.92711  0.93747  1.0000
  C   C912      1.0  0.92964  0.76681  0.72149  1.0000
  H   H1085     1.0  0.67021  0.77265  0.87987  1.0000
  C   C913      1.0  0.92594  0.74856  0.74072  1.0000
  Fe  Fe122     1.0  0.96326  0.79893  0.58227  1.0000
  S   S243      1.0  0.92869  0.82462  0.56944  1.0000
  S   S244      1.0  0.96425  0.75657  0.59348  1.0000
  H   H1086     1.0  0.93600  0.76061  0.70279  1.0000
  H   H1087     1.0  0.96336  0.66077  0.46305  1.0000
  H   H1088     1.0  0.70827  0.92947  0.48086  1.0000
  C   C914      1.0  0.92614  0.79313  0.72656  1.0000
  H   H1089     1.0  0.92600  0.81331  0.82718  1.0000
  H   H1090     1.0  0.80725  0.74593  0.54112  1.0000
  Fe  Fe123     1.0  0.96493  0.78323  0.86400  1.0000
  S   S245      1.0  0.92311  0.78110  0.88130  1.0000
  S   S246      1.0  0.97443  0.75475  0.83268  1.0000
  Fe  Fe124     1.0  0.71411  0.83874  0.53635  1.0000
  S   S247      1.0  0.70949  0.85805  0.49828  1.0000
  S   S248      1.0  0.68205  0.83017  0.56587  1.0000
  Fe  Fe125     1.0  0.77349  0.82632  0.52730  1.0000
  S   S249      1.0  0.77267  0.84394  0.48818  1.0000
  S   S250      1.0  0.80719  0.80122  0.54331  1.0000
  Fe  Fe126     1.0  0.74906  0.87662  0.50586  1.0000
  S   S251      1.0  0.76330  0.91756  0.49504  1.0000
  Fe  Fe127     1.0  0.73340  0.82433  0.48345  1.0000
  H   H1091     1.0  0.94804  0.79624  0.80642  1.0000
  S   S252      1.0  0.75222  0.85991  0.54558  1.0000
  S   S253      1.0  0.73557  0.80409  0.52092  1.0000
  H   H1092     1.0  0.97500  0.69100  0.55768  1.0000
  C   C915      1.0  0.97691  0.65648  0.53422  1.0000
  C   C916      1.0  0.81058  0.94332  0.93911  1.0000
  H   H1093     1.0  0.83834  0.65712  0.47269  1.0000
  C   C917      1.0  0.91848  0.75650  0.76507  1.0000
  C   C918      1.0  0.89511  0.81742  0.56182  1.0000
  C   C919      1.0  0.88434  0.79252  0.56466  1.0000
  C   C920      1.0  0.85747  0.78799  0.55886  1.0000
  C   C921      1.0  0.84101  0.80820  0.55003  1.0000
  C   C922      1.0  0.85185  0.83301  0.54688  1.0000
  C   C923      1.0  0.87868  0.83756  0.55282  1.0000
  H   H1094     1.0  0.89663  0.77687  0.57169  1.0000
  H   H1095     1.0  0.84933  0.76876  0.56158  1.0000
  H   H1096     1.0  0.83951  0.84877  0.54019  1.0000
  H   H1097     1.0  0.88674  0.85691  0.55058  1.0000
  H   H1098     1.0  0.93337  0.82582  0.79614  1.0000
  H   H1099     1.0  0.91652  0.74136  0.77915  1.0000
  H   H1100     1.0  0.77275  0.91914  0.91313  1.0000
  H   H1101     1.0  0.93246  0.64721  0.49865  1.0000
  C   C924      1.0  0.98680  0.65486  0.92361  1.0000
  C   C925      1.0  0.82056  0.75329  0.49063  1.0000
  H   H1102     1.0  0.80143  0.94181  0.45434  1.0000
  H   H1103     1.0  0.86662  0.79915  0.78606  1.0000
  C   C926      1.0  0.84428  0.82633  0.89032  1.0000
  C   C927      1.0  0.84777  0.80168  0.90110  1.0000
  C   C928      1.0  0.87203  0.78835  0.89822  1.0000
  C   C929      1.0  0.89329  0.79947  0.88476  1.0000
  C   C930      1.0  0.88988  0.82424  0.87415  1.0000
  C   C931      1.0  0.86552  0.83746  0.87681  1.0000
  H   H1104     1.0  0.83172  0.79277  0.91151  1.0000
  H   H1105     1.0  0.87434  0.76923  0.90652  1.0000
  H   H1106     1.0  0.90603  0.83331  0.86407  1.0000
  H   H1107     1.0  0.86315  0.85653  0.86841  1.0000
  H   H1108     1.0  0.92945  0.72817  0.73680  1.0000
  H   H1109     1.0  0.84428  0.92747  0.90169  1.0000
  C   C932      1.0  0.82194  0.69297  0.48698  1.0000
  H   H1110     1.0  0.98980  0.82525  0.72532  1.0000
  C   C933      1.0  0.92945  0.80771  0.80705  1.0000
  H   H1111     1.0  0.83071  0.72350  0.52991  1.0000
  H   H1112     1.0  0.90477  0.70830  0.46629  1.0000
  H   H1113     1.0  0.81499  0.75845  0.47082  1.0000
  S   S254      1.0  0.99082  0.81201  0.61363  1.0000
  H   H1114     1.0  0.91751  0.82201  0.75407  1.0000
  C   C934      1.0  0.74669  0.94661  0.48580  1.0000
  C   C935      1.0  0.78058  0.68380  0.45318  1.0000
  H   H1115     1.0  0.85468  0.91534  0.93209  1.0000
  C   C936      1.0  0.79314  0.91513  0.90629  1.0000
  H   H1116     1.0  0.69686  0.77814  0.93206  1.0000
  H   H1117     1.0  0.89466  0.77870  0.83343  1.0000
  N   N61       1.0  0.67695  0.74726  0.91213  1.0000
  H   H1118     1.0  0.90577  0.61847  0.45759  1.0000
  C   C937      1.0  0.78021  0.70601  0.46839  1.0000
  H   H1119     1.0  0.79735  0.71281  0.53645  1.0000
  H   H1120     1.0  0.75949  0.73461  0.50997  1.0000
  C   C938      1.0  0.69818  0.72899  0.92005  1.0000
  C   C939      1.0  0.98380  0.68207  0.54114  1.0000
  H   H1121     1.0  0.70395  0.76679  0.88664  1.0000
  H   H1122     1.0  0.69990  0.71227  0.90682  1.0000
  H   H1123     1.0  0.73539  0.88784  0.45503  1.0000
  C   C940      1.0  0.80073  0.71107  0.48614  1.0000
  H   H1124     1.0  0.66348  0.78509  0.92461  1.0000
  H   H1125     1.0  0.89750  0.65003  0.49376  1.0000
  S   S255      1.0  0.98787  0.81616  0.84634  1.0000
  H   H1126     1.0  0.76918  0.75679  0.48493  1.0000
  H   H1127     1.0  0.97666  0.70930  0.88749  1.0000
  H   H1128     1.0  0.88477  0.75857  0.80753  1.0000
  H   H1129     1.0  0.76383  0.71916  0.46545  1.0000
  C   C941      1.0  0.68410  0.75742  0.88665  1.0000
  H   H1130     1.0  0.87689  0.81569  0.81449  1.0000
  H   H1131     1.0  0.66101  0.69581  0.92330  1.0000
  C   C942      1.0  0.91888  0.80133  0.75086  1.0000
  H   H1132     1.0  0.92993  0.80730  0.71173  1.0000
  H   H1133     1.0  0.91869  0.75889  0.81859  1.0000
  H   H1134     1.0  0.95402  0.68128  0.91913  1.0000
  N   N62       1.0  0.90716  0.79251  0.79650  1.0000
  C   C943      1.0  0.80134  0.66611  0.45493  1.0000
  H   H1135     1.0  0.88705  0.82767  0.78440  1.0000
  H   H1136     1.0  0.91805  0.67855  0.49609  1.0000
  C   C944      1.0  0.91442  0.78324  0.77081  1.0000
  H   H1137     1.0  0.94678  0.69124  0.46119  1.0000
  C   C945      1.0  0.90105  0.77113  0.81461  1.0000
  H   H1138     1.0  0.77566  0.76470  0.51685  1.0000
  C   C946      1.0  0.82198  0.67067  0.47183  1.0000
  H   H1139     1.0  0.71790  0.73872  0.92025  1.0000
  H   H1140     1.0  0.83889  0.69612  0.49902  1.0000
  N   N63       1.0  0.80132  0.73489  0.50187  1.0000
  H   H1141     1.0  0.84087  0.74509  0.49025  1.0000
  C   C947      1.0  0.80952  0.72882  0.52834  1.0000
  C   C948      1.0  0.94615  0.67088  0.45423  1.0000
  C   C949      1.0  0.97389  0.67654  0.91313  1.0000
  C   C950      1.0  0.91695  0.65849  0.48838  1.0000
  H   H1142     1.0  0.84173  0.89356  0.90849  1.0000
  C   C951      1.0  0.89297  0.69744  0.45289  1.0000
  C   C952      1.0  0.98668  0.69243  0.89519  1.0000
  C   C953      1.0  0.71994  0.94698  0.47910  1.0000
  C   C954      1.0  0.67695  0.76915  0.93041  1.0000
  N   N64       1.0  0.81253  0.91725  0.92733  1.0000
  C   C955      1.0  0.98834  0.64464  0.51283  1.0000
  H   H1143     1.0  0.96275  0.64579  0.54554  1.0000
  C   C956      1.0  0.99186  0.80447  0.72289  1.0000
  S   S256      1.0  0.97856  0.61285  0.50401  1.0000
  H   H1144     1.0  0.67108  0.76259  0.94973  1.0000
  H   H1145     1.0  0.98546  0.47467  0.92537  1.0000
  H   H1146     1.0  0.79318  0.89535  0.89774  1.0000
  C   C957      1.0  0.99192  0.79390  0.69817  1.0000
  H   H1147     1.0  0.68416  0.74167  0.87222  1.0000
  H   H1148     1.0  0.94042  0.62036  0.46359  1.0000
  H   H1149     1.0  0.69500  0.72176  0.93975  1.0000
  C   C958      1.0  0.80718  0.89561  0.94532  1.0000
  H   H1150     1.0  0.98954  0.80653  0.68191  1.0000
  H   H1151     1.0  0.80870  0.87632  0.93591  1.0000
  H   H1152     1.0  0.68653  0.88686  0.45210  1.0000
  C   C959      1.0  0.99312  0.47187  0.94434  1.0000
  C   C960      1.0  0.92386  0.62990  0.45319  1.0000
  Fe  Fe128     1.0  0.99376  0.76954  0.62352  1.0000
