data_image0
_chemical_formula_structural       SFeS4C8H4FeCHFeHNCHCH3Fe2SHCHSHCH2CHSCHC2H3CH3CHCFeNSC2H4CS2CSHFeCHCFeHCSH2CHCHCH3CH2C2FeHSHC3H3CH2C2HCFeH2SH3FeSH3C5HCH3CHCHC2HCS2HCHNH3C2H2CH2C2NCH2CHSCSFeHCHCHCFeS2FeSCSHCHFeCSCH2SH3C2HC7H4CHCHS2C2FeH2CHCH3NSH2C2HCH2C2H3CH2C2FeSHCH3CH2NHFeS2C4SCHC3FeNH2CFeCHCSHCHSCH2C2HCH6CNH3C2HCH3SH2CHCHCHFeHFeSH2CSCSCFeSCFeHNHCHCHSCSHC3H3CHC2H2C3HCH3CH5C2H4FeHSHS2FeC2S2HC2H2C6H7CNCSC3FeH4C2SHCH2CH2CHSC3H3CH2C2H4N2C2NH2C2SHCHCH3CSH2C5H2CHCHCHCFeCSFeSH2S2C4HC4H2C3H3CHCHCFeCH3C2HNH2CSCH2CH2C2H3CSFeSC2H2C6H6SC2H5C2H3C2H2C6NHCH4CH9C3HCH2CHSC2NSCH3CHC3FeCS2HC2HCH9C
_chemical_formula_sum              "S64 Fe32 C240 H288 N16"
_cell_length_a       29.51
_cell_length_b       29.562
_cell_length_c       35.3002
_cell_angle_alpha    89.5757
_cell_angle_beta     88.763
_cell_angle_gamma    81.1072

_space_group_name_H-M_alt    "P 1"
_space_group_IT_number       1

loop_
  _space_group_symop_operation_xyz
  'x, y, z'

loop_
  _atom_site_type_symbol
  _atom_site_label
  _atom_site_symmetry_multiplicity
  _atom_site_fract_x
  _atom_site_fract_y
  _atom_site_fract_z
  _atom_site_occupancy
  S   S1        1.0  0.06199  0.32850  0.22029  1.0000
  Fe  Fe1       1.0  0.12241  0.28908  0.24994  1.0000
  S   S2        1.0  0.19049  0.27549  0.21855  1.0000
  S   S3        1.0  0.38595  0.04215  0.15019  1.0000
  S   S4        1.0  0.10640  0.32520  0.30572  1.0000
  S   S5        1.0  0.31212  0.08170  0.24257  1.0000
  C   C1        1.0  0.12102  0.03448  0.31805  1.0000
  C   C2        1.0  0.03463  0.48364  0.27989  1.0000
  C   C3        1.0  0.22297  0.22102  0.22531  1.0000
  C   C4        1.0  0.23355  0.19130  0.19448  1.0000
  C   C5        1.0  0.26120  0.14849  0.19927  1.0000
  C   C6        1.0  0.27917  0.13577  0.23481  1.0000
  C   C7        1.0  0.26948  0.16595  0.26539  1.0000
  C   C8        1.0  0.24102  0.20822  0.26080  1.0000
  H   H1        1.0  0.22043  0.20158  0.16685  1.0000
  H   H2        1.0  0.26885  0.12562  0.17540  1.0000
  H   H3        1.0  0.28402  0.15669  0.29275  1.0000
  H   H4        1.0  0.23388  0.23150  0.28446  1.0000
  Fe  Fe2       1.0  0.06487  0.26908  0.31846  1.0000
  C   C9        1.0  0.20515  0.10834  0.32439  1.0000
  H   H5        1.0  0.23647  0.09289  0.30827  1.0000
  Fe  Fe3       1.0  0.32892  0.03537  0.19189  1.0000
  H   H6        1.0  0.44917  0.12420  0.29019  1.0000
  N   N1        1.0  0.45882  0.07021  0.24841  1.0000
  C   C10       1.0  0.07556  0.48199  0.25884  1.0000
  H   H7        1.0  0.45570  0.09009  0.18969  1.0000
  C   C11       1.0  0.19373  0.02302  0.28350  1.0000
  H   H8        1.0  0.40223  0.10413  0.21567  1.0000
  H   H9        1.0  0.09353  0.44938  0.24894  1.0000
  H   H10       1.0  0.22334  0.03501  0.27056  1.0000
  Fe  Fe4       1.0  0.02500  0.27078  0.23917  1.0000
  Fe  Fe5       1.0  0.04268  0.36015  0.27731  1.0000
  S   S6        1.0  0.27957  0.02306  0.14738  1.0000
  H   H11       1.0  0.13216  0.11940  0.25046  1.0000
  C   C12       1.0  0.19951  0.14846  0.08995  1.0000
  H   H12       1.0  0.09264  0.05503  0.33269  1.0000
  S   S7        1.0  0.08668  0.23007  0.26531  1.0000
  H   H13       1.0  0.45408  0.06717  0.30918  1.0000
  C   C13       1.0  0.44035  0.08955  0.28524  1.0000
  H   H14       1.0  0.40306  0.03119  0.24310  1.0000
  H   H15       1.0  0.16451  0.05327  0.12568  1.0000
  C   C14       1.0  0.15863  0.05362  0.30222  1.0000
  H   H16       1.0  0.19362  0.10591  0.24891  1.0000
  S   S8        1.0  0.33035  0.06091  0.05073  1.0000
  C   C15       1.0  0.44120  0.02629  0.24310  1.0000
  H   H17       1.0  0.48434  0.02888  0.14339  1.0000
  C   C16       1.0  0.18043  0.11945  0.11481  1.0000
  C   C17       1.0  0.21706  0.13224  0.05485  1.0000
  H   H18       1.0  0.23278  0.15455  0.03582  1.0000
  H   H19       1.0  0.09024  0.13016  0.31203  1.0000
  H   H20       1.0  0.20104  0.18352  0.09802  1.0000
  C   C18       1.0  0.17925  0.07389  0.10485  1.0000
  H   H21       1.0  0.16699  0.15960  0.26692  1.0000
  H   H22       1.0  0.40212  0.09310  0.28671  1.0000
  H   H23       1.0  0.44663  0.13738  0.22190  1.0000
  C   C19       1.0  0.16382  0.12261  0.26614  1.0000
  H   H24       1.0  0.16704  0.13234  0.14218  1.0000
  C   C20       1.0  0.21586  0.08689  0.04453  1.0000
  Fe  Fe6       1.0  0.33899  0.02219  0.10625  1.0000
  N   N2        1.0  0.16233  0.10287  0.30482  1.0000
  S   S9        1.0  0.01101  0.43361  0.29185  1.0000
  C   C21       1.0  0.19776  0.05597  0.06947  1.0000
  C   C22       1.0  0.44019  0.10179  0.21764  1.0000
  H   H25       1.0  0.13246  0.02349  0.03172  1.0000
  H   H26       1.0  0.45316  0.01028  0.21552  1.0000
  H   H27       1.0  0.12810  0.16706  0.32785  1.0000
  H   H28       1.0  0.20820  0.14513  0.32827  1.0000
  C   C23       1.0  0.12364  0.13037  0.32604  1.0000
  S   S10       1.0  0.11529  0.33372  0.62085  1.0000
  S   S11       1.0  0.06759  0.24603  0.59549  1.0000
  C   C24       1.0  0.20729  0.39889  0.65274  1.0000
  S   S12       1.0  0.06216  0.22941  0.37317  1.0000
  H   H29       1.0  0.02788  0.37258  0.35955  1.0000
  Fe  Fe7       1.0  0.11439  0.26185  0.64114  1.0000
  C   C25       1.0  0.07081  0.25876  0.41498  1.0000
  H   H30       1.0  0.09358  0.42524  0.47529  1.0000
  C   C26       1.0  0.09554  0.47967  0.43432  1.0000
  Fe  Fe8       1.0  0.06387  0.31953  0.57850  1.0000
  H   H31       1.0  0.21794  0.36822  0.63639  1.0000
  C   C27       1.0  0.07699  0.31010  0.48105  1.0000
  S   S13       1.0  0.18198  0.21481  0.64612  1.0000
  H   H32       1.0  0.21183  0.44061  0.60282  1.0000
  H   H33       1.0  0.11495  0.35135  0.44572  1.0000
  C   C28       1.0  0.02251  0.39757  0.38331  1.0000
  H   H34       1.0  0.20256  0.30556  0.66870  1.0000
  C   C29       1.0  0.18924  0.48165  0.65151  1.0000
  H   H35       1.0  0.05053  0.38804  0.40365  1.0000
  C   C30       1.0  0.09154  0.46183  0.47088  1.0000
  H   H36       1.0  0.10069  0.15317  0.63739  1.0000
  H   H37       1.0  0.07732  0.43977  0.62154  1.0000
  H   H38       1.0  0.02669  0.43152  0.37125  1.0000
  C   C31       1.0  0.05545  0.27115  0.48260  1.0000
  H   H39       1.0  0.14129  0.49012  0.36460  1.0000
  H   H40       1.0  0.10098  0.45515  0.41157  1.0000
  C   C32       1.0  0.09727  0.32196  0.44687  1.0000
  C   C33       1.0  0.06065  0.46735  0.67724  1.0000
  Fe  Fe9       1.0  0.05481  0.35264  0.66001  1.0000
  H   H41       1.0  0.08199  0.47647  0.53032  1.0000
  S   S14       1.0  0.07484  0.34751  0.51980  1.0000
  H   H42       1.0  0.26894  0.16347  0.66257  1.0000
  C   C34       1.0  0.09397  0.29656  0.41387  1.0000
  C   C35       1.0  0.05260  0.24537  0.44961  1.0000
  C   C36       1.0  0.07406  0.46993  0.63914  1.0000
  H   H43       1.0  0.10911  0.30643  0.38756  1.0000
  H   H44       1.0  0.03973  0.26174  0.50888  1.0000
  H   H45       1.0  0.25784  0.31918  0.68199  1.0000
  C   C37       1.0  0.08493  0.49077  0.50211  1.0000
  H   H46       1.0  0.03488  0.21595  0.45071  1.0000
  H   H47       1.0  0.16235  0.11291  0.67388  1.0000
  C   C38       1.0  0.20390  0.44042  0.63294  1.0000
  C   C39       1.0  0.09261  0.13575  0.66328  1.0000
  H   H48       1.0  0.08063  0.49259  0.35579  1.0000
  C   C40       1.0  0.04709  0.13758  0.67512  1.0000
  Fe  Fe10      1.0  0.01043  0.27070  0.63724  1.0000
  H   H49       1.0  0.01995  0.15582  0.65820  1.0000
  H   H50       1.0  0.12099  0.11839  0.35586  1.0000
  S   S15       1.0  0.05790  0.28117  0.68440  1.0000
  H   H51       1.0  0.20627  0.09200  0.35295  1.0000
  H   H52       1.0  0.20943  0.38395  0.76915  1.0000
  H   H53       1.0  0.12136  0.08574  0.79718  1.0000
  Fe  Fe11      1.0  0.31687  0.07405  0.79536  1.0000
  S   S16       1.0  0.27302  0.14379  0.80044  1.0000
  H   H54       1.0  0.15008  0.22839  0.72473  1.0000
  H   H55       1.0  0.15508  0.31305  0.74212  1.0000
  H   H56       1.0  0.15566  0.12550  0.77756  1.0000
  C   C41       1.0  0.18422  0.20877  0.72430  1.0000
  C   C42       1.0  0.20572  0.19412  0.75843  1.0000
  C   C43       1.0  0.24918  0.16688  0.75791  1.0000
  C   C44       1.0  0.27212  0.15656  0.72328  1.0000
  C   C45       1.0  0.22338  0.31398  0.69289  1.0000
  H   H57       1.0  0.20668  0.04679  0.69955  1.0000
  C   C46       1.0  0.20200  0.06524  0.72708  1.0000
  H   H58       1.0  0.30600  0.13649  0.72262  1.0000
  H   H59       1.0  0.20966  0.10037  0.72279  1.0000
  H   H60       1.0  0.18061  0.02455  0.00001  1.0000
  C   C47       1.0  0.33970  0.02985  0.93876  1.0000
  H   H61       1.0  0.18261  0.07345  0.79898  1.0000
  C   C48       1.0  0.07172  0.09292  0.73076  1.0000
  H   H62       1.0  0.06189  0.07762  0.75696  1.0000
  C   C49       1.0  0.15347  0.08845  0.78093  1.0000
  C   C50       1.0  0.05660  0.50688  0.69974  1.0000
  H   H63       1.0  0.22898  0.04797  0.74610  1.0000
  C   C51       1.0  0.03659  0.11639  0.70885  1.0000
  S   S17       1.0  0.34023  0.04028  0.74011  1.0000
  S   S18       1.0  0.38389  0.05042  0.82441  1.0000
  H   H64       1.0  0.04604  0.50520  0.72919  1.0000
  C   C52       1.0  0.11858  0.08999  0.71936  1.0000
  H   H65       1.0  0.13494  0.37355  0.74372  1.0000
  N   N3        1.0  0.15519  0.06574  0.74346  1.0000
  H   H66       1.0  0.48506  0.08056  0.78745  1.0000
  H   H67       1.0  0.18799  0.20245  0.78521  1.0000
  H   H68       1.0  0.26126  0.36791  0.74146  1.0000
  C   C53       1.0  0.34241  0.03080  0.00781  1.0000
  C   C54       1.0  0.17683  0.48151  0.68976  1.0000
  H   H69       1.0  0.16753  0.44187  0.73888  1.0000
  H   H70       1.0  0.33165  0.04762  0.91226  1.0000
  C   C55       1.0  0.15381  0.34563  0.72588  1.0000
  H   H71       1.0  0.23315  0.32524  0.76490  1.0000
  H   H72       1.0  0.31846  0.08972  0.97323  1.0000
  C   C56       1.0  0.33229  0.05362  0.97329  1.0000
  C   C57       1.0  0.22716  0.35821  0.74888  1.0000
  N   N4        1.0  0.20020  0.35448  0.71428  1.0000
  C   C58       1.0  0.17958  0.44021  0.70975  1.0000
  H   H73       1.0  0.22880  0.28268  0.71091  1.0000
  H   H74       1.0  0.13228  0.34321  0.70077  1.0000
  C   C59       1.0  0.14860  0.01737  0.74908  1.0000
  H   H75       1.0  0.49645  0.01669  0.84777  1.0000
  S   S19       1.0  0.05048  0.41493  0.69784  1.0000
  C   C60       1.0  0.20694  0.19752  0.68966  1.0000
  S   S20       1.0  0.28291  0.01576  0.81715  1.0000
  Fe  Fe12      1.0  0.40466  0.01146  0.77081  1.0000
  H   H76       1.0  0.11561  0.01413  0.76374  1.0000
  C   C61       1.0  0.25107  0.17191  0.68930  1.0000
  H   H77       1.0  0.49796  0.01645  0.89874  1.0000
  C   C62       1.0  0.19611  0.39765  0.69213  1.0000
  H   H78       1.0  0.23075  0.07589  0.01724  1.0000
  C   C63       1.0  0.12798  0.11230  0.68484  1.0000
  Fe  Fe13      1.0  0.11259  0.76938  0.30236  1.0000
  S   S21       1.0  0.06441  0.75371  0.25761  1.0000
  S   S22       1.0  0.17289  0.80852  0.29661  1.0000
  Fe  Fe14      1.0  0.07253  0.68259  0.28363  1.0000
  S   S23       1.0  0.09344  0.61588  0.25145  1.0000
  C   C64       1.0  0.01971  0.90210  0.27976  1.0000
  S   S24       1.0  0.12499  0.69733  0.32497  1.0000
  H   H79       1.0  0.11772  0.68777  0.19826  1.0000
  C   C65       1.0  0.25162  0.74215  0.19951  1.0000
  H   H80       1.0  0.24774  0.94885  0.04168  1.0000
  Fe  Fe15      1.0  0.30626  0.94840  0.15601  1.0000
  C   C66       1.0  0.22283  0.71785  0.17821  1.0000
  S   S25       1.0  0.25239  0.90129  0.15163  1.0000
  C   C67       1.0  0.19032  0.69107  0.23815  1.0000
  H   H81       1.0  0.13880  0.70225  0.15299  1.0000
  H   H82       1.0  0.25613  0.75211  0.08994  1.0000
  S   S26       1.0  0.36273  0.94673  0.11180  1.0000
  H   H83       1.0  0.09264  0.94940  0.22172  1.0000
  H   H84       1.0  0.20061  0.63677  0.15345  1.0000
  H   H85       1.0  0.21935  0.95366  0.26734  1.0000
  C   C68       1.0  0.25496  0.74897  0.12055  1.0000
  C   C69       1.0  0.02918  0.56700  0.28380  1.0000
  H   H86       1.0  0.25144  0.74214  0.23012  1.0000
  C   C70       1.0  0.09296  0.52276  0.25005  1.0000
  C   C71       1.0  0.19353  0.83443  0.25576  1.0000
  C   C72       1.0  0.17156  0.83555  0.22098  1.0000
  C   C73       1.0  0.18965  0.85655  0.18930  1.0000
  C   C74       1.0  0.22951  0.87686  0.19227  1.0000
  C   C75       1.0  0.25124  0.87587  0.22709  1.0000
  C   C76       1.0  0.23335  0.85467  0.25863  1.0000
  H   H87       1.0  0.14083  0.82017  0.21844  1.0000
  H   H88       1.0  0.17293  0.85677  0.16231  1.0000
  H   H89       1.0  0.28223  0.89087  0.22961  1.0000
  H   H90       1.0  0.25060  0.85382  0.28543  1.0000
  C   C77       1.0  0.06999  0.56545  0.26260  1.0000
  H   H91       1.0  0.30179  0.78805  0.19833  1.0000
  C   C78       1.0  0.28094  0.76890  0.18157  1.0000
  H   H92       1.0  0.22451  0.67732  0.24969  1.0000
  S   S27       1.0  0.05728  0.79208  0.34598  1.0000
  S   S28       1.0  0.48102  0.93438  0.16597  1.0000
  C   C79       1.0  0.15492  0.95835  0.29767  1.0000
  C   C80       1.0  0.02221  0.97896  0.23395  1.0000
  Fe  Fe16      1.0  0.40647  0.96661  0.15856  1.0000
  H   H93       1.0  0.01062  0.59965  0.29297  1.0000
  H   H94       1.0  0.09002  0.88134  0.26253  1.0000
  C   C81       1.0  0.28220  0.77279  0.14227  1.0000
  H   H95       1.0  0.26993  0.99029  0.06980  1.0000
  C   C82       1.0  0.22590  0.72164  0.13813  1.0000
  H   H96       1.0  0.20541  0.70386  0.12008  1.0000
  H   H97       1.0  0.30390  0.79491  0.12873  1.0000
  H   H98       1.0  0.17951  0.72649  0.24897  1.0000
  N   N5        1.0  0.19064  0.68986  0.19610  1.0000
  S   S29       1.0  0.35220  0.96061  0.20364  1.0000
  H   H99       1.0  0.13319  0.74371  0.19034  1.0000
  H   H100      1.0  0.23906  0.62763  0.19248  1.0000
  C   C83       1.0  0.20324  0.64134  0.18449  1.0000
  C   C84       1.0  0.14318  0.70668  0.18382  1.0000
  H   H101      1.0  0.18012  0.61920  0.19825  1.0000
  C   C85       1.0  0.24530  0.98618  0.04714  1.0000
  H   H102      1.0  0.16590  0.66968  0.25065  1.0000
  H   H103      1.0  0.12441  0.52113  0.23344  1.0000
  C   C86       1.0  0.16810  0.00657  0.02504  1.0000
  C   C87       1.0  0.06126  0.94572  0.23723  1.0000
  H   H104      1.0  0.15401  0.92181  0.29644  1.0000
  H   H105      1.0  0.01847  0.87180  0.29700  1.0000
  H   H106      1.0  0.36845  0.96627  0.03385  1.0000
  C   C88       1.0  0.05996  0.90735  0.26013  1.0000
  H   H107      1.0  0.18416  0.94248  0.08003  1.0000
  H   H108      1.0  0.09079  0.97330  0.32825  1.0000
  C   C89       1.0  0.01166  0.52632  0.29239  1.0000
  C   C90       1.0  0.11946  0.98746  0.31571  1.0000
  Fe  Fe17      1.0  0.00943  0.77175  0.30276  1.0000
  S   S30       1.0  0.01337  0.69947  0.32463  1.0000
  H   H109      1.0  0.20245  0.97903  0.11440  1.0000
  C   C91       1.0  0.18146  0.97902  0.08858  1.0000
  H   H110      1.0  0.25815  0.00122  0.02086  1.0000
  H   H111      1.0  0.11292  0.52996  0.33128  1.0000
  H   H112      1.0  0.14483  0.99079  0.09631  1.0000
  C   C92       1.0  0.19178  0.97621  0.28140  1.0000
  H   H113      1.0  0.02455  0.00778  0.21541  1.0000
  H   H114      1.0  0.45189  0.00139  0.26621  1.0000
  N   N6        1.0  0.19803  0.00773  0.05810  1.0000
  H   H115      1.0  0.28032  0.94131  0.58921  1.0000
  Fe  Fe18      1.0  0.07980  0.76769  0.62037  1.0000
  S   S31       1.0  0.08213  0.80949  0.56713  1.0000
  S   S32       1.0  0.13999  0.71609  0.63632  1.0000
  C   C93       1.0  0.07800  0.72898  0.53051  1.0000
  C   C94       1.0  0.07979  0.77575  0.52670  1.0000
  C   C95       1.0  0.07848  0.79581  0.49056  1.0000
  C   C96       1.0  0.07515  0.76908  0.45826  1.0000
  S   S33       1.0  0.02771  0.72171  0.63327  1.0000
  C   C97       1.0  0.31095  0.86695  0.66104  1.0000
  H   H116      1.0  0.07382  0.78472  0.43046  1.0000
  C   C98       1.0  0.26355  0.87284  0.59323  1.0000
  C   C99       1.0  0.08136  0.55067  0.64665  1.0000
  C   C100      1.0  0.07431  0.70242  0.49835  1.0000
  Fe  Fe19      1.0  0.06540  0.71877  0.36435  1.0000
  N   N7        1.0  0.09764  0.54789  0.38993  1.0000
  H   H117      1.0  0.07972  0.83204  0.48752  1.0000
  H   H118      1.0  0.18821  0.83507  0.57353  1.0000
  C   C101      1.0  0.07277  0.72237  0.46219  1.0000
  Fe  Fe20      1.0  0.08762  0.67140  0.65324  1.0000
  C   C102      1.0  0.19570  0.80713  0.59474  1.0000
  H   H119      1.0  0.23338  0.76162  0.65465  1.0000
  C   C103      1.0  0.26633  0.83168  0.61469  1.0000
  S   S34       1.0  0.09968  0.60030  0.62707  1.0000
  H   H120      1.0  0.07930  0.71311  0.55825  1.0000
  C   C104      1.0  0.08526  0.55620  0.46055  1.0000
  H   H121      1.0  0.26141  0.80392  0.54139  1.0000
  S   S35       1.0  0.06625  0.68800  0.42292  1.0000
  C   C105      1.0  0.28347  0.90991  0.60567  1.0000
  H   H122      1.0  0.16796  0.55583  0.39868  1.0000
  H   H123      1.0  0.25383  0.74674  0.55277  1.0000
  C   C106      1.0  0.08163  0.53791  0.49698  1.0000
  C   C107      1.0  0.25065  0.75267  0.62668  1.0000
  H   H124      1.0  0.23491  0.72388  0.61522  1.0000
  C   C108      1.0  0.29059  0.82990  0.64922  1.0000
  H   H125      1.0  0.05755  0.59604  0.35295  1.0000
  H   H126      1.0  0.32173  0.93601  0.64965  1.0000
  H   H127      1.0  0.17908  0.77851  0.58403  1.0000
  H   H128      1.0  0.04305  0.60414  0.40177  1.0000
  H   H129      1.0  0.07250  0.66632  0.50160  1.0000
  H   H130      1.0  0.17765  0.81929  0.62162  1.0000
  C   C109      1.0  0.05412  0.57742  0.38015  1.0000
  N   N8        1.0  0.24551  0.79271  0.60053  1.0000
  H   H131      1.0  0.30531  0.76755  0.56653  1.0000
  H   H132      1.0  0.08220  0.59306  0.45806  1.0000
  H   H133      1.0  0.28735  0.73885  0.63144  1.0000
  C   C110      1.0  0.30712  0.90693  0.63951  1.0000
  C   C111      1.0  0.13503  0.57626  0.38969  1.0000
  H   H134      1.0  0.12748  0.60622  0.40885  1.0000
  C   C112      1.0  0.26751  0.77711  0.56374  1.0000
  H   H135      1.0  0.24576  0.87676  0.56669  1.0000
  H   H136      1.0  0.02568  0.55706  0.37739  1.0000
  H   H137      1.0  0.29363  0.80077  0.66815  1.0000
  S   S36       1.0  0.07282  0.80238  0.67685  1.0000
  H   H138      1.0  0.14061  0.59079  0.36104  1.0000
  H   H139      1.0  0.07642  0.56039  0.52143  1.0000
  C   C113      1.0  0.09289  0.52762  0.42808  1.0000
  H   H140      1.0  0.18561  0.51377  0.63595  1.0000
  C   C114      1.0  0.08442  0.51139  0.62398  1.0000
  H   H141      1.0  0.09597  0.51274  0.59479  1.0000
  C   C115      1.0  0.10862  0.51340  0.35933  1.0000
  H   H142      1.0  0.18993  0.91881  0.68316  1.0000
  Fe  Fe21      1.0  0.35183  0.98894  0.84089  1.0000
  H   H143      1.0  0.50232  0.94077  0.93299  1.0000
  Fe  Fe22      1.0  0.02640  0.75135  0.69166  1.0000
  S   S37       1.0  0.08243  0.69748  0.71323  1.0000
  H   H144      1.0  0.10647  0.86323  0.81669  1.0000
  H   H145      1.0  0.17633  0.99819  0.76654  1.0000
  C   C116      1.0  0.03570  0.88199  0.76757  1.0000
  S   S38       1.0  0.37577  0.94826  0.78874  1.0000
  C   C117      1.0  0.06529  0.80225  0.78092  1.0000
  S   S39       1.0  0.18669  0.76258  0.73122  1.0000
  C   C118      1.0  0.50744  0.92713  0.83769  1.0000
  Fe  Fe23      1.0  0.30937  0.98047  0.76328  1.0000
  S   S40       1.0  0.25885  0.95426  0.72417  1.0000
  C   C119      1.0  0.07408  0.89331  0.74665  1.0000
  Fe  Fe24      1.0  0.12919  0.74712  0.69421  1.0000
  H   H146      1.0  0.10047  0.80419  0.76982  1.0000
  N   N9        1.0  0.04218  0.84610  0.79737  1.0000
  H   H147      1.0  0.10832  0.87575  0.75181  1.0000
  C   C120      1.0  0.49913  0.92401  0.90525  1.0000
  H   H148      1.0  0.25304  0.79948  0.77515  1.0000
  C   C121      1.0  0.36023  0.98416  0.00759  1.0000
  H   H149      1.0  0.46194  0.92198  0.90239  1.0000
  S   S41       1.0  0.36643  0.95175  0.89632  1.0000
  C   C122      1.0  0.20492  0.81681  0.73028  1.0000
  S   S42       1.0  0.47731  0.99651  0.74602  1.0000
  H   H150      1.0  0.09875  0.93424  0.70226  1.0000
  C   C123      1.0  0.23746  0.90181  0.72848  1.0000
  C   C124      1.0  0.25498  0.86812  0.75454  1.0000
  C   C125      1.0  0.23884  0.82569  0.75529  1.0000
  H   H151      1.0  0.07574  0.83469  0.85105  1.0000
  H   H152      1.0  0.32839  0.86543  0.68789  1.0000
  H   H153      1.0  0.28157  0.87440  0.77358  1.0000
  C   C126      1.0  0.18683  0.85086  0.70471  1.0000
  H   H154      1.0  0.38116  0.92425  0.97329  1.0000
  C   C127      1.0  0.36755  0.96040  0.97318  1.0000
  C   C128      1.0  0.07136  0.86013  0.82747  1.0000
  H   H155      1.0  0.14962  0.99933  0.72142  1.0000
  H   H156      1.0  0.47043  0.92386  0.83545  1.0000
  C   C129      1.0  0.35718  0.98309  0.93871  1.0000
  C   C130      1.0  0.06900  0.92702  0.71838  1.0000
  C   C131      1.0  0.02572  0.95091  0.71048  1.0000
  H   H157      1.0  0.05600  0.89385  0.83960  1.0000
  C   C132      1.0  0.48989  0.99680  0.87368  1.0000
  H   H158      1.0  0.02168  0.97685  0.68842  1.0000
  H   H159      1.0  0.06887  0.77385  0.80205  1.0000
  H   H160      1.0  0.06428  0.57850  0.70223  1.0000
  C   C133      1.0  0.20318  0.89310  0.70373  1.0000
  H   H161      1.0  0.16052  0.84457  0.68551  1.0000
  H   H162      1.0  0.04534  0.79159  0.75714  1.0000
  H   H163      1.0  0.45224  0.99585  0.87472  1.0000
  H   H164      1.0  0.16663  0.97081  0.01603  1.0000
  H   H165      1.0  0.16335  0.51358  0.70360  1.0000
  C   C134      1.0  0.06673  0.54850  0.68449  1.0000
  C   C135      1.0  0.81098  0.18668  0.10834  1.0000
  H   H166      1.0  0.71109  0.07074  0.02385  1.0000
  H   H167      1.0  0.79719  0.16218  0.08964  1.0000
  H   H168      1.0  0.67989  0.06507  0.06689  1.0000
  H   H169      1.0  0.94125  0.38942  0.35047  1.0000
  Fe  Fe25      1.0  0.80566  0.07423  0.17519  1.0000
  H   H170      1.0  0.87006  0.03023  0.27061  1.0000
  S   S43       1.0  0.82705  0.11984  0.22081  1.0000
  H   H171      1.0  0.87068  0.14559  0.05937  1.0000
  S   S44       1.0  0.64524  0.04988  0.14532  1.0000
  S   S45       1.0  0.80392  0.09338  0.03417  1.0000
  Fe  Fe26      1.0  0.79584  0.05809  0.09024  1.0000
  C   C136      1.0  0.92452  0.01117  0.20979  1.0000
  C   C137      1.0  0.89944  0.26700  0.09688  1.0000
  S   S46       1.0  0.75054  0.09797  0.13389  1.0000
  S   S47       1.0  0.77485  0.01167  0.19165  1.0000
  H   H172      1.0  0.54882  0.07310  0.13714  1.0000
  C   C138      1.0  0.86979  0.28364  0.17179  1.0000
  C   C139      1.0  0.55566  0.03699  0.14398  1.0000
  H   H173      1.0  0.94588  0.31506  0.10729  1.0000
  H   H174      1.0  0.96695  0.05535  0.28764  1.0000
  C   C140      1.0  0.87427  0.14938  0.21413  1.0000
  C   C141      1.0  0.88380  0.18010  0.24196  1.0000
  C   C142      1.0  0.92098  0.20444  0.23723  1.0000
  C   C143      1.0  0.94846  0.19854  0.20434  1.0000
  C   C144      1.0  0.93956  0.16697  0.17699  1.0000
  C   C145      1.0  0.90292  0.14210  0.18204  1.0000
  H   H175      1.0  0.86203  0.18554  0.26709  1.0000
  H   H176      1.0  0.92753  0.22875  0.25843  1.0000
  H   H177      1.0  0.64371  0.05512  0.24210  1.0000
  H   H178      1.0  0.89659  0.11768  0.16096  1.0000
  H   H179      1.0  0.61331  0.02875  0.06984  1.0000
  H   H180      1.0  0.82561  0.23481  0.16462  1.0000
  H   H181      1.0  0.96095  0.16217  0.15162  1.0000
  C   C146      1.0  0.90385  0.30629  0.15626  1.0000
  N   N10       1.0  0.84627  0.20921  0.08827  1.0000
  C   C147      1.0  0.53832  0.02189  0.24490  1.0000
  S   S48       1.0  0.85347  0.03994  0.13046  1.0000
  C   C148      1.0  0.88385  0.17276  0.07570  1.0000
  C   C149      1.0  0.86506  0.24283  0.11192  1.0000
  C   C150      1.0  0.85064  0.25220  0.15019  1.0000
  Fe  Fe27      1.0  0.72311  0.03238  0.14585  1.0000
  H   H182      1.0  0.90241  0.15592  0.10032  1.0000
  H   H183      1.0  0.79697  0.26079  0.06244  1.0000
  H   H184      1.0  0.91243  0.26146  0.06818  1.0000
  H   H185      1.0  0.91993  0.32916  0.17364  1.0000
  C   C151      1.0  0.60709  0.03794  0.03952  1.0000
  C   C152      1.0  0.91860  0.29805  0.11888  1.0000
  S   S49       1.0  0.99214  0.23185  0.19484  1.0000
  H   H186      1.0  0.85946  0.28916  0.20127  1.0000
  C   C153      1.0  0.67585  0.07167  0.03591  1.0000
  H   H187      1.0  0.78104  0.21194  0.11785  1.0000
  H   H188      1.0  0.90951  0.18602  0.05694  1.0000
  C   C154      1.0  0.53179  0.10433  0.25018  1.0000
  H   H189      1.0  0.65748  0.10721  0.03239  1.0000
  H   H190      1.0  0.82529  0.16663  0.13335  1.0000
  C   C155      1.0  0.60670  0.05786  0.24474  1.0000
  H   H191      1.0  0.89307  0.03671  0.20583  1.0000
  S   S50       1.0  0.99974  0.30562  0.29374  1.0000
  C   C156      1.0  0.95114  0.05592  0.25928  1.0000
  C   C157      1.0  0.82464  0.23231  0.05425  1.0000
  C   C158      1.0  0.60105  0.01573  0.14925  1.0000
  H   H192      1.0  0.92005  0.08261  0.26011  1.0000
  H   H193      1.0  0.58693  0.01235  0.02826  1.0000
  H   H194      1.0  0.58565  0.07240  0.03963  1.0000
  C   C159      1.0  0.58611  0.01860  0.24360  1.0000
  H   H195      1.0  0.97494  0.06836  0.23820  1.0000
  H   H196      1.0  0.59589  0.13107  0.24890  1.0000
  C   C160      1.0  0.57962  0.10063  0.24827  1.0000
  C   C161      1.0  0.51891  0.01207  0.14782  1.0000
  H   H197      1.0  0.84966  0.24687  0.03567  1.0000
  H   H198      1.0  0.80915  0.20795  0.03635  1.0000
  H   H199      1.0  0.51231  0.13825  0.25289  1.0000
  H   H200      1.0  0.95086  0.02038  0.18945  1.0000
  N   N11       1.0  0.93968  0.01025  0.24958  1.0000
  N   N12       1.0  0.65082  0.03797  0.01782  1.0000
  C   C162      1.0  0.50958  0.06512  0.24786  1.0000
  C   C163      1.0  0.97728  0.41368  0.47297  1.0000
  N   N13       1.0  0.97706  0.39837  0.40204  1.0000
  H   H201      1.0  0.93917  0.34919  0.42827  1.0000
  H   H202      1.0  0.89911  0.15612  0.64905  1.0000
  C   C164      1.0  0.75304  0.21146  0.67898  1.0000
  C   C165      1.0  0.78572  0.22131  0.65208  1.0000
  S   S51       1.0  0.95164  0.22909  0.63867  1.0000
  H   H203      1.0  0.97981  0.43071  0.53204  1.0000
  C   C166      1.0  0.97625  0.44401  0.50329  1.0000
  H   H204      1.0  0.97330  0.32794  0.38745  1.0000
  C   C167      1.0  0.94091  0.41422  0.37417  1.0000
  H   H205      1.0  0.78678  0.20670  0.62394  1.0000
  H   H206      1.0  0.90620  0.41896  0.38788  1.0000
  H   H207      1.0  0.00063  0.33446  0.43058  1.0000
  C   C168      1.0  0.97382  0.42973  0.43488  1.0000
  S   S52       1.0  0.00273  0.34379  0.61622  1.0000
  H   H208      1.0  0.94582  0.44679  0.35992  1.0000
  H   H209      1.0  0.72968  0.18918  0.66991  1.0000
  C   C169      1.0  0.97211  0.35060  0.41269  1.0000
  C   C170      1.0  0.81790  0.24900  0.66147  1.0000
  C   C171      1.0  0.90413  0.16963  0.67679  1.0000
  C   C172      1.0  0.97188  0.49097  0.49677  1.0000
  C   C173      1.0  0.97075  0.47774  0.42920  1.0000
  H   H210      1.0  0.97019  0.49233  0.40104  1.0000
  H   H211      1.0  0.98184  0.37774  0.48032  1.0000
  C   C174      1.0  0.93045  0.20510  0.68027  1.0000
  H   H212      1.0  0.84397  0.25560  0.64087  1.0000
  C   C175      1.0  0.96940  0.50782  0.45978  1.0000
  H   H213      1.0  0.55276  0.11816  0.80102  1.0000
  C   C176      1.0  0.55735  0.08652  0.78522  1.0000
  H   H214      1.0  0.56231  0.08006  0.90992  1.0000
  C   C177      1.0  0.51890  0.06528  0.77758  1.0000
  Fe  Fe28      1.0  0.81957  0.09269  0.78162  1.0000
  C   C178      1.0  0.75176  0.22939  0.71636  1.0000
  S   S53       1.0  0.85826  0.15329  0.78490  1.0000
  Fe  Fe29      1.0  0.72376  0.06283  0.77745  1.0000
  S   S54       1.0  0.64871  0.09572  0.78208  1.0000
  H   H215      1.0  0.56894  0.06103  0.97687  1.0000
  H   H216      1.0  0.80738  0.11703  0.95542  1.0000
  S   S55       1.0  0.76407  0.08577  0.82497  1.0000
  S   S56       1.0  0.77662  0.07646  0.73334  1.0000
  C   C179      1.0  0.81807  0.26640  0.69798  1.0000
  C   C180      1.0  0.80663  0.05472  0.92426  1.0000
  C   C181      1.0  0.67829  0.06132  0.91428  1.0000
  C   C182      1.0  0.80698  0.08056  0.95746  1.0000
  H   H217      1.0  0.80731  0.07128  0.89696  1.0000
  C   C183      1.0  0.63485  0.07218  0.89899  1.0000
  C   C184      1.0  0.74071  0.19629  0.77821  1.0000
  C   C185      1.0  0.60156  0.06726  0.77236  1.0000
  C   C186      1.0  0.80638  0.01224  0.99546  1.0000
  H   H218      1.0  0.76331  0.21700  0.79292  1.0000
  H   H219      1.0  0.95688  0.24966  0.71925  1.0000
  C   C187      1.0  0.88292  0.15253  0.70878  1.0000
  C   C188      1.0  0.88768  0.17099  0.74456  1.0000
  C   C189      1.0  0.91512  0.20553  0.74822  1.0000
  H   H220      1.0  0.78819  0.26997  0.75331  1.0000
  H   H221      1.0  0.76308  0.16458  0.76873  1.0000
  H   H222      1.0  0.84448  0.28630  0.70552  1.0000
  C   C190      1.0  0.59602  0.07164  0.92208  1.0000
  H   H223      1.0  0.91908  0.21988  0.77584  1.0000
  C   C191      1.0  0.80647  0.05948  0.99312  1.0000
  H   H224      1.0  0.64076  0.01134  0.74159  1.0000
  C   C192      1.0  0.78571  0.25669  0.72513  1.0000
  Fe  Fe30      1.0  0.79591  0.01241  0.82936  1.0000
  C   C193      1.0  0.64439  0.04958  0.97715  1.0000
  H   H225      1.0  0.71599  0.18620  0.79979  1.0000
  H   H226      1.0  0.00096  0.11878  0.71816  1.0000
  H   H227      1.0  0.71302  0.28630  0.77301  1.0000
  C   C194      1.0  0.93672  0.22233  0.71624  1.0000
  C   C195      1.0  0.60700  0.02648  0.75178  1.0000
  H   H228      1.0  0.65784  0.18655  0.75411  1.0000
  N   N14       1.0  0.71722  0.22054  0.74549  1.0000
  H   H229      1.0  0.71743  0.04259  0.96320  1.0000
  H   H230      1.0  0.70859  0.06111  0.89623  1.0000
  C   C196      1.0  0.60043  0.06053  0.96063  1.0000
  S   S57       1.0  0.85510  0.02070  0.79014  1.0000
  C   C197      1.0  0.68305  0.05036  0.95271  1.0000
  H   H231      1.0  0.86195  0.12591  0.70557  1.0000
  H   H232      1.0  0.63138  0.08065  0.86908  1.0000
  C   C198      1.0  0.69092  0.26460  0.75884  1.0000
  H   H233      1.0  0.66404  0.20849  0.70733  1.0000
  H   H234      1.0  0.66361  0.25910  0.77990  1.0000
  C   C199      1.0  0.68362  0.19212  0.73170  1.0000
  C   C200      1.0  0.52428  0.02484  0.75649  1.0000
  H   H235      1.0  0.67423  0.28470  0.73473  1.0000
  H   H236      1.0  0.70069  0.15725  0.72329  1.0000
  H   H237      1.0  0.95040  0.92800  0.29224  1.0000
  C   C201      1.0  0.60951  0.96896  0.15787  1.0000
  S   S58       1.0  0.94167  0.81939  0.30036  1.0000
  Fe  Fe31      1.0  0.82002  0.97835  0.14418  1.0000
  S   S59       1.0  0.87090  0.91296  0.14572  1.0000
  C   C202      1.0  0.57251  0.94417  0.16243  1.0000
  C   C203      1.0  0.98051  0.93506  0.27675  1.0000
  H   H238      1.0  0.57914  0.90824  0.16996  1.0000
  H   H239      1.0  0.64433  0.95215  0.16191  1.0000
  C   C204      1.0  0.92243  0.84488  0.25708  1.0000
  C   C205      1.0  0.88140  0.87608  0.25678  1.0000
  C   C206      1.0  0.86548  0.89765  0.22289  1.0000
  C   C207      1.0  0.89025  0.88761  0.18900  1.0000
  C   C208      1.0  0.93125  0.85639  0.18931  1.0000
  C   C209      1.0  0.94750  0.83533  0.22328  1.0000
  H   H240      1.0  0.86172  0.88335  0.28283  1.0000
  H   H241      1.0  0.83356  0.92119  0.22283  1.0000
  H   H242      1.0  0.95045  0.84840  0.16312  1.0000
  H   H243      1.0  0.80685  0.99550  0.02278  1.0000
  H   H244      1.0  0.88747  0.97017  0.26678  1.0000
  H   H245      1.0  0.97972  0.52804  0.30833  1.0000
  S   S60       1.0  0.76588  0.99374  0.09953  1.0000
  C   C210      1.0  0.52699  0.96571  0.15771  1.0000
  C   C211      1.0  0.98061  0.97474  0.25377  1.0000
  H   H246      1.0  0.91643  0.97714  0.20113  1.0000
  H   H247      1.0  0.97910  0.81135  0.22320  1.0000
  H   H248      1.0  0.68177  0.98093  0.05194  1.0000
  H   H249      1.0  0.52493  0.99006  0.24239  1.0000
  H   H250      1.0  0.60733  0.98544  0.24022  1.0000
  C   C212      1.0  0.67820  0.99167  0.02166  1.0000
  C   C213      1.0  0.90001  0.00252  0.27415  1.0000
  H   H251      1.0  0.90885  0.00153  0.30465  1.0000
  H   H252      1.0  0.96408  0.83531  0.66505  1.0000
  H   H253      1.0  0.96708  0.54434  0.45484  1.0000
  C   C214      1.0  0.93800  0.81696  0.43033  1.0000
  C   C215      1.0  0.91563  0.86242  0.48641  1.0000
  H   H254      1.0  0.99645  0.86248  0.54942  1.0000
  H   H255      1.0  0.93918  0.81335  0.39969  1.0000
  C   C216      1.0  0.88643  0.84580  0.56626  1.0000
  C   C217      1.0  0.96097  0.86972  0.56166  1.0000
  C   C218      1.0  0.90986  0.89152  0.67753  1.0000
  C   C219      1.0  0.93554  0.82639  0.51051  1.0000
  C   C220      1.0  0.91679  0.85758  0.44696  1.0000
  C   C221      1.0  0.95727  0.78551  0.49256  1.0000
  N   N15       1.0  0.93445  0.83274  0.55218  1.0000
  H   H256      1.0  0.99146  0.78097  0.56629  1.0000
  C   C222      1.0  0.95436  0.79099  0.57330  1.0000
  H   H257      1.0  0.87009  0.87955  0.55523  1.0000
  H   H258      1.0  0.86484  0.81985  0.55808  1.0000
  H   H259      1.0  0.97456  0.75659  0.50820  1.0000
  H   H260      1.0  0.88450  0.84881  0.59778  1.0000
  C   C223      1.0  0.95815  0.78107  0.45309  1.0000
  H   H261      1.0  0.89942  0.89483  0.49791  1.0000
  H   H262      1.0  0.95200  0.79633  0.60454  1.0000
  H   H263      1.0  0.90142  0.88552  0.42907  1.0000
  H   H264      1.0  0.93620  0.76157  0.56735  1.0000
  H   H265      1.0  0.91523  0.91000  0.65169  1.0000
  H   H266      1.0  0.96401  0.87342  0.59286  1.0000
  H   H267      1.0  0.94503  0.90362  0.55060  1.0000
  H   H268      1.0  0.97527  0.74973  0.43997  1.0000
  H   H269      1.0  0.97150  0.51420  0.52045  1.0000
  C   C224      1.0  0.63530  0.97788  0.84738  1.0000
  C   C225      1.0  0.66182  0.95764  0.87689  1.0000
  C   C226      1.0  0.93001  0.82525  0.71824  1.0000
  H   H270      1.0  0.66228  0.91975  0.92889  1.0000
  C   C227      1.0  0.93739  0.84933  0.68500  1.0000
  H   H271      1.0  0.51698  0.88801  0.90619  1.0000
  H   H272      1.0  0.69835  0.95934  0.87719  1.0000
  C   C228      1.0  0.98740  0.94117  0.73081  1.0000
  H   H273      1.0  0.95359  0.95960  0.72446  1.0000
  S   S61       1.0  0.75270  0.98838  0.78409  1.0000
  C   C229      1.0  0.89587  0.84400  0.74436  1.0000
  C   C230      1.0  0.86941  0.88687  0.73749  1.0000
  N   N16       1.0  0.51671  0.95000  0.87340  1.0000
  S   S62       1.0  0.96308  0.77184  0.72806  1.0000
  C   C231      1.0  0.64132  0.93545  0.90605  1.0000
  H   H274      1.0  0.88989  0.82540  0.77004  1.0000
  H   H275      1.0  0.84320  0.90122  0.75781  1.0000
  H   H276      1.0  0.57301  0.97434  0.72735  1.0000
  C   C232      1.0  0.59429  0.93289  0.90560  1.0000
  H   H277      1.0  0.96067  0.90121  0.77301  1.0000
  C   C233      1.0  0.58831  0.97576  0.84679  1.0000
  C   C234      1.0  0.87596  0.91044  0.70384  1.0000
  C   C235      1.0  0.56636  0.95272  0.87554  1.0000
  Fe  Fe32      1.0  0.80930  0.00352  0.74418  1.0000
  C   C236      1.0  0.99204  0.90723  0.75890  1.0000
  S   S63       1.0  0.80123  0.97503  0.88555  1.0000
  S   S64       1.0  0.84199  0.96326  0.69379  1.0000
  H   H278      1.0  0.80516  0.94998  0.96416  1.0000
  C   C237      1.0  0.80566  0.98645  0.96223  1.0000
  C   C238      1.0  0.80531  0.00769  0.92654  1.0000
  H   H279      1.0  0.58080  0.91488  0.92892  1.0000
  C   C239      1.0  0.56849  0.00562  0.74366  1.0000
  H   H280      1.0  0.56924  0.99206  0.82338  1.0000
  H   H281      1.0  0.52782  0.89224  0.83562  1.0000
  H   H282      1.0  0.97529  0.82570  0.79439  1.0000
  H   H283      1.0  0.98001  0.86810  0.83020  1.0000
  H   H284      1.0  0.51586  0.94649  0.81203  1.0000
  H   H285      1.0  0.66195  0.96558  0.00662  1.0000
  H   H286      1.0  0.71374  0.99002  0.01002  1.0000
  H   H287      1.0  0.65127  0.99543  0.82480  1.0000
  H   H288      1.0  0.00424  0.80945  0.83722  1.0000
  C   C240      1.0  0.99849  0.83720  0.81556  1.0000
