data_image0
_chemical_formula_structural       CNCFeC2FeC2H2CH4C2SHFeH2CHCFe2C2HCSHCH4CFeSFeSHC2HCHCH2CSHCHC2SC3H2CH2C2HCH2CHCH4CSCH2CHC2H3C2SCFeC2H3CHFeHSHC6SH2CH2CHCH2SH2SCHSHC3HC2N2CHCSC2FeHFeH2C3H2SHSC4HCHCHCSHNHC2H2CFeC5HNCSH2CHCSCHCH3CH4SHS2CH3FeHSCS2CHSH2CH5SHCHC3HSCHCHSCH2CH3CH2CHC5HCHCH2CFeC2FeHC2SH3SHC2H3CHCHC2Fe2S4H2CH4SC3HCHSHNHCH2C4H2FeC2SH3C3HCH2CH2CSHC3H2C2FeHCH4CS2HC2HC2H3FeH8CFeSCFeHCHCH2CH2SCH5CH2CHC2H2CH2SH3CSHC3H2CHNH2FeSCFeHFeH3CNC2H2CH2FeC3H2NHFeCHC2SHCH2CHC6SHFeH5CHCHSCH2C2HFeSCH2CHCFeCHC3NCH2C3H2SH2C2HCH2FeHC2HSHCHCH3CSH2FeC2HSHCHC3H2CH2CS2HFeSH2CHNC2HCHSH2NC2NH2FeC2HCHCSCHSCSCHCFeH4NFeHC2FeC3H2CHFeHCH3SHC2SFeCHC3H2NH3SCH2CSCH4SCS2HC3FeH2CHSH2C2HC2HSHCHSHCH2C4HC2HC5NCS3CSHC6HC2HCH4CHSHCH3NCHCHC2H3CHSHCH7CSC3HCH3CNHNH2SH2SCSCSH3C5HCHCHSCH4FeHCH2CH2FeHCH2CH2FeCH2C2SC2H2CH2CS2H2SHCHSCFeHCHNCFeHNSFeH2SFeHC2HCFeH2NH2C2HCH3C2HSC2HCH2C2FeSC2H4CH2C2HCFeHC2HSH4SH2SCSH5CHSC2SHNHCSH3CSCHCHSHCNHCFeCSC2H3CH3CHFeC3SH3SC3HSHC2H3SCHS2HCHC3H5CHC3HC3HCFeC2HCHCH4CFeH2C3H2C2H2C4SH5CHCHC2SCHC2HCHCFeHSHCH2CHC2HC4H2C2H2C2H4C2HN2SC4HC2HC4NHCHCFeHC2HC3FeH7CH2C2H3C2SC2H2CSC2H4SHCS2H2C2H2C4HS2HC3H3CHCSCSFeH3NHCSFeHCHC3H2FeSHCH2CHSC3HNC3HSH2CH3SHCHFeC3H3CHNH3CS2H2CHSH2NH2C2HC3H2FeHCS3CFeHCNHC2H5C2H2CH4CHC2HCHCH5CHSCSCFeHCH3FeHCHCHCHSCH2CHCH2C2HCH4FeHFeSC3HFeH2SHCH2CH2CHCH2C3H2C2SHCH2CFeH5NHCHC2H2NHCS2H2S2H2CHCHCH3SC2H2C3HCHCFeHCH2CH2CH3CH2SHNSHC2HFeCHCH2C2SC2S2H2C2FeH8S2C3H3CSCHSHCHCH7SH2FeHCH2SHSH2CSC2FeHFeHCH3CHSC3HSNCHCHCFeSCH2CSHSH3FeHSHCHCFeH3C2H5C2HC3Fe2H4CHC2SHNCFeCSCHC2HC2HCH2CNCHCSFeH4FeNC2H2C4NH3FeHC2H2SC5H2C2H2SC4HC3HSC2SFeCNSHFeC2HCH2SHCH2FeCH2CHC2SC3H2CH3CH4CSHC2HCH2C2NHNSCHC3HC2H2C4H5SC4H2SH4CHSFeHSFeHC7HCHC2FeC2HFeH2CSC2HCHC2H3CH3FeCSHCHCHC2SCHSFeC3H2SHC2H4SHSHC2HCHCNC2HSCHC3HSFeHCSCH2CFeC3H6S2HCHC3H3SCH4CSHCSFeCH2NHSHC2HCH3C3H4CHSCH2SH2CHCHSHFe2SHSHCHC3H2CFeH3CHNH2CSCHSH3NC5FeSC2SCHCH3SCH3FeNSCHSCH2CHCHFeCHCHCH4CH4C2H2SH2CHC3HNHFeC4HCHSC3FeCH2FeHC2H2CH2SCHCFeCH3C2NCH5SH5SH2FeCHCH2C2H2CHCFeSCNH2C4HCHCHCSC2FeCH2C2H3CH4CSC2HC3HSHSC3HSC3H2SFe2HCSH2C2H4C4HC2H3CH2CSH2CSH3C3H3CH4CHCH2CH2CSH3C2SCHCHCH5CHCHCS2HSHC4NHC4H3SC2SHCFeHCH2C2HNHCFeH3C2HCH3CH2C2H3FeHSH2C2HC3FeC2S2HCHCHCFeCH4C2S2CHSCH2CH2CHCSH4CHC2HCSFeC2SCHCFeCNS2H3CHSHN2CH3C2H5FeCH3C5H2SHCFeC2H4C2HFeC2HCHSH2CHC4H7C2HCHCSCSHCNCH2CSCH2FeCH2C3HCH2CHCHCSCHNC2SHFeH2C4HCHCH8CHFeH2CH3C3H4CS2C2H2C2SHCH2C3HCHNHNH5C2SHCNHC2HCH2CH3CHCHNC2HSC2HC2FeH2CHCHNHFeCSHSHCH2NCH2CSH3CSHCSHCHFeCSHCHCSCHC2H2CSHC5H4C2H2CHC2H2FeHCH9C2HCH5NCH3FeNHC2H2CHCHFeCHCNCFeHCH3C5HCHCHNH2S2H6SC3HSH2NH4CSH2SHCH5SHC2H2CH2C5FeSHCSC3FeH6CH3C2S3H3SCSCHCHC6H2C2S2CHSHCFeC2HNCHCHCSHSHC2HFeCHCHCNFeHSFeCH2FeHCH4C2S2HCH3CHCSC2H2FeSCSHNH2CHC2HSCH2CHCHCHFeH2C2H4C2HSHSCSHC3NCSCH3CH2FeCH2C2HSH2Fe2H2CH2CFeSC3HFeH2C4H2FeCSCHSHS2CFeH2CH2CH4CSCHSC6NCH2CFeCHC2FeCFeCHC2H4CHCHCHSH2SCHC4H2C4SH3C2NSCFeCH3CH2C3HSH2CH2C2HC2HFeH2NH4NH5CH4C2HS2FeHFe2CFeHCH2NCHC3H2C2SHSCHSCSCH3CH2S2CSHSHCHSHC5SHCHCHSHCHCFeSH2CHC2H2SHNCH2CFe3CHC4H2CH2CH3CNCSHSFeH3C2H2SH4C2HCHCH3SH2CHCH3SCH5CSH2C3H4C2HCHCHC2FeHSH2C3HFeSH2C5HC2FeH2C3HCH2C2FeCHC2HCSHSHC3HSH2CHC2HSHCHC2SCH2C2H2CSHCHCH3C4SCNHC2NCH4CH2CHFeHFeCHCHC5H3CHCH2CHSHC2H2SH2CH4C2FeSC2HC5HCH4NH3CH4FeC2H2CFeC2SCH2CSC3H2SHFeHFeHC4H2CHCH2CHC3H2S2HSHCH2CHC5FeCHSFeHNHC4HCSC2H4S2HSH2NHC2HC2H2C2HFeC4H3FeH2C4H8NH2CHC3HC2HCHCHSH2SCHCSH3NHC3SCHC2H2C2H5C2HS2HCHC4H2CFeC2H3S2CHFeHNFeCHCH3C4HSH7CH3CH4FeCHS2H5NCHCHCSH2SH2C2SHCHC4HCH3SCHC7H2CHC4H2NHC3HC3HCSCH2CHCSHCH2CHCSFeCHNHCHCHSHFeH3CH4C3S2CH2FeCHFe2S2HSCNHCH2C3HNSH4FeH2FeCHCH6SHSCHSHFeHCH2CFeHSCHFeHCHFeC2HCH9CH2NHCSCS2H2SC2H4C2HCFeHCSCH3S2C3H2CSCH3CHCH2CFe2SCHFeSC2H3CHCS3C3SHC2S2HC3NCNCH2CH2SC4HC2H2CHSC2SC2HCHFeH4SH2C3H2SH3C2FeHCHCHSFe2SCH2CHFeC3H2FeCHCNH4S2HCH2Fe2H2CHCHNC2NHC2HCH2C2H2CFeSH3C2HS2C2HNSHCHFeC2HC2HC3H3SH5NCSCH2C2HCH2C2HSNHCFeCH2CHSCHFeHC2HCHFeHCH2CH2SH2C2H2CHSCHC3HC2H2CSCHCHSH3SC2SHFe2H2SH2CSC3H4SCHSC3FeCHCFeHFeHC2H2C4H2CHC2SHCHCH2CHCSH2CFeH4SH2FeSNH2CSFeCHSHC3HC2SCSC2H2S2C3HC2H2FeHC2HCHCSH2C2HSHCH2CHC2HCH2CFeHC3H4C2HC2HSFeHS2CH4CSCH4NH2C5SHCSCHCNFeHCH3C5H4CH2NCH3CFe2HSC2FeHCHCH4CH3CH2CH9SH5CHCFeHSHC2H2CHCFeSCHCHCHCSC2HCHCSH3CH2FeH2CH2SC2HCSH5FeHC2H3CH3NC7HFeHC2HCH3NCH2CFeC2H6SNCH2C2HCH2NHC2H4CH3CSCSCH3CHCHNCSHSH2CHCH2CH3C2HSH3SCHC2SCSC2FeSC2H2NHC2HC3H2FeHFeCSH4SC3FeCFeC4H3NHC2HSCHSHSHS2CH4FeHCNSC2SHC3HC2SH2SHC2HCH4CH2SCSC2H3CFeCH3CH2CH2CHC2HCH4CH3NC3HCHFeH5C3H4CSHNH4CFeSH2CH2CHCHFeCHCSNCH2C2HFeC3H4C2HNC4HCHC2HCH2C3H3C2SFeCFeC3FeH2CSHCH2CHC3SH2CFeCHC2H3CH2CSHCSC2NH4FeSCHC3SC5HCSCH3CH2CHSCHFeCHC2SCH2CHC2SH2CSH3CH4CH2C2HC2H2C2NFeCHFeCHCH3C2HC2HCSH3FeH2CHCHSH2C2SHC2HFeSNSCHFeH2C2H4CH5SCHC3SH3SH2C2HC2H3C3SNFeHNH2C2FeHC6SH4CSCHCNHC2H3CSHCH2CHS2HSCHCHSHNC2H2CHCHCHC2HS2HFeS2H2CH2NHSHFeCH4CHC3H2C2HCHC2H2SC3H2C2HSHCFeC2H4SCNH2CHC3SHSC3HNCHCHCHCH2C3HFeH2C2H3CSH4CH2C4HCH3SH2C2HC2HCSCH8C2HCH2NHCHC3H2S2FeC2SHSCHC2H4C2HC2SHCFeC2H3SH2FeHCHC3H2C4H3CHCHS2C5H2CFeC3HCH3CSH2C2H3C3H5CSC2H2FeCHC2H5CH2C2SCHSCNC2HCHFeC2HCHC4H2CSC2HCHNSFeC2H2C2H2NC2SCH4C2H2C2H6SCHCH3C2H2C5
_chemical_formula_sum              "C1980 N132 Fe264 H2376 S528"
_cell_length_a       60.1864
_cell_length_b       59.3461
_cell_length_c       27.5731
_cell_angle_alpha    87.1777
_cell_angle_beta     63.1529
_cell_angle_gamma    113.415

_space_group_name_H-M_alt    "P 1"
_space_group_IT_number       1

loop_
  _space_group_symop_operation_xyz
  'x, y, z'

loop_
  _atom_site_type_symbol
  _atom_site_label
  _atom_site_symmetry_multiplicity
  _atom_site_fract_x
  _atom_site_fract_y
  _atom_site_fract_z
  _atom_site_occupancy
  C   C1        1.0  0.25372  0.01205  0.95763  1.0000
  N   N1        1.0  0.34148  0.01165  0.87669  1.0000
  C   C2        1.0  0.10821  0.26013  0.05461  1.0000
  Fe  Fe1       1.0  0.17709  0.19374  0.07460  1.0000
  C   C3        1.0  0.08556  0.25949  0.05109  1.0000
  C   C4        1.0  0.18915  0.12564  0.99427  1.0000
  Fe  Fe2       1.0  0.29879  0.24880  0.64875  1.0000
  C   C5        1.0  0.01742  0.13932  0.78534  1.0000
  C   C6        1.0  0.26686  0.15040  0.74198  1.0000
  H   H1        1.0  0.01983  0.08590  0.72486  1.0000
  H   H2        1.0  0.12145  0.16145  0.80042  1.0000
  C   C7        1.0  0.15316  0.14240  0.91390  1.0000
  H   H3        1.0  0.01544  0.15828  0.66956  1.0000
  H   H4        1.0  0.33795  0.19339  0.07481  1.0000
  H   H5        1.0  0.42970  0.12038  0.64710  1.0000
  H   H6        1.0  0.43569  0.02027  0.84893  1.0000
  C   C8        1.0  0.26725  0.20375  0.93445  1.0000
  C   C9        1.0  0.95482  0.10171  0.67779  1.0000
  S   S1        1.0  0.04543  0.11859  0.93353  1.0000
  H   H7        1.0  0.22965  0.09075  0.89691  1.0000
  Fe  Fe3       1.0  0.12533  0.06129  0.61479  1.0000
  H   H8        1.0  0.04837  0.15497  0.69621  1.0000
  H   H9        1.0  0.36151  0.03988  0.91032  1.0000
  C   C10       1.0  0.07385  0.06672  0.61967  1.0000
  H   H10       1.0  0.06934  0.17872  0.84416  1.0000
  C   C11       1.0  0.41764  0.11522  0.62640  1.0000
  Fe  Fe4       1.0  0.33927  0.11248  0.92124  1.0000
  Fe  Fe5       1.0  0.43858  0.06370  0.99518  1.0000
  C   C12       1.0  0.09074  0.19017  0.83473  1.0000
  C   C13       1.0  0.15679  0.12238  0.89295  1.0000
  H   H11       1.0  0.04278  0.20265  0.64537  1.0000
  C   C14       1.0  0.44330  0.16405  0.92678  1.0000
  S   S2        1.0  0.39918  0.17453  0.98418  1.0000
  H   H12       1.0  0.28395  0.05236  0.82860  1.0000
  C   C15       1.0  0.27691  0.22657  0.08889  1.0000
  H   H13       1.0  0.20773  0.02090  0.64791  1.0000
  H   H14       1.0  0.98303  0.25006  0.96920  1.0000
  H   H15       1.0  0.05545  0.25205  0.81929  1.0000
  H   H16       1.0  0.24425  0.09700  0.66893  1.0000
  C   C16       1.0  0.36414  0.05556  0.80948  1.0000
  Fe  Fe6       1.0  0.39650  0.14468  0.81524  1.0000
  S   S3        1.0  0.08014  0.04497  0.08759  1.0000
  Fe  Fe7       1.0  0.12698  0.19442  0.07378  1.0000
  S   S4        1.0  0.26288  0.24467  0.73127  1.0000
  H   H17       1.0  0.17755  0.12361  0.87194  1.0000
  C   C17       1.0  0.12593  0.01921  0.96563  1.0000
  C   C18       1.0  0.35960  0.23991  0.93620  1.0000
  H   H18       1.0  0.14148  0.05991  0.94903  1.0000
  C   C19       1.0  0.28499  0.12130  0.70595  1.0000
  H   H19       1.0  0.10987  0.13114  0.84333  1.0000
  C   C20       1.0  0.19556  0.13962  0.75132  1.0000
  H   H20       1.0  0.24335  0.25750  0.83644  1.0000
  H   H21       1.0  0.38196  0.13292  0.08578  1.0000
  C   C21       1.0  0.11198  0.14063  0.80473  1.0000
  S   S5        1.0  0.20696  0.21573  0.98298  1.0000
  H   H22       1.0  0.21096  0.11758  0.91758  1.0000
  C   C22       1.0  0.01526  0.16539  0.95989  1.0000
  H   H23       1.0  0.99449  0.01520  0.92790  1.0000
  C   C23       1.0  0.05399  0.21637  0.60320  1.0000
  C   C24       1.0  0.41125  0.22363  0.66415  1.0000
  S   S6        1.0  0.39283  0.03681  0.03065  1.0000
  C   C25       1.0  0.14329  0.04373  0.96332  1.0000
  C   C26       1.0  0.41558  0.02799  0.92807  1.0000
  C   C27       1.0  0.05725  0.01387  0.91007  1.0000
  H   H24       1.0  0.23184  0.07675  0.95273  1.0000
  H   H25       1.0  0.00586  0.14488  0.97643  1.0000
  C   C28       1.0  0.20407  0.18185  0.71567  1.0000
  H   H26       1.0  0.25988  0.02307  0.02565  1.0000
  H   H27       1.0  0.20484  0.12953  0.64592  1.0000
  C   C29       1.0  0.04261  0.20841  0.79295  1.0000
  C   C30       1.0  0.28540  0.23684  0.83371  1.0000
  H   H28       1.0  0.44502  0.07801  0.77821  1.0000
  C   C31       1.0  0.14005  0.21891  0.76683  1.0000
  H   H29       1.0  0.27995  0.15754  0.87538  1.0000
  H   H30       1.0  0.26514  0.10370  0.98131  1.0000
  C   C32       1.0  0.12443  0.20483  0.86587  1.0000
  H   H31       1.0  0.29173  0.24882  0.79430  1.0000
  C   C33       1.0  0.21094  0.12129  0.95565  1.0000
  H   H32       1.0  0.20250  0.12733  0.76405  1.0000
  H   H33       1.0  0.40780  0.08746  0.01775  1.0000
  H   H34       1.0  0.15566  0.22952  0.72305  1.0000
  H   H35       1.0  0.28697  0.13779  0.94529  1.0000
  C   C34       1.0  0.32773  0.03611  0.76829  1.0000
  S   S7        1.0  0.07985  0.07435  0.92126  1.0000
  C   C35       1.0  0.23086  0.09932  0.65354  1.0000
  H   H36       1.0  0.03083  0.09157  0.05217  1.0000
  H   H37       1.0  0.97935  0.19923  0.89947  1.0000
  C   C36       1.0  0.13375  0.10092  0.89827  1.0000
  H   H38       1.0  0.10890  0.13653  0.70778  1.0000
  C   C37       1.0  0.19778  0.24575  0.73680  1.0000
  C   C38       1.0  0.03480  0.08033  0.69589  1.0000
  H   H39       1.0  0.40234  0.14227  0.65258  1.0000
  H   H40       1.0  0.15573  0.10871  0.77653  1.0000
  H   H41       1.0  0.17040  0.12586  0.61895  1.0000
  C   C39       1.0  0.26634  0.23463  0.05969  1.0000
  C   C40       1.0  0.10306  0.11898  0.94745  1.0000
  S   S8        1.0  0.22985  0.09973  0.79310  1.0000
  C   C41       1.0  0.03760  0.01413  0.77857  1.0000
  Fe  Fe8       1.0  0.04294  0.08000  0.93465  1.0000
  C   C42       1.0  0.40624  0.10413  0.03207  1.0000
  C   C43       1.0  0.29157  0.06317  0.89522  1.0000
  H   H42       1.0  0.41823  0.10287  0.79816  1.0000
  H   H43       1.0  0.39092  0.23522  0.78169  1.0000
  H   H44       1.0  0.29589  0.19046  0.70090  1.0000
  C   C44       1.0  0.20239  0.03973  0.09730  1.0000
  H   H45       1.0  0.04143  0.21528  0.75626  1.0000
  Fe  Fe9       1.0  0.35543  0.16596  0.86445  1.0000
  H   H46       1.0  0.42687  0.18287  0.04710  1.0000
  S   S9        1.0  0.42938  0.02477  0.74708  1.0000
  H   H47       1.0  0.17625  0.06647  0.97831  1.0000
  C   C45       1.0  0.02837  0.18158  0.98423  1.0000
  C   C46       1.0  0.10684  0.23745  0.07594  1.0000
  C   C47       1.0  0.41796  0.01234  0.89192  1.0000
  C   C48       1.0  0.08271  0.21404  0.09448  1.0000
  C   C49       1.0  0.20901  0.13220  0.05439  1.0000
  C   C50       1.0  0.11540  0.10649  0.76409  1.0000
  S   S10       1.0  0.12777  0.24071  0.61536  1.0000
  H   H48       1.0  0.17299  0.12498  0.98582  1.0000
  H   H49       1.0  0.37850  0.24706  0.67523  1.0000
  C   C51       1.0  0.35524  0.21774  0.86685  1.0000
  H   H50       1.0  0.28208  0.10219  0.70680  1.0000
  H   H51       1.0  0.99172  0.20793  0.82522  1.0000
  C   C52       1.0  0.34763  0.06190  0.74712  1.0000
  H   H52       1.0  0.06606  0.09986  0.71825  1.0000
  C   C53       1.0  0.34426  0.21902  0.92288  1.0000
  H   H53       1.0  0.04426  0.23536  0.06507  1.0000
  H   H54       1.0  0.32399  0.20386  0.95594  1.0000
  S   S11       1.0  0.18278  0.16994  0.90237  1.0000
  H   H55       1.0  0.27899  0.25326  0.02930  1.0000
  H   H56       1.0  0.40207  0.18667  0.70617  1.0000
  S   S12       1.0  0.26189  0.05121  0.74712  1.0000
  C   C54       1.0  0.00443  0.25613  0.73832  1.0000
  H   H57       1.0  0.17128  0.20968  0.86786  1.0000
  S   S13       1.0  0.98107  0.09277  0.95789  1.0000
  H   H58       1.0  0.23030  0.22597  0.05129  1.0000
  C   C55       1.0  0.04088  0.20796  0.96266  1.0000
  C   C56       1.0  0.42519  0.06990  0.65194  1.0000
  C   C57       1.0  0.18382  0.21678  0.82107  1.0000
  H   H59       1.0  0.98771  0.17877  0.85634  1.0000
  C   C58       1.0  0.04801  0.05917  0.62277  1.0000
  C   C59       1.0  0.31493  0.16699  0.66380  1.0000
  N   N2        1.0  0.25556  0.11788  0.92340  1.0000
  N   N3        1.0  0.02392  0.21248  0.84539  1.0000
  C   C60       1.0  0.12964  0.14652  0.70521  1.0000
  H   H60       1.0  0.40260  0.05513  0.67388  1.0000
  C   C61       1.0  0.96755  0.09500  0.70340  1.0000
  S   S14       1.0  0.20405  0.03945  0.74421  1.0000
  C   C62       1.0  0.23239  0.12203  0.96561  1.0000
  C   C63       1.0  0.95713  0.23803  0.93241  1.0000
  Fe  Fe10      1.0  0.22633  0.06098  0.78671  1.0000
  H   H61       1.0  0.11080  0.09606  0.80473  1.0000
  Fe  Fe11      1.0  0.00192  0.09763  0.00919  1.0000
  H   H62       1.0  0.12794  0.20449  0.90099  1.0000
  H   H63       1.0  0.37865  0.06431  0.82381  1.0000
  C   C64       1.0  0.06106  0.08841  0.69179  1.0000
  C   C65       1.0  0.43793  0.17696  0.01157  1.0000
  C   C66       1.0  0.23083  0.12774  0.01628  1.0000
  H   H64       1.0  0.36820  0.06949  0.01852  1.0000
  H   H65       1.0  0.39157  0.21554  0.66446  1.0000
  S   S15       1.0  0.99153  0.11183  0.08635  1.0000
  H   H66       1.0  0.19731  0.23122  0.71278  1.0000
  S   S16       1.0  0.30077  0.07593  0.98111  1.0000
  C   C67       1.0  0.40200  0.12789  0.62966  1.0000
  C   C68       1.0  0.27168  0.13812  0.86928  1.0000
  C   C69       1.0  0.25391  0.19562  0.90371  1.0000
  C   C70       1.0  0.41704  0.20690  0.68799  1.0000
  H   H67       1.0  0.21700  0.08005  0.65360  1.0000
  C   C71       1.0  0.04271  0.25824  0.65108  1.0000
  H   H68       1.0  0.39342  0.22175  0.01281  1.0000
  C   C72       1.0  0.32577  0.01999  0.81041  1.0000
  H   H69       1.0  0.14573  0.14623  0.66458  1.0000
  C   C73       1.0  0.17810  0.25468  0.82618  1.0000
  S   S17       1.0  0.15290  0.21562  0.98174  1.0000
  H   H70       1.0  0.00146  0.18694  0.63046  1.0000
  N   N4        1.0  0.12943  0.13465  0.75434  1.0000
  H   H71       1.0  0.08006  0.17909  0.92087  1.0000
  C   C74       1.0  0.31114  0.14207  0.66639  1.0000
  C   C75       1.0  0.34412  0.02914  0.83190  1.0000
  H   H72       1.0  0.23412  0.17408  0.72458  1.0000
  H   H73       1.0  0.25855  0.13729  0.85058  1.0000
  C   C76       1.0  0.14704  0.21925  0.80980  1.0000
  Fe  Fe12      1.0  0.23826  0.02791  0.70847  1.0000
  C   C77       1.0  0.35440  0.08387  0.09295  1.0000
  C   C78       1.0  0.36317  0.02382  0.89243  1.0000
  C   C79       1.0  0.43848  0.10999  0.75982  1.0000
  C   C80       1.0  0.38184  0.23686  0.82448  1.0000
  C   C81       1.0  0.02678  0.14919  0.72870  1.0000
  H   H74       1.0  0.05159  0.22057  0.98085  1.0000
  N   N5        1.0  0.38184  0.09656  0.09024  1.0000
  C   C82       1.0  0.98066  0.14489  0.75533  1.0000
  S   S18       1.0  0.20089  0.02823  0.86468  1.0000
  H   H75       1.0  0.30009  0.11035  0.08102  1.0000
  H   H76       1.0  0.03688  0.18786  0.79746  1.0000
  C   C83       1.0  0.96571  0.23431  0.97022  1.0000
  H   H77       1.0  0.26091  0.08914  0.88106  1.0000
  C   C84       1.0  0.19026  0.05370  0.08658  1.0000
  S   S19       1.0  0.11317  0.09069  0.64860  1.0000
  C   C85       1.0  0.12617  0.14048  0.94237  1.0000
  H   H78       1.0  0.25608  0.07671  0.09726  1.0000
  C   C86       1.0  0.15835  0.14495  0.74488  1.0000
  H   H79       1.0  0.02959  0.24717  0.80088  1.0000
  H   H80       1.0  0.16387  0.24720  0.87294  1.0000
  H   H81       1.0  0.09037  0.13424  0.81195  1.0000
  C   C87       1.0  0.39767  0.25461  0.04461  1.0000
  H   H82       1.0  0.10492  0.10523  0.04564  1.0000
  H   H83       1.0  0.32415  0.17407  0.03720  1.0000
  H   H84       1.0  0.38082  0.09184  0.75227  1.0000
  H   H85       1.0  0.31051  0.01854  0.94348  1.0000
  S   S20       1.0  0.17705  0.21312  0.62099  1.0000
  H   H86       1.0  0.09462  0.09931  0.76671  1.0000
  S   S21       1.0  0.95924  0.15054  0.73473  1.0000
  S   S22       1.0  0.09064  0.02096  0.65386  1.0000
  C   C88       1.0  0.29285  0.17118  0.70184  1.0000
  H   H87       1.0  0.12450  0.23823  0.07835  1.0000
  H   H88       1.0  0.06125  0.03879  0.81007  1.0000
  H   H89       1.0  0.18061  0.19968  0.80498  1.0000
  Fe  Fe13      1.0  0.02466  0.11018  0.88210  1.0000
  H   H90       1.0  0.17129  0.13442  0.07339  1.0000
  S   S23       1.0  0.40065  0.18109  0.83942  1.0000
  C   C89       1.0  0.28489  0.05493  0.95069  1.0000
  S   S24       1.0  0.42981  0.14919  0.72831  1.0000
  S   S25       1.0  0.33840  0.25358  0.64474  1.0000
  C   C90       1.0  0.24391  0.09258  0.91327  1.0000
  H   H91       1.0  0.24994  0.15371  0.77190  1.0000
  S   S26       1.0  0.33950  0.14635  0.95294  1.0000
  H   H92       1.0  0.40487  0.11545  0.00111  1.0000
  H   H93       1.0  0.01994  0.24469  0.87336  1.0000
  C   C91       1.0  0.00828  0.15143  0.71368  1.0000
  H   H94       1.0  0.07479  0.12633  0.08116  1.0000
  H   H95       1.0  0.98178  0.12356  0.87080  1.0000
  H   H96       1.0  0.43753  0.05987  0.65099  1.0000
  H   H97       1.0  0.10755  0.20396  0.74569  1.0000
  H   H98       1.0  0.25232  0.20584  0.82992  1.0000
  S   S27       1.0  0.04213  0.13968  0.80312  1.0000
  H   H99       1.0  0.13688  0.08581  0.88063  1.0000
  C   C92       1.0  0.97094  0.13440  0.81204  1.0000
  H   H100      1.0  0.39547  0.19886  0.08448  1.0000
  C   C93       1.0  0.32477  0.05865  0.05690  1.0000
  C   C94       1.0  0.08057  0.08152  0.65366  1.0000
  C   C95       1.0  0.16852  0.12916  0.75863  1.0000
  H   H101      1.0  0.20533  0.18251  0.60738  1.0000
  S   S28       1.0  0.38334  0.12273  0.90063  1.0000
  C   C96       1.0  0.05991  0.21334  0.09140  1.0000
  H   H102      1.0  0.31308  0.02858  0.75343  1.0000
  C   C97       1.0  0.21333  0.16589  0.72959  1.0000
  H   H103      1.0  0.11431  0.03255  0.84277  1.0000
  S   S29       1.0  0.15792  0.21998  0.09580  1.0000
  C   C98       1.0  0.98926  0.13136  0.82699  1.0000
  H   H104      1.0  0.25996  0.19089  0.97383  1.0000
  H   H105      1.0  0.32269  0.04907  0.02556  1.0000
  C   C99       1.0  0.35098  0.07079  0.05299  1.0000
  H   H106      1.0  0.30277  0.18428  0.09064  1.0000
  H   H107      1.0  0.05304  0.02946  0.89982  1.0000
  H   H108      1.0  0.00437  0.16208  0.89636  1.0000
  C   C100      1.0  0.44205  0.21609  0.68871  1.0000
  H   H109      1.0  0.17008  0.18489  0.71553  1.0000
  H   H110      1.0  0.96859  0.11570  0.63691  1.0000
  C   C101      1.0  0.02004  0.08780  0.09755  1.0000
  H   H111      1.0  0.96830  0.25646  0.90207  1.0000
  C   C102      1.0  0.28961  0.22853  0.91524  1.0000
  C   C103      1.0  0.26300  0.21211  0.85341  1.0000
  C   C104      1.0  0.27578  0.11862  0.94091  1.0000
  C   C105      1.0  0.02844  0.06584  0.66104  1.0000
  C   C106      1.0  0.02571  0.20224  0.89291  1.0000
  H   H112      1.0  0.10083  0.04666  0.81200  1.0000
  C   C107      1.0  0.99546  0.22357  0.68995  1.0000
  H   H113      1.0  0.03509  0.02909  0.76090  1.0000
  C   C108      1.0  0.44956  0.13307  0.72077  1.0000
  H   H114      1.0  0.20616  0.22658  0.81025  1.0000
  H   H115      1.0  0.21960  0.25567  0.72927  1.0000
  C   C109      1.0  0.38635  0.12234  0.60301  1.0000
  Fe  Fe14      1.0  0.98276  0.05571  0.95576  1.0000
  C   C110      1.0  0.03969  0.21826  0.91767  1.0000
  C   C111      1.0  0.98584  0.23373  0.73534  1.0000
  Fe  Fe15      1.0  0.17239  0.18965  0.97030  1.0000
  H   H116      1.0  0.13374  0.16663  0.70255  1.0000
  C   C112      1.0  0.01417  0.17547  0.91456  1.0000
  C   C113      1.0  0.29917  0.24598  0.86435  1.0000
  S   S30       1.0  0.26401  0.03054  0.61657  1.0000
  H   H117      1.0  0.20315  0.07072  0.05136  1.0000
  H   H118      1.0  0.29244  0.11480  0.90905  1.0000
  H   H119      1.0  0.25002  0.15001  0.62978  1.0000
  S   S31       1.0  0.99704  0.05758  0.66178  1.0000
  H   H120      1.0  0.96139  0.07246  0.77582  1.0000
  C   C114      1.0  0.10142  0.02866  0.82228  1.0000
  C   C115      1.0  0.09680  0.19038  0.87786  1.0000
  H   H121      1.0  0.96379  0.22428  0.76834  1.0000
  H   H122      1.0  0.24616  0.12887  0.02758  1.0000
  H   H123      1.0  0.18099  0.03041  0.01006  1.0000
  C   C116      1.0  0.43037  0.25025  0.64072  1.0000
  H   H124      1.0  0.08230  0.11757  0.96933  1.0000
  C   C117      1.0  0.27880  0.04596  0.87145  1.0000
  H   H125      1.0  0.42676  0.11574  0.02926  1.0000
  C   C118      1.0  0.17677  0.17166  0.72448  1.0000
  C   C119      1.0  0.38577  0.25949  0.89340  1.0000
  Fe  Fe16      1.0  0.99026  0.24445  0.05447  1.0000
  Fe  Fe17      1.0  0.18494  0.23981  0.00279  1.0000
  S   S32       1.0  0.00010  0.05903  0.01308  1.0000
  S   S33       1.0  0.96421  0.20554  0.05318  1.0000
  S   S34       1.0  0.15574  0.05162  0.62364  1.0000
  S   S35       1.0  0.33771  0.19056  0.85106  1.0000
  H   H126      1.0  0.43132  0.04781  0.91239  1.0000
  H   H127      1.0  0.02919  0.17359  0.01930  1.0000
  C   C120      1.0  0.10702  0.09950  0.92399  1.0000
  H   H128      1.0  0.04979  0.23884  0.90328  1.0000
  H   H129      1.0  0.34876  0.07444  0.71519  1.0000
  H   H130      1.0  0.21806  0.20232  0.69900  1.0000
  H   H131      1.0  0.29013  0.13650  0.83676  1.0000
  S   S36       1.0  0.30967  0.24731  0.07925  1.0000
  C   C121      1.0  0.36568  0.07165  0.76795  1.0000
  C   C122      1.0  0.09752  0.10735  0.08807  1.0000
  C   C123      1.0  0.31868  0.17742  0.07951  1.0000
  H   H132      1.0  0.30651  0.08270  0.87051  1.0000
  C   C124      1.0  0.26282  0.12543  0.74376  1.0000
  H   H133      1.0  0.44654  0.20305  0.70694  1.0000
  S   S37       1.0  0.35231  0.13143  0.83369  1.0000
  H   H134      1.0  0.97994  0.20616  0.69022  1.0000
  N   N6        1.0  0.17624  0.23389  0.79812  1.0000
  H   H135      1.0  0.06504  0.21866  0.78174  1.0000
  C   C125      1.0  0.39769  0.21767  0.08602  1.0000
  H   H136      1.0  0.38490  0.03085  0.85565  1.0000
  H   H137      1.0  0.32820  0.13877  0.63720  1.0000
  C   C126      1.0  0.11229  0.20442  0.77936  1.0000
  C   C127      1.0  0.16295  0.04741  0.97960  1.0000
  C   C128      1.0  0.95217  0.21031  0.00839  1.0000
  C   C129      1.0  0.06145  0.23607  0.06919  1.0000
  H   H138      1.0  0.19487  0.26047  0.71745  1.0000
  H   H139      1.0  0.12317  0.15570  0.95969  1.0000
  Fe  Fe18      1.0  0.38448  0.15840  0.92591  1.0000
  C   C130      1.0  0.39606  0.23054  0.04480  1.0000
  C   C131      1.0  0.99447  0.19902  0.85723  1.0000
  S   S38       1.0  0.02552  0.07295  0.87671  1.0000
  H   H140      1.0  0.21710  0.10559  0.68595  1.0000
  H   H141      1.0  0.12864  0.10069  0.72924  1.0000
  H   H142      1.0  0.42766  0.08301  0.67861  1.0000
  C   C132      1.0  0.42920  0.17221  0.97237  1.0000
  C   C133      1.0  0.03259  0.24029  0.83459  1.0000
  C   C134      1.0  0.02427  0.23590  0.64568  1.0000
  H   H143      1.0  0.20818  0.13663  0.09266  1.0000
  C   C135      1.0  0.18820  0.13106  0.04351  1.0000
  H   H144      1.0  0.29899  0.23348  0.94110  1.0000
  H   H145      1.0  0.99036  0.10353  0.68188  1.0000
  C   C136      1.0  0.26544  0.02948  0.98238  1.0000
  H   H146      1.0  0.35096  0.24113  0.97931  1.0000
  H   H147      1.0  0.23611  0.17671  0.91934  1.0000
  C   C137      1.0  0.39326  0.01790  0.98415  1.0000
  S   S39       1.0  0.14386  0.16643  0.06060  1.0000
  H   H148      1.0  0.22470  0.04587  0.07016  1.0000
  C   C138      1.0  0.39709  0.25773  0.83778  1.0000
  C   C139      1.0  0.22158  0.03005  0.60309  1.0000
  C   C140      1.0  0.23880  0.21912  0.07200  1.0000
  H   H149      1.0  0.43675  0.16047  0.89608  1.0000
  H   H150      1.0  0.33881  0.14436  0.06159  1.0000
  C   C141      1.0  0.05287  0.01958  0.80627  1.0000
  C   C142      1.0  0.26051  0.02026  0.90222  1.0000
  Fe  Fe19      1.0  0.23438  0.01658  0.82150  1.0000
  H   H151      1.0  0.11084  0.01643  0.95236  1.0000
  C   C143      1.0  0.16506  0.02656  0.99900  1.0000
  H   H152      1.0  0.27903  0.14405  0.61252  1.0000
  H   H153      1.0  0.95522  0.15794  0.02442  1.0000
  H   H154      1.0  0.11298  0.02467  0.78179  1.0000
  H   H155      1.0  0.06927  0.02055  0.93212  1.0000
  C   C144      1.0  0.20732  0.12398  0.60788  1.0000
  S   S40       1.0  0.29501  0.21671  0.60849  1.0000
  S   S41       1.0  0.34650  0.19268  0.61044  1.0000
  H   H156      1.0  0.37461  0.13249  0.60477  1.0000
  C   C145      1.0  0.95116  0.07752  0.75663  1.0000
  C   C146      1.0  0.30122  0.05888  0.10072  1.0000
  H   H157      1.0  0.39414  0.16682  0.39924  1.0000
  C   C147      1.0  0.07377  0.10206  0.29265  1.0000
  C   C148      1.0  0.36099  0.19956  0.46875  1.0000
  H   H158      1.0  0.97749  0.01583  0.50933  1.0000
  H   H159      1.0  0.26853  0.19646  0.15155  1.0000
  H   H160      1.0  0.26008  0.06974  0.29988  1.0000
  Fe  Fe20      1.0  0.00967  0.07879  0.46817  1.0000
  H   H161      1.0  0.33994  0.19524  0.50477  1.0000
  H   H162      1.0  0.10624  0.01800  0.30444  1.0000
  H   H163      1.0  0.06022  0.04707  0.39048  1.0000
  H   H164      1.0  0.29093  0.14208  0.21227  1.0000
  H   H165      1.0  0.36428  0.22848  0.34381  1.0000
  H   H166      1.0  0.04326  0.04814  0.59546  1.0000
  H   H167      1.0  0.15699  0.22278  0.45090  1.0000
  H   H168      1.0  0.37658  0.20915  0.48197  1.0000
  C   C149      1.0  0.33509  0.08587  0.26832  1.0000
  Fe  Fe21      1.0  0.06158  0.11810  0.46531  1.0000
  S   S42       1.0  0.32992  0.23279  0.19087  1.0000
  C   C150      1.0  0.23298  0.18698  0.14071  1.0000
  Fe  Fe22      1.0  0.16867  0.04533  0.53735  1.0000
  H   H169      1.0  0.39412  0.17866  0.15449  1.0000
  C   C151      1.0  0.95439  0.13069  0.44082  1.0000
  H   H170      1.0  0.99807  0.20966  0.59160  1.0000
  C   C152      1.0  0.22075  0.20158  0.57960  1.0000
  H   H171      1.0  0.24138  0.19468  0.44752  1.0000
  H   H172      1.0  0.27634  0.15775  0.55689  1.0000
  C   C153      1.0  0.21165  0.11023  0.50996  1.0000
  H   H173      1.0  0.21225  0.16775  0.50631  1.0000
  H   H174      1.0  0.21302  0.10454  0.47225  1.0000
  S   S43       1.0  0.43718  0.11395  0.28356  1.0000
  C   C154      1.0  0.98915  0.01184  0.47077  1.0000
  H   H175      1.0  0.35170  0.13143  0.42263  1.0000
  H   H176      1.0  0.24031  0.16607  0.27492  1.0000
  H   H177      1.0  0.28298  0.12242  0.51620  1.0000
  H   H178      1.0  0.10451  0.12365  0.54988  1.0000
  H   H179      1.0  0.06464  0.08123  0.29605  1.0000
  C   C155      1.0  0.32072  0.01706  0.56008  1.0000
  H   H180      1.0  0.05799  0.13123  0.17620  1.0000
  H   H181      1.0  0.98975  0.19588  0.21546  1.0000
  C   C156      1.0  0.40172  0.09114  0.57003  1.0000
  H   H182      1.0  0.25518  0.15073  0.17181  1.0000
  C   C157      1.0  0.34132  0.16283  0.43522  1.0000
  C   C158      1.0  0.00160  0.09776  0.12466  1.0000
  H   H183      1.0  0.28099  0.04956  0.10321  1.0000
  H   H184      1.0  0.95846  0.20344  0.19764  1.0000
  C   C159      1.0  0.00854  0.23206  0.31805  1.0000
  H   H185      1.0  0.09687  0.11024  0.27529  1.0000
  H   H186      1.0  0.18072  0.20393  0.47247  1.0000
  S   S44       1.0  0.22413  0.04301  0.24528  1.0000
  H   H187      1.0  0.10440  0.15148  0.22914  1.0000
  H   H188      1.0  0.35617  0.09011  0.25702  1.0000
  H   H189      1.0  0.33364  0.15241  0.53950  1.0000
  C   C160      1.0  0.37401  0.20333  0.22463  1.0000
  S   S45       1.0  0.01705  0.04987  0.22759  1.0000
  H   H190      1.0  0.44110  0.07326  0.51662  1.0000
  C   C161      1.0  0.24367  0.11915  0.34228  1.0000
  C   C162      1.0  0.17683  0.15625  0.46509  1.0000
  C   C163      1.0  0.03630  0.10535  0.28848  1.0000
  H   H191      1.0  0.14442  0.16290  0.53304  1.0000
  H   H192      1.0  0.98881  0.16549  0.22313  1.0000
  C   C164      1.0  0.97306  0.24743  0.47593  1.0000
  H   H193      1.0  0.95325  0.11817  0.41384  1.0000
  N   N7        1.0  0.36159  0.17609  0.45346  1.0000
  H   H194      1.0  0.16753  0.13572  0.22064  1.0000
  H   H195      1.0  0.37018  0.16866  0.51878  1.0000
  Fe  Fe23      1.0  0.04471  0.03316  0.17766  1.0000
  S   S46       1.0  0.40380  0.12824  0.42882  1.0000
  C   C165      1.0  0.26033  0.20271  0.12908  1.0000
  Fe  Fe24      1.0  0.00758  0.12258  0.51906  1.0000
  H   H196      1.0  0.03832  0.06461  0.10788  1.0000
  Fe  Fe25      1.0  0.01054  0.07975  0.57676  1.0000
  H   H197      1.0  0.11109  0.09313  0.49432  1.0000
  H   H198      1.0  0.21125  0.07847  0.15284  1.0000
  H   H199      1.0  0.33008  0.09088  0.17204  1.0000
  C   C166      1.0  0.22918  0.11781  0.57580  1.0000
  N   N8        1.0  0.20189  0.18088  0.44943  1.0000
  C   C167      1.0  0.40298  0.25335  0.12648  1.0000
  C   C168      1.0  0.38266  0.07868  0.12800  1.0000
  H   H200      1.0  0.39472  0.19370  0.36624  1.0000
  H   H201      1.0  0.12440  0.05584  0.24304  1.0000
  C   C169      1.0  0.18575  0.01810  0.14387  1.0000
  H   H202      1.0  0.97829  0.02204  0.59831  1.0000
  H   H203      1.0  0.29221  0.12880  0.37633  1.0000
  Fe  Fe26      1.0  0.30457  0.24373  0.16499  1.0000
  C   C170      1.0  0.21645  0.19360  0.38830  1.0000
  C   C171      1.0  0.26771  0.04841  0.51816  1.0000
  C   C172      1.0  0.14447  0.02331  0.16633  1.0000
  H   H204      1.0  0.41252  0.18580  0.19092  1.0000
  H   H205      1.0  0.35789  0.14165  0.49488  1.0000
  N   N9        1.0  0.43493  0.08350  0.59397  1.0000
  H   H206      1.0  0.99870  0.25665  0.22442  1.0000
  Fe  Fe27      1.0  0.10735  0.01787  0.56552  1.0000
  C   C173      1.0  0.40587  0.26083  0.30348  1.0000
  H   H207      1.0  0.95909  0.17597  0.53667  1.0000
  C   C174      1.0  0.23100  0.09407  0.14412  1.0000
  C   C175      1.0  0.38587  0.04270  0.38747  1.0000
  S   S47       1.0  0.37054  0.09810  0.33721  1.0000
  H   H208      1.0  0.34749  0.24787  0.29578  1.0000
  C   C176      1.0  0.34258  0.02751  0.34235  1.0000
  H   H209      1.0  0.99571  0.19444  0.12213  1.0000
  H   H210      1.0  0.06126  0.20658  0.57044  1.0000
  C   C177      1.0  0.08096  0.14310  0.25329  1.0000
  H   H211      1.0  0.37186  0.11636  0.15487  1.0000
  C   C178      1.0  0.12566  0.12765  0.51806  1.0000
  C   C179      1.0  0.30062  0.09968  0.28038  1.0000
  C   C180      1.0  0.36499  0.02588  0.29762  1.0000
  C   C181      1.0  0.98007  0.17377  0.13961  1.0000
  C   C182      1.0  0.02838  0.24495  0.25976  1.0000
  C   C183      1.0  0.26055  0.25040  0.50467  1.0000
  S   S48       1.0  0.06730  0.02489  0.21609  1.0000
  H   H212      1.0  0.22008  0.16863  0.17229  1.0000
  Fe  Fe28      1.0  0.38479  0.13138  0.26848  1.0000
  H   H213      1.0  0.35517  0.04617  0.45977  1.0000
  H   H214      1.0  0.33705  0.03582  0.55608  1.0000
  H   H215      1.0  0.05376  0.01942  0.43554  1.0000
  H   H216      1.0  0.21726  0.07873  0.36107  1.0000
  H   H217      1.0  0.98555  0.07764  0.25954  1.0000
  C   C184      1.0  0.28204  0.13363  0.12779  1.0000
  H   H218      1.0  0.11474  0.08585  0.38837  1.0000
  C   C185      1.0  0.07761  0.11218  0.19994  1.0000
  H   H219      1.0  0.36548  0.07310  0.17261  1.0000
  S   S49       1.0  0.18986  0.01857  0.38312  1.0000
  C   C186      1.0  0.32108  0.12748  0.40032  1.0000
  H   H220      1.0  0.21415  0.21748  0.46761  1.0000
  H   H221      1.0  0.34980  0.16160  0.10377  1.0000
  C   C187      1.0  0.24900  0.20729  0.54471  1.0000
  C   C188      1.0  0.23113  0.11514  0.16415  1.0000
  H   H222      1.0  0.07398  0.16821  0.43754  1.0000
  Fe  Fe29      1.0  0.17027  0.24366  0.58868  1.0000
  S   S50       1.0  0.30448  0.23937  0.46678  1.0000
  C   C189      1.0  0.32760  0.10539  0.26959  1.0000
  H   H223      1.0  0.43973  0.26000  0.53521  1.0000
  H   H224      1.0  0.08879  0.06142  0.58994  1.0000
  C   C190      1.0  0.11540  0.06630  0.32297  1.0000
  H   H225      1.0  0.97992  0.23036  0.53546  1.0000
  C   C191      1.0  0.26873  0.10925  0.55963  1.0000
  Fe  Fe30      1.0  0.40605  0.12459  0.34656  1.0000
  C   C192      1.0  0.09214  0.17999  0.44036  1.0000
  H   H226      1.0  0.07544  0.15411  0.23077  1.0000
  C   C193      1.0  0.20710  0.10123  0.31901  1.0000
  C   C194      1.0  0.25628  0.13485  0.15545  1.0000
  C   C195      1.0  0.37823  0.24749  0.31476  1.0000
  N   N10       1.0  0.09606  0.04027  0.36274  1.0000
  C   C196      1.0  0.42314  0.23286  0.18671  1.0000
  H   H227      1.0  0.02498  0.03672  0.32792  1.0000
  H   H228      1.0  0.15084  0.21279  0.23584  1.0000
  C   C197      1.0  0.21248  0.22043  0.57782  1.0000
  C   C198      1.0  0.01610  0.02380  0.36844  1.0000
  C   C199      1.0  0.42915  0.09820  0.41581  1.0000
  H   H229      1.0  0.28928  0.16997  0.18919  1.0000
  H   H230      1.0  0.27033  0.06394  0.44191  1.0000
  S   S51       1.0  0.35265  0.13672  0.25631  1.0000
  H   H231      1.0  0.36697  0.21779  0.23849  1.0000
  H   H232      1.0  0.16883  0.19448  0.23351  1.0000
  C   C200      1.0  0.30363  0.07063  0.14177  1.0000
  C   C201      1.0  0.38577  0.12027  0.10875  1.0000
  H   H233      1.0  0.18293  0.21903  0.17280  1.0000
  C   C202      1.0  0.14653  0.09582  0.22684  1.0000
  H   H234      1.0  0.10247  0.09349  0.20155  1.0000
  H   H235      1.0  0.36668  0.21403  0.43227  1.0000
  Fe  Fe31      1.0  0.27147  0.25127  0.27910  1.0000
  H   H236      1.0  0.41108  0.04881  0.58020  1.0000
  C   C203      1.0  0.40182  0.22893  0.12763  1.0000
  C   C204      1.0  0.03521  0.20683  0.25027  1.0000
  H   H237      1.0  0.02543  0.08472  0.29136  1.0000
  S   S52       1.0  0.41748  0.15878  0.28424  1.0000
  H   H238      1.0  0.96076  0.17026  0.27709  1.0000
  C   C205      1.0  0.23539  0.14724  0.29401  1.0000
  H   H239      1.0  0.28516  0.07013  0.17693  1.0000
  C   C206      1.0  0.30526  0.13793  0.39380  1.0000
  H   H240      1.0  0.21654  0.21668  0.22439  1.0000
  H   H241      1.0  0.15919  0.10164  0.42201  1.0000
  H   H242      1.0  0.25479  0.11625  0.36156  1.0000
  C   C207      1.0  0.12271  0.08792  0.34367  1.0000
  S   S53       1.0  0.26599  0.02329  0.30001  1.0000
  H   H243      1.0  0.15224  0.21943  0.32470  1.0000
  H   H244      1.0  0.32364  0.12858  0.13508  1.0000
  Fe  Fe32      1.0  0.28907  0.20944  0.27276  1.0000
  C   C208      1.0  0.12806  0.07099  0.26313  1.0000
  C   C209      1.0  0.41049  0.19480  0.15775  1.0000
  H   H245      1.0  0.14650  0.12876  0.32414  1.0000
  S   S54       1.0  0.18002  0.07495  0.31925  1.0000
  H   H246      1.0  0.99754  0.24095  0.34608  1.0000
  C   C210      1.0  0.11791  0.21800  0.45985  1.0000
  H   H247      1.0  0.32181  0.17276  0.17665  1.0000
  C   C211      1.0  0.09490  0.20290  0.45450  1.0000
  C   C212      1.0  0.28878  0.05484  0.29029  1.0000
  C   C213      1.0  0.23118  0.11139  0.52542  1.0000
  H   H248      1.0  0.24699  0.10634  0.49797  1.0000
  H   H249      1.0  0.20125  0.12863  0.27874  1.0000
  C   C214      1.0  0.28106  0.07427  0.29097  1.0000
  H   H250      1.0  0.32489  0.19035  0.43859  1.0000
  H   H251      1.0  0.28985  0.05343  0.49730  1.0000
  C   C215      1.0  0.98976  0.09472  0.18287  1.0000
  S   S55       1.0  0.99254  0.15193  0.53167  1.0000
  S   S56       1.0  0.99666  0.05612  0.41501  1.0000
  H   H252      1.0  0.21140  0.11577  0.18804  1.0000
  Fe  Fe33      1.0  0.22641  0.01943  0.30667  1.0000
  S   S57       1.0  0.08168  0.18576  0.11952  1.0000
  H   H253      1.0  0.96982  0.16983  0.11388  1.0000
  H   H254      1.0  0.02788  0.10689  0.33263  1.0000
  C   C216      1.0  0.35544  0.15885  0.50375  1.0000
  H   H255      1.0  0.28231  0.10873  0.57637  1.0000
  N   N11       1.0  0.30808  0.15393  0.12237  1.0000
  C   C217      1.0  0.01549  0.19473  0.30766  1.0000
  C   C218      1.0  0.18765  0.12223  0.59260  1.0000
  H   H256      1.0  0.22914  0.16371  0.43684  1.0000
  C   C219      1.0  0.17407  0.22175  0.30212  1.0000
  H   H257      1.0  0.41503  0.03502  0.31911  1.0000
  S   S58       1.0  0.10832  0.14308  0.41544  1.0000
  H   H258      1.0  0.37337  0.19322  0.26078  1.0000
  H   H259      1.0  0.98709  0.19801  0.38608  1.0000
  N   N12       1.0  0.40247  0.21521  0.17307  1.0000
  C   C220      1.0  0.18954  0.11501  0.54425  1.0000
  C   C221      1.0  0.36869  0.25851  0.28755  1.0000
  N   N13       1.0  0.18829  0.23272  0.24013  1.0000
  H   H260      1.0  0.07880  0.20852  0.46262  1.0000
  H   H261      1.0  0.30954  0.02828  0.18830  1.0000
  Fe  Fe34      1.0  0.32010  0.24733  0.52693  1.0000
  C   C222      1.0  0.32969  0.08275  0.13830  1.0000
  C   C223      1.0  0.14897  0.15024  0.50786  1.0000
  H   H262      1.0  0.15601  0.09886  0.18137  1.0000
  C   C224      1.0  0.25619  0.09301  0.11358  1.0000
  H   H263      1.0  0.97582  0.10267  0.20380  1.0000
  C   C225      1.0  0.04169  0.23158  0.22641  1.0000
  S   S59       1.0  0.39540  0.05331  0.24563  1.0000
  C   C226      1.0  0.97222  0.14897  0.50056  1.0000
  H   H264      1.0  0.07820  0.02476  0.31238  1.0000
  S   S60       1.0  0.23422  0.25735  0.33113  1.0000
  C   C227      1.0  0.11000  0.03354  0.38917  1.0000
  S   S61       1.0  0.26340  0.21798  0.24350  1.0000
  C   C228      1.0  0.99517  0.08049  0.21427  1.0000
  H   H265      1.0  0.44609  0.05515  0.55999  1.0000
  C   C229      1.0  0.30221  0.15987  0.17732  1.0000
  Fe  Fe35      1.0  0.18535  0.03951  0.32065  1.0000
  H   H266      1.0  0.32187  0.04576  0.27757  1.0000
  H   H267      1.0  0.12948  0.03360  0.35679  1.0000
  H   H268      1.0  0.37453  0.10013  0.55145  1.0000
  H   H269      1.0  0.40235  0.24015  0.58257  1.0000
  N   N14       1.0  0.24803  0.11747  0.59616  1.0000
  Fe  Fe36      1.0  0.10170  0.03468  0.12687  1.0000
  H   H270      1.0  0.20028  0.14043  0.40457  1.0000
  C   C230      1.0  0.10553  0.09879  0.12221  1.0000
  C   C231      1.0  0.30678  0.16040  0.40844  1.0000
  Fe  Fe37      1.0  0.40261  0.09052  0.26772  1.0000
  C   C232      1.0  0.15635  0.11530  0.44590  1.0000
  C   C233      1.0  0.00090  0.02878  0.41853  1.0000
  C   C234      1.0  0.21708  0.23529  0.21371  1.0000
  H   H271      1.0  0.39204  0.06074  0.36130  1.0000
  H   H272      1.0  0.02938  0.11555  0.26824  1.0000
  C   C235      1.0  0.17202  0.21404  0.21969  1.0000
  H   H273      1.0  0.96885  0.23118  0.45898  1.0000
  Fe  Fe38      1.0  0.44711  0.14694  0.22081  1.0000
  H   H274      1.0  0.15232  0.18231  0.42465  1.0000
  C   C236      1.0  0.25051  0.14392  0.31762  1.0000
  H   H275      1.0  0.34296  0.04575  0.34389  1.0000
  H   H276      1.0  0.07357  0.05018  0.43787  1.0000
  H   H277      1.0  0.01049  0.17557  0.32627  1.0000
  S   S62       1.0  0.03863  0.07526  0.49441  1.0000
  H   H278      1.0  0.41227  0.08493  0.41127  1.0000
  C   C237      1.0  0.97947  0.24702  0.51905  1.0000
  C   C238      1.0  0.08783  0.02024  0.33500  1.0000
  S   S63       1.0  0.29456  0.24126  0.31415  1.0000
  Fe  Fe39      1.0  0.33682  0.22429  0.59696  1.0000
  C   C239      1.0  0.16125  0.04517  0.12026  1.0000
  H   H279      1.0  0.06454  0.10365  0.33672  1.0000
  C   C240      1.0  0.31573  0.06068  0.27907  1.0000
  C   C241      1.0  0.01219  0.06914  0.18740  1.0000
  C   C242      1.0  0.43308  0.06442  0.56125  1.0000
  H   H280      1.0  0.23412  0.21297  0.37611  1.0000
  H   H281      1.0  0.18597  0.23383  0.32046  1.0000
  N   N15       1.0  0.95933  0.16724  0.20071  1.0000
  H   H282      1.0  0.29463  0.16859  0.40253  1.0000
  H   H283      1.0  0.20184  0.19604  0.37696  1.0000
  H   H284      1.0  0.02227  0.19761  0.55578  1.0000
  S   S64       1.0  0.41552  0.12280  0.19905  1.0000
  C   C243      1.0  0.05246  0.24589  0.54288  1.0000
  H   H285      1.0  0.05979  0.23822  0.50591  1.0000
  H   H286      1.0  0.35789  0.18897  0.21745  1.0000
  C   C244      1.0  0.97006  0.13224  0.46695  1.0000
  S   S65       1.0  0.41825  0.24575  0.33334  1.0000
  C   C245      1.0  0.33093  0.14664  0.10507  1.0000
  H   H287      1.0  0.32002  0.11016  0.38801  1.0000
  H   H288      1.0  0.37987  0.06065  0.11567  1.0000
  H   H289      1.0  0.18811  0.02828  0.59187  1.0000
  H   H290      1.0  0.17224  0.20250  0.31270  1.0000
  S   S66       1.0  0.03600  0.12237  0.54999  1.0000
  C   C246      1.0  0.33904  0.13977  0.42029  1.0000
  S   S67       1.0  0.27782  0.17036  0.31711  1.0000
  S   S68       1.0  0.36187  0.25265  0.51208  1.0000
  H   H291      1.0  0.04574  0.19705  0.22406  1.0000
  C   C247      1.0  0.12931  0.11038  0.48674  1.0000
  C   C248      1.0  0.01325  0.20409  0.59397  1.0000
  C   C249      1.0  0.26888  0.23169  0.50712  1.0000
  Fe  Fe40      1.0  0.14604  0.25672  0.52258  1.0000
  H   H292      1.0  0.29480  0.11475  0.28095  1.0000
  H   H293      1.0  0.25546  0.19283  0.54678  1.0000
  C   C250      1.0  0.06982  0.03930  0.40833  1.0000
  H   H294      1.0  0.09618  0.01418  0.41944  1.0000
  S   S69       1.0  0.18731  0.17638  0.13025  1.0000
  H   H295      1.0  0.25788  0.08960  0.55698  1.0000
  H   H296      1.0  0.22621  0.25946  0.53822  1.0000
  C   C251      1.0  0.17978  0.13769  0.43576  1.0000
  C   C252      1.0  0.13878  0.21071  0.44863  1.0000
  H   H297      1.0  0.40302  0.08709  0.12720  1.0000
  C   C253      1.0  0.19024  0.25793  0.22436  1.0000
  C   C254      1.0  0.19495  0.19904  0.48064  1.0000
  H   H298      1.0  0.22580  0.18286  0.36128  1.0000
  S   S70       1.0  0.14103  0.05883  0.52546  1.0000
  H   H299      1.0  0.05730  0.23982  0.18183  1.0000
  C   C255      1.0  0.42966  0.12104  0.42662  1.0000
  H   H300      1.0  0.99160  0.16232  0.13190  1.0000
  S   S71       1.0  0.97978  0.08006  0.55257  1.0000
  H   H301      1.0  0.07444  0.14653  0.29580  1.0000
  C   C256      1.0  0.07080  0.12165  0.16311  1.0000
  H   H302      1.0  0.40702  0.19631  0.41524  1.0000
  H   H303      1.0  0.40114  0.07761  0.54527  1.0000
  C   C257      1.0  0.21329  0.12596  0.29593  1.0000
  C   C258      1.0  0.15305  0.11657  0.24878  1.0000
  C   C259      1.0  0.09567  0.10090  0.17747  1.0000
  C   C260      1.0  0.11272  0.17241  0.43016  1.0000
  H   H304      1.0  0.17357  0.11281  0.53390  1.0000
  C   C261      1.0  0.22195  0.17644  0.46053  1.0000
  C   C262      1.0  0.14115  0.11264  0.30704  1.0000
  H   H305      1.0  0.31069  0.02036  0.53688  1.0000
  C   C263      1.0  0.38619  0.10399  0.57333  1.0000
  C   C264      1.0  0.39888  0.02810  0.36339  1.0000
  C   C265      1.0  0.39056  0.18354  0.40675  1.0000
  C   C266      1.0  0.22233  0.09782  0.34212  1.0000
  C   C267      1.0  0.32443  0.17276  0.42906  1.0000
  N   N16       1.0  0.06740  0.11547  0.25768  1.0000
  C   C268      1.0  0.13627  0.18798  0.43340  1.0000
  S   S72       1.0  0.11991  0.24559  0.48166  1.0000
  S   S73       1.0  0.18689  0.25629  0.49592  1.0000
  S   S74       1.0  0.03489  0.12131  0.43246  1.0000
  C   C269      1.0  0.21047  0.03489  0.57146  1.0000
  S   S75       1.0  0.21409  0.05594  0.47634  1.0000
  H   H306      1.0  0.98068  0.12070  0.46052  1.0000
  C   C270      1.0  0.02472  0.07290  0.12901  1.0000
  C   C271      1.0  0.00228  0.20738  0.34142  1.0000
  C   C272      1.0  0.25672  0.05436  0.48686  1.0000
  C   C273      1.0  0.95784  0.16335  0.50990  1.0000
  C   C274      1.0  0.22805  0.04781  0.51384  1.0000
  C   C275      1.0  0.23237  0.24478  0.54006  1.0000
  H   H307      1.0  0.18473  0.19112  0.52697  1.0000
  C   C276      1.0  0.97527  0.17491  0.23059  1.0000
  C   C277      1.0  0.25017  0.03670  0.57665  1.0000
  H   H308      1.0  0.11609  0.04708  0.41282  1.0000
  C   C278      1.0  0.36437  0.03385  0.44427  1.0000
  H   H309      1.0  0.22868  0.24219  0.16678  1.0000
  H   H310      1.0  0.40748  0.13136  0.10101  1.0000
  H   H311      1.0  0.12201  0.01668  0.19233  1.0000
  H   H312      1.0  0.96047  0.02127  0.24415  1.0000
  C   C279      1.0  0.28145  0.11251  0.10506  1.0000
  H   H313      1.0  0.41693  0.24678  0.20634  1.0000
  S   S76       1.0  0.00540  0.25277  0.11549  1.0000
  H   H314      1.0  0.04149  0.19519  0.10480  1.0000
  C   C280      1.0  0.44561  0.02845  0.18742  1.0000
  H   H315      1.0  0.44765  0.04517  0.16426  1.0000
  H   H316      1.0  0.42501  0.22253  0.21843  1.0000
  H   H317      1.0  0.22987  0.24915  0.22833  1.0000
  N   N17       1.0  0.03554  0.22563  0.59741  1.0000
  C   C281      1.0  0.42013  0.25968  0.56880  1.0000
  H   H318      1.0  0.44901  0.07438  0.40467  1.0000
  C   C282      1.0  0.22214  0.19531  0.11248  1.0000
  H   H319      1.0  0.44448  0.24373  0.14827  1.0000
  C   C283      1.0  0.41798  0.09642  0.59668  1.0000
  C   C284      1.0  0.45012  0.09234  0.41174  1.0000
  H   H320      1.0  0.07333  0.23226  0.59836  1.0000
  H   H321      1.0  0.03992  0.25468  0.53878  1.0000
  H   H322      1.0  0.43110  0.20261  0.11735  1.0000
  C   C285      1.0  0.08048  0.11908  0.10821  1.0000
  H   H323      1.0  0.11940  0.09034  0.10566  1.0000
  S   S77       1.0  0.14613  0.06141  0.10266  1.0000
  H   H324      1.0  0.07209  0.26140  0.53766  1.0000
  C   C286      1.0  0.26403  0.14342  0.59889  1.0000
  H   H325      1.0  0.36315  0.01314  0.56605  1.0000
  H   H326      1.0  0.20861  0.26117  0.13374  1.0000
  H   H327      1.0  0.08654  0.44652  0.88917  1.0000
  H   H328      1.0  0.21500  0.31484  0.81834  1.0000
  H   H329      1.0  0.29293  0.29622  0.65855  1.0000
  H   H330      1.0  0.38618  0.43317  0.75207  1.0000
  H   H331      1.0  0.36468  0.41209  0.69925  1.0000
  C   C287      1.0  0.23372  0.29974  0.97483  1.0000
  S   S78       1.0  0.23181  0.40244  0.03837  1.0000
  C   C288      1.0  0.26698  0.34009  0.97380  1.0000
  C   C289      1.0  0.12510  0.34341  0.65424  1.0000
  C   C290      1.0  0.96742  0.32426  0.01943  1.0000
  H   H332      1.0  0.21762  0.31992  0.87875  1.0000
  C   C291      1.0  0.36852  0.33472  0.68531  1.0000
  H   H333      1.0  0.21276  0.41677  0.97009  1.0000
  H   H334      1.0  0.12143  0.30873  0.78443  1.0000
  H   H335      1.0  0.08978  0.46990  0.65620  1.0000
  C   C292      1.0  0.38149  0.40979  0.92590  1.0000
  N   N18       1.0  0.34555  0.39912  0.79001  1.0000
  H   H336      1.0  0.23264  0.45735  0.89953  1.0000
  N   N19       1.0  0.32243  0.27251  0.84286  1.0000
  H   H337      1.0  0.12685  0.27814  0.04109  1.0000
  H   H338      1.0  0.30017  0.48127  0.70493  1.0000
  S   S79       1.0  0.98168  0.49214  0.81781  1.0000
  H   H339      1.0  0.28130  0.45083  0.00058  1.0000
  H   H340      1.0  0.36844  0.50541  0.95631  1.0000
  S   S80       1.0  0.20292  0.28219  0.97322  1.0000
  C   C293      1.0  0.09434  0.38393  0.85452  1.0000
  S   S81       1.0  0.98876  0.32920  0.62646  1.0000
  C   C294      1.0  0.13528  0.31335  0.80145  1.0000
  S   S82       1.0  0.30881  0.41148  0.98945  1.0000
  H   H341      1.0  0.34812  0.33135  0.71914  1.0000
  H   H342      1.0  0.36831  0.42062  0.82776  1.0000
  H   H343      1.0  0.95784  0.42394  0.93655  1.0000
  C   C295      1.0  0.97853  0.45503  0.68248  1.0000
  C   C296      1.0  0.98080  0.37510  0.98417  1.0000
  C   C297      1.0  0.06984  0.37991  0.72376  1.0000
  C   C298      1.0  0.42675  0.44809  0.87646  1.0000
  C   C299      1.0  0.28949  0.49286  0.71643  1.0000
  H   H344      1.0  0.11419  0.49242  0.94675  1.0000
  C   C300      1.0  0.06778  0.38889  0.96619  1.0000
  H   H345      1.0  0.34291  0.26751  0.88650  1.0000
  C   C301      1.0  0.39196  0.49407  0.64793  1.0000
  H   H346      1.0  0.97924  0.37230  0.61605  1.0000
  S   S83       1.0  0.26684  0.36447  0.66145  1.0000
  C   C302      1.0  0.00735  0.39990  0.78714  1.0000
  H   H347      1.0  0.10345  0.31024  0.88399  1.0000
  H   H348      1.0  0.95297  0.28406  0.88152  1.0000
  H   H349      1.0  0.05588  0.41184  0.82288  1.0000
  H   H350      1.0  0.27354  0.36005  0.97213  1.0000
  Fe  Fe41      1.0  0.31926  0.43381  0.64298  1.0000
  H   H351      1.0  0.32447  0.33220  0.06436  1.0000
  C   C303      1.0  0.12025  0.31928  0.64544  1.0000
  H   H352      1.0  0.96306  0.42083  0.01628  1.0000
  H   H353      1.0  0.96573  0.40875  0.74687  1.0000
  C   C304      1.0  0.42290  0.47513  0.63182  1.0000
  H   H354      1.0  0.36516  0.38390  0.72307  1.0000
  H   H355      1.0  0.05864  0.39269  0.00811  1.0000
  Fe  Fe42      1.0  0.01463  0.30055  0.99740  1.0000
  H   H356      1.0  0.96115  0.30435  0.03185  1.0000
  C   C305      1.0  0.22117  0.42337  0.66656  1.0000
  H   H357      1.0  0.97646  0.47276  0.67888  1.0000
  H   H358      1.0  0.07339  0.50128  0.98940  1.0000
  C   C306      1.0  0.28233  0.32861  0.97918  1.0000
  H   H359      1.0  0.96750  0.40789  0.68115  1.0000
  H   H360      1.0  0.31188  0.36029  0.83410  1.0000
  Fe  Fe43      1.0  0.04570  0.28212  0.03910  1.0000
  C   C307      1.0  0.12523  0.31432  0.85734  1.0000
  H   H361      1.0  0.34822  0.50616  0.92514  1.0000
  H   H362      1.0  0.12494  0.44760  0.90152  1.0000
  C   C308      1.0  0.07253  0.42740  0.92072  1.0000
  C   C309      1.0  0.21196  0.45950  0.66307  1.0000
  S   S84       1.0  0.40345  0.28698  0.90850  1.0000
  C   C310      1.0  0.01611  0.42621  0.78103  1.0000
  C   C311      1.0  0.95781  0.30248  0.89246  1.0000
  H   H363      1.0  0.07880  0.36662  0.88884  1.0000
  H   H364      1.0  0.41796  0.27210  0.80525  1.0000
  C   C312      1.0  0.99954  0.36596  0.95194  1.0000
  H   H365      1.0  0.18218  0.47193  0.04457  1.0000
  H   H366      1.0  0.08507  0.44805  0.73981  1.0000
  C   C313      1.0  0.03292  0.26824  0.69653  1.0000
  S   S85       1.0  0.27849  0.41031  0.72422  1.0000
  S   S86       1.0  0.01827  0.32998  0.93502  1.0000
  H   H367      1.0  0.10259  0.36166  0.79542  1.0000
  H   H368      1.0  0.39197  0.28023  0.64437  1.0000
  S   S87       1.0  0.35831  0.46197  0.02995  1.0000
  H   H369      1.0  0.98511  0.32010  0.09398  1.0000
  C   C314      1.0  0.27354  0.30269  0.98190  1.0000
  H   H370      1.0  0.44011  0.46672  0.87676  1.0000
  S   S88       1.0  0.25435  0.36157  0.09449  1.0000
  C   C315      1.0  0.41416  0.49318  0.65125  1.0000
  Fe  Fe44      1.0  0.29969  0.37340  0.03306  1.0000
  H   H371      1.0  0.28389  0.44925  0.83225  1.0000
  C   C316      1.0  0.06490  0.40876  0.78152  1.0000
  H   H372      1.0  0.41076  0.49635  0.92273  1.0000
  N   N20       1.0  0.36177  0.32754  0.03563  1.0000
  C   C317      1.0  0.41077  0.36453  0.97729  1.0000
  Fe  Fe45      1.0  0.14754  0.28152  0.61604  1.0000
  H   H373      1.0  0.32870  0.31110  0.82322  1.0000
  N   N21       1.0  0.19141  0.33335  0.86728  1.0000
  S   S89       1.0  0.39050  0.35814  0.74838  1.0000
  Fe  Fe46      1.0  0.25935  0.39845  0.67079  1.0000
  H   H374      1.0  0.13849  0.39934  0.71216  1.0000
  H   H375      1.0  0.12073  0.47909  0.66191  1.0000
  S   S90       1.0  0.15323  0.49859  0.83095  1.0000
  Fe  Fe47      1.0  0.28800  0.37757  0.71128  1.0000
  H   H376      1.0  0.35342  0.36684  0.08247  1.0000
  C   C318      1.0  0.39276  0.34821  0.68832  1.0000
  C   C319      1.0  0.25550  0.27492  0.80221  1.0000
  H   H377      1.0  0.37176  0.31634  0.09566  1.0000
  C   C320      1.0  0.39687  0.26630  0.66044  1.0000
  Fe  Fe48      1.0  0.02059  0.48860  0.79562  1.0000
  H   H378      1.0  0.38475  0.50759  0.66427  1.0000
  H   H379      1.0  0.39151  0.31380  0.02593  1.0000
  N   N22       1.0  0.97861  0.44574  0.06054  1.0000
  H   H380      1.0  0.33278  0.46913  0.75169  1.0000
  H   H381      1.0  0.39213  0.44214  0.95825  1.0000
  C   C321      1.0  0.95470  0.40936  0.72388  1.0000
  C   C322      1.0  0.16326  0.31867  0.76720  1.0000
  H   H382      1.0  0.28516  0.29375  0.98696  1.0000
  C   C323      1.0  0.21526  0.35928  0.83304  1.0000
  H   H383      1.0  0.43802  0.42642  0.98075  1.0000
  H   H384      1.0  0.23122  0.33480  0.96654  1.0000
  H   H385      1.0  0.12705  0.44929  0.81655  1.0000
  C   C324      1.0  0.00750  0.45141  0.01625  1.0000
  C   C325      1.0  0.24297  0.32578  0.97079  1.0000
  H   H386      1.0  0.30042  0.49180  0.93186  1.0000
  S   S91       1.0  0.42457  0.35480  0.83754  1.0000
  C   C326      1.0  0.36135  0.32064  0.98491  1.0000
  C   C327      1.0  0.32820  0.41248  0.80282  1.0000
  H   H387      1.0  0.19339  0.33839  0.94265  1.0000
  C   C328      1.0  0.33234  0.32089  0.07899  1.0000
  H   H388      1.0  0.22694  0.36759  0.61296  1.0000
  H   H389      1.0  0.20053  0.43927  0.07509  1.0000
  C   C329      1.0  0.37415  0.45799  0.06752  1.0000
  C   C330      1.0  0.20707  0.43688  0.69415  1.0000
  Fe  Fe49      1.0  0.31943  0.42537  0.05436  1.0000
  S   S92       1.0  0.34791  0.47492  0.62966  1.0000
  C   C331      1.0  0.29614  0.43914  0.82465  1.0000
  C   C332      1.0  0.05869  0.38399  0.77699  1.0000
  H   H390      1.0  0.06478  0.36060  0.72022  1.0000
  H   H391      1.0  0.38159  0.32168  0.95298  1.0000
  H   H392      1.0  0.14994  0.44292  0.72353  1.0000
  H   H393      1.0  0.04961  0.37695  0.96140  1.0000
  C   C333      1.0  0.99729  0.48210  0.09830  1.0000
  H   H394      1.0  0.35081  0.29977  0.86420  1.0000
  H   H395      1.0  0.03339  0.44455  0.64480  1.0000
  C   C334      1.0  0.23194  0.43309  0.96162  1.0000
  C   C335      1.0  0.43711  0.43781  0.83078  1.0000
  H   H396      1.0  0.41811  0.35221  0.95486  1.0000
  C   C336      1.0  0.10090  0.40874  0.86280  1.0000
  Fe  Fe50      1.0  0.02511  0.50957  0.89179  1.0000
  H   H397      1.0  0.98804  0.45253  0.63926  1.0000
  C   C337      1.0  0.17910  0.48579  0.06731  1.0000
  C   C338      1.0  0.11149  0.47197  0.63540  1.0000
  H   H398      1.0  0.38853  0.41084  0.05656  1.0000
  S   S93       1.0  0.42534  0.31817  0.75274  1.0000
  H   H399      1.0  0.24191  0.26802  0.98356  1.0000
  H   H400      1.0  0.02270  0.45717  0.03117  1.0000
  H   H401      1.0  0.00568  0.36563  0.04651  1.0000
  H   H402      1.0  0.18556  0.29522  0.88830  1.0000
  S   S94       1.0  0.12577  0.29856  0.68082  1.0000
  H   H403      1.0  0.24865  0.46126  0.74453  1.0000
  H   H404      1.0  0.41475  0.48971  0.00780  1.0000
  S   S95       1.0  0.31350  0.38778  0.09329  1.0000
  C   C339      1.0  0.28664  0.32004  0.71430  1.0000
  S   S96       1.0  0.21684  0.39623  0.70543  1.0000
  H   H405      1.0  0.01318  0.47713  0.09518  1.0000
  H   H406      1.0  0.34015  0.27268  0.75483  1.0000
  H   H407      1.0  0.01459  0.39798  0.65848  1.0000
  H   H408      1.0  0.17046  0.34803  0.93394  1.0000
  H   H409      1.0  0.00083  0.38756  0.82633  1.0000
  C   C340      1.0  0.37242  0.41530  0.78758  1.0000
  H   H410      1.0  0.95764  0.34593  0.87473  1.0000
  S   S97       1.0  0.97250  0.27164  0.07059  1.0000
  C   C341      1.0  0.35242  0.39419  0.73412  1.0000
  C   C342      1.0  0.26043  0.48149  0.73919  1.0000
  S   S98       1.0  0.17044  0.50247  0.67225  1.0000
  H   H411      1.0  0.29850  0.33739  0.68013  1.0000
  N   N23       1.0  0.08799  0.41298  0.91936  1.0000
  H   H412      1.0  0.19293  0.43019  0.73959  1.0000
  C   C343      1.0  0.12409  0.36101  0.62031  1.0000
  S   S99       1.0  0.08736  0.28821  0.02589  1.0000
  H   H413      1.0  0.39601  0.26434  0.01305  1.0000
  H   H414      1.0  0.12331  0.41852  0.92853  1.0000
  H   H415      1.0  0.35181  0.31378  0.63738  1.0000
  C   C344      1.0  0.43060  0.39008  0.96291  1.0000
  S   S100      1.0  0.99840  0.35699  0.74870  1.0000
  C   C345      1.0  0.24898  0.28813  0.98044  1.0000
  H   H416      1.0  0.20166  0.47033  0.68449  1.0000
  C   C346      1.0  0.33361  0.27963  0.88120  1.0000
  H   H417      1.0  0.05532  0.41666  0.91248  1.0000
  S   S101      1.0  0.03779  0.32550  0.64168  1.0000
  H   H418      1.0  0.36443  0.29515  0.77055  1.0000
  C   C347      1.0  0.95868  0.47705  0.08499  1.0000
  N   N24       1.0  0.11134  0.44750  0.62551  1.0000
  H   H419      1.0  0.35670  0.33336  0.96434  1.0000
  C   C348      1.0  0.40117  0.26600  0.08534  1.0000
  Fe  Fe51      1.0  0.01485  0.34885  0.66395  1.0000
  C   C349      1.0  0.18131  0.32494  0.78883  1.0000
  S   S102      1.0  0.02184  0.41055  0.08247  1.0000
  C   C350      1.0  0.27431  0.32082  0.77056  1.0000
  C   C351      1.0  0.41905  0.35271  0.64419  1.0000
  H   H420      1.0  0.39831  0.27080  0.69797  1.0000
  H   H421      1.0  0.23004  0.36584  0.84922  1.0000
  H   H422      1.0  0.06263  0.43091  0.96278  1.0000
  C   C352      1.0  0.39935  0.43421  0.92320  1.0000
  H   H423      1.0  0.01897  0.37853  0.91327  1.0000
  H   H424      1.0  0.97408  0.31742  0.85123  1.0000
  H   H425      1.0  0.35357  0.26150  0.79174  1.0000
  C   C353      1.0  0.14316  0.32080  0.87916  1.0000
  H   H426      1.0  0.17991  0.34975  0.62333  1.0000
  Fe  Fe52      1.0  0.42903  0.31937  0.82987  1.0000
  C   C354      1.0  0.32377  0.45037  0.77925  1.0000
  C   C355      1.0  0.40273  0.47437  0.04624  1.0000
  C   C356      1.0  0.02624  0.43220  0.68460  1.0000
  S   S103      1.0  0.08090  0.46745  0.08736  1.0000
  H   H427      1.0  0.96795  0.30349  0.91812  1.0000
  H   H428      1.0  0.42405  0.50614  0.67000  1.0000
  H   H429      1.0  0.04753  0.28568  0.69871  1.0000
  S   S104      1.0  0.03889  0.47570  0.71836  1.0000
  C   C357      1.0  0.99897  0.35975  0.09044  1.0000
  C   C358      1.0  0.40981  0.45828  0.60820  1.0000
  C   C359      1.0  0.99329  0.34066  0.97075  1.0000
  H   H430      1.0  0.22816  0.35989  0.78836  1.0000
  S   S105      1.0  0.31150  0.34660  0.98567  1.0000
  H   H431      1.0  0.95938  0.39080  0.88760  1.0000
  C   C360      1.0  0.37838  0.47670  0.62568  1.0000
  C   C361      1.0  0.95596  0.35898  0.03555  1.0000
  H   H432      1.0  0.07808  0.37731  0.96882  1.0000
  H   H433      1.0  0.34492  0.36491  0.82326  1.0000
  H   H434      1.0  0.20297  0.32940  0.76032  1.0000
  S   S106      1.0  0.00515  0.46995  0.88480  1.0000
  C   C362      1.0  0.96021  0.43601  0.03628  1.0000
  H   H435      1.0  0.20761  0.37353  0.83249  1.0000
  S   S107      1.0  0.28186  0.50536  0.86100  1.0000
  S   S108      1.0  0.03141  0.27233  0.97727  1.0000
  H   H436      1.0  0.36270  0.47783  0.86404  1.0000
  C   C363      1.0  0.39466  0.39783  0.03441  1.0000
  H   H437      1.0  0.30761  0.28942  0.80051  1.0000
  C   C364      1.0  0.12114  0.42988  0.81375  1.0000
  C   C365      1.0  0.24586  0.43120  0.98953  1.0000
  C   C366      1.0  0.33960  0.43728  0.76838  1.0000
  H   H438      1.0  0.14851  0.45556  0.62956  1.0000
  H   H439      1.0  0.13412  0.32166  0.92236  1.0000
  H   H440      1.0  0.34508  0.30052  0.99584  1.0000
  H   H441      1.0  0.17106  0.31834  0.72337  1.0000
  H   H442      1.0  0.36072  0.44653  0.73207  1.0000
  C   C367      1.0  0.10786  0.38074  0.80070  1.0000
  H   H443      1.0  0.28886  0.38232  0.87595  1.0000
  C   C368      1.0  0.17178  0.32618  0.84562  1.0000
  C   C369      1.0  0.00777  0.38967  0.74218  1.0000
  C   C370      1.0  0.24647  0.49612  0.75566  1.0000
  H   H444      1.0  0.44767  0.30272  0.62828  1.0000
  C   C371      1.0  0.12280  0.50240  0.86165  1.0000
  C   C372      1.0  0.37461  0.37235  0.04881  1.0000
  C   C373      1.0  0.20201  0.50986  0.05155  1.0000
  H   H445      1.0  0.01588  0.46673  0.97876  1.0000
  C   C374      1.0  0.37061  0.32483  0.63904  1.0000
  Fe  Fe53      1.0  0.26415  0.40059  0.05527  1.0000
  C   C375      1.0  0.25916  0.29833  0.81444  1.0000
  C   C376      1.0  0.28366  0.29672  0.70202  1.0000
  H   H446      1.0  0.10127  0.43088  0.97457  1.0000
  C   C377      1.0  0.08175  0.42952  0.73297  1.0000
  H   H447      1.0  0.17223  0.26786  0.81073  1.0000
  C   C378      1.0  0.28136  0.47541  0.94016  1.0000
  H   H448      1.0  0.43775  0.36302  0.64640  1.0000
  H   H449      1.0  0.95328  0.33943  0.94325  1.0000
  H   H450      1.0  0.16025  0.31445  0.95578  1.0000
  H   H451      1.0  0.29298  0.28757  0.87428  1.0000
  C   C379      1.0  0.42258  0.40668  0.99158  1.0000
  Fe  Fe54      1.0  0.96762  0.47630  0.90797  1.0000
  H   H452      1.0  0.22377  0.48717  0.77385  1.0000
  H   H453      1.0  0.31683  0.27788  0.92364  1.0000
  C   C380      1.0  0.20275  0.31498  0.86272  1.0000
  C   C381      1.0  0.13439  0.42645  0.76017  1.0000
  C   C382      1.0  0.02611  0.44246  0.72925  1.0000
  H   H454      1.0  0.09514  0.39627  0.63484  1.0000
  H   H455      1.0  0.19990  0.26614  0.81806  1.0000
  C   C383      1.0  0.38789  0.45940  0.60426  1.0000
  C   C384      1.0  0.38210  0.35487  0.02041  1.0000
  H   H456      1.0  0.99668  0.26408  0.77314  1.0000
  H   H457      1.0  0.96497  0.45140  0.00299  1.0000
  C   C385      1.0  0.09303  0.42596  0.67794  1.0000
  C   C386      1.0  0.41818  0.41298  0.83445  1.0000
  C   C387      1.0  0.39087  0.39921  0.88166  1.0000
  C   C388      1.0  0.26789  0.27411  0.74593  1.0000
  S   S109      1.0  0.27662  0.34957  0.78643  1.0000
  H   H458      1.0  0.24984  0.29892  0.85793  1.0000
  H   H459      1.0  0.38525  0.40515  0.78015  1.0000
  H   H460      1.0  0.39931  0.48528  0.82872  1.0000
  H   H461      1.0  0.37689  0.38009  0.88418  1.0000
  H   H462      1.0  0.42403  0.40362  0.80169  1.0000
  C   C389      1.0  0.37055  0.31152  0.05808  1.0000
  H   H463      1.0  0.33299  0.38221  0.73365  1.0000
  C   C390      1.0  0.08695  0.40053  0.67496  1.0000
  H   H464      1.0  0.99386  0.45830  0.69670  1.0000
  C   C391      1.0  0.24312  0.45596  0.92188  1.0000
  C   C392      1.0  0.28418  0.41477  0.85935  1.0000
  S   S110      1.0  0.33080  0.40198  0.63504  1.0000
  C   C393      1.0  0.11036  0.42811  0.93142  1.0000
  H   H465      1.0  0.01595  0.43392  0.81579  1.0000
  C   C394      1.0  0.26779  0.47708  0.91124  1.0000
  C   C395      1.0  0.23022  0.46805  0.60432  1.0000
  H   H466      1.0  0.06487  0.26817  0.61979  1.0000
  C   C396      1.0  0.38242  0.48703  0.86566  1.0000
  H   H467      1.0  0.04496  0.36788  0.81476  1.0000
  C   C397      1.0  0.29976  0.40142  0.84850  1.0000
  Fe  Fe55      1.0  0.42456  0.35532  0.75660  1.0000
  H   H468      1.0  0.43793  0.48383  0.05790  1.0000
  S   S111      1.0  0.03370  0.31332  0.05099  1.0000
  H   H469      1.0  0.32551  0.37672  0.87584  1.0000
  C   C398      1.0  0.33127  0.37425  0.83276  1.0000
  H   H470      1.0  0.26259  0.40602  0.89465  1.0000
  H   H471      1.0  0.13089  0.34891  0.68536  1.0000
  C   C399      1.0  0.10764  0.49853  0.92020  1.0000
  H   H472      1.0  0.36042  0.39889  0.96267  1.0000
  C   C400      1.0  0.12794  0.40193  0.75369  1.0000
  C   C401      1.0  0.41592  0.47099  0.07468  1.0000
  H   H473      1.0  0.31744  0.30038  0.08845  1.0000
  C   C402      1.0  0.97846  0.46856  0.08004  1.0000
  C   C403      1.0  0.17818  0.33360  0.92751  1.0000
  C   C404      1.0  0.34618  0.27559  0.78755  1.0000
  C   C405      1.0  0.01635  0.40585  0.69164  1.0000
  H   H474      1.0  0.35554  0.29080  0.07101  1.0000
  H   H475      1.0  0.37753  0.47511  0.90504  1.0000
  C   C406      1.0  0.08454  0.50347  0.94433  1.0000
  C   C407      1.0  0.27061  0.45228  0.97880  1.0000
  H   H476      1.0  0.98581  0.39469  0.96983  1.0000
  H   H477      1.0  0.00781  0.43430  0.00165  1.0000
  C   C408      1.0  0.31250  0.29089  0.83493  1.0000
  C   C409      1.0  0.11395  0.50987  0.82765  1.0000
  H   H478      1.0  0.07886  0.43554  0.60449  1.0000
  H   H479      1.0  0.12883  0.37995  0.62577  1.0000
  H   H480      1.0  0.40201  0.28458  0.08592  1.0000
  H   H481      1.0  0.95522  0.43582  0.79602  1.0000
  C   C410      1.0  0.23966  0.43215  0.60796  1.0000
  C   C411      1.0  0.11309  0.31239  0.60480  1.0000
  H   H482      1.0  0.97060  0.40818  0.09539  1.0000
  N   N25       1.0  0.42357  0.26758  0.61628  1.0000
  N   N26       1.0  0.95090  0.43263  0.72237  1.0000
  S   S112      1.0  0.45059  0.47413  0.63598  1.0000
  C   C412      1.0  0.07593  0.51129  0.91015  1.0000
  C   C413      1.0  0.96283  0.39584  0.34529  1.0000
  C   C414      1.0  0.36951  0.29642  0.39837  1.0000
  C   C415      1.0  0.38998  0.34364  0.42330  1.0000
  H   H483      1.0  0.18404  0.39046  0.47206  1.0000
  C   C416      1.0  0.29261  0.30791  0.34039  1.0000
  C   C417      1.0  0.39929  0.35785  0.25773  1.0000
  H   H484      1.0  0.97410  0.33824  0.24893  1.0000
  C   C418      1.0  0.24693  0.38639  0.47475  1.0000
  C   C419      1.0  0.22510  0.37001  0.57595  1.0000
  C   C420      1.0  0.00815  0.27051  0.24385  1.0000
  C   C421      1.0  0.38672  0.28287  0.24920  1.0000
  N   N27       1.0  0.21693  0.37982  0.42937  1.0000
  H   H485      1.0  0.41414  0.39069  0.35499  1.0000
  C   C422      1.0  0.15227  0.47980  0.11208  1.0000
  H   H486      1.0  0.10514  0.39441  0.16085  1.0000
  C   C423      1.0  0.29549  0.36314  0.41040  1.0000
  Fe  Fe56      1.0  0.03780  0.43396  0.13133  1.0000
  H   H487      1.0  0.43056  0.36522  0.45347  1.0000
  C   C424      1.0  0.42130  0.34412  0.59674  1.0000
  C   C425      1.0  0.32954  0.34978  0.27665  1.0000
  H   H488      1.0  0.39243  0.35255  0.30331  1.0000
  C   C426      1.0  0.35219  0.30776  0.42055  1.0000
  C   C427      1.0  0.25641  0.30124  0.24887  1.0000
  C   C428      1.0  0.40703  0.33139  0.40108  1.0000
  Fe  Fe57      1.0  0.02334  0.36054  0.54668  1.0000
  H   H489      1.0  0.40013  0.34138  0.24078  1.0000
  H   H490      1.0  0.26984  0.39096  0.51835  1.0000
  H   H491      1.0  0.07662  0.28372  0.16565  1.0000
  H   H492      1.0  0.40458  0.26280  0.15802  1.0000
  H   H493      1.0  0.40742  0.40667  0.40957  1.0000
  H   H494      1.0  0.14211  0.38333  0.34436  1.0000
  H   H495      1.0  0.97827  0.34789  0.40432  1.0000
  C   C429      1.0  0.14301  0.39670  0.31433  1.0000
  H   H496      1.0  0.22317  0.47629  0.10446  1.0000
  H   H497      1.0  0.27358  0.33620  0.18657  1.0000
  C   C430      1.0  0.97331  0.26928  0.45347  1.0000
  C   C431      1.0  0.39680  0.30815  0.38881  1.0000
  H   H498      1.0  0.17806  0.30536  0.27918  1.0000
  H   H499      1.0  0.17432  0.26439  0.30883  1.0000
  H   H500      1.0  0.06354  0.28839  0.26444  1.0000
  C   C432      1.0  0.30109  0.33134  0.30676  1.0000
  C   C433      1.0  0.23977  0.33286  0.26679  1.0000
  S   S113      1.0  0.24374  0.32737  0.43407  1.0000
  C   C434      1.0  0.98613  0.26844  0.53959  1.0000
  C   C435      1.0  0.97636  0.51013  0.12549  1.0000
  H   H501      1.0  0.25917  0.40965  0.36868  1.0000
  H   H502      1.0  0.08214  0.36646  0.11599  1.0000
  C   C436      1.0  0.35872  0.43835  0.11781  1.0000
  S   S114      1.0  0.12408  0.44933  0.13355  1.0000
  C   C437      1.0  0.10181  0.44160  0.58431  1.0000
  C   C438      1.0  0.42913  0.37849  0.42639  1.0000
  H   H503      1.0  0.42840  0.31518  0.20842  1.0000
  H   H504      1.0  0.33634  0.42640  0.13609  1.0000
  H   H505      1.0  0.33512  0.39329  0.39382  1.0000
  H   H506      1.0  0.37131  0.49590  0.45520  1.0000
  S   S115      1.0  0.18861  0.28326  0.59703  1.0000
  H   H507      1.0  0.19581  0.35734  0.38931  1.0000
  C   C439      1.0  0.04473  0.28858  0.26638  1.0000
  S   S116      1.0  0.01072  0.37771  0.49589  1.0000
  S   S117      1.0  0.16306  0.29724  0.52511  1.0000
  H   H508      1.0  0.26653  0.39642  0.43482  1.0000
  H   H509      1.0  0.14238  0.43435  0.58764  1.0000
  C   C440      1.0  0.36226  0.33116  0.43228  1.0000
  C   C441      1.0  0.96112  0.39124  0.29763  1.0000
  H   H510      1.0  0.95773  0.45354  0.29992  1.0000
  H   H511      1.0  0.20317  0.40187  0.39645  1.0000
  C   C442      1.0  0.20276  0.29349  0.15111  1.0000
  C   C443      1.0  0.14496  0.43098  0.23765  1.0000
  C   C444      1.0  0.28466  0.34804  0.51979  1.0000
  C   C445      1.0  0.26983  0.34217  0.45091  1.0000
  H   H512      1.0  0.18240  0.40206  0.24847  1.0000
  S   S118      1.0  0.99053  0.42386  0.33860  1.0000
  S   S119      1.0  0.11499  0.37549  0.53766  1.0000
  H   H513      1.0  0.03150  0.33496  0.17270  1.0000
  C   C446      1.0  0.30993  0.36937  0.47970  1.0000
  C   C447      1.0  0.04158  0.34704  0.19265  1.0000
  C   C448      1.0  0.35046  0.34515  0.27923  1.0000
  H   H514      1.0  0.23378  0.44192  0.10423  1.0000
  H   H515      1.0  0.05982  0.30153  0.15808  1.0000
  H   H516      1.0  0.98111  0.43095  0.13008  1.0000
  C   C449      1.0  0.44552  0.29479  0.59401  1.0000
  H   H517      1.0  0.25381  0.37719  0.37030  1.0000
  C   C450      1.0  0.24388  0.45428  0.57674  1.0000
  S   S120      1.0  0.04866  0.33975  0.51338  1.0000
  C   C451      1.0  0.96858  0.42495  0.10908  1.0000
  S   S121      1.0  0.24211  0.36244  0.24521  1.0000
  Fe  Fe58      1.0  0.20269  0.29588  0.50530  1.0000
  H   H518      1.0  0.28519  0.33538  0.30570  1.0000
  H   H519      1.0  0.05189  0.36057  0.35549  1.0000
  H   H520      1.0  0.98338  0.35393  0.33486  1.0000
  N   N28       1.0  0.19240  0.43806  0.16009  1.0000
  H   H521      1.0  0.42144  0.37360  0.23529  1.0000
  C   C452      1.0  0.06716  0.37916  0.24293  1.0000
  S   S122      1.0  0.37559  0.29549  0.21124  1.0000
  Fe  Fe59      1.0  0.08486  0.45264  0.15764  1.0000
  H   H522      1.0  0.33065  0.29812  0.42943  1.0000
  C   C453      1.0  0.07008  0.36479  0.16061  1.0000
  H   H523      1.0  0.40428  0.40380  0.24979  1.0000
  C   C454      1.0  0.18201  0.27147  0.26449  1.0000
  C   C455      1.0  0.42385  0.28538  0.26569  1.0000
  C   C456      1.0  0.95776  0.49752  0.10736  1.0000
  H   H524      1.0  0.28037  0.34221  0.56216  1.0000
  H   H525      1.0  0.14453  0.44392  0.20946  1.0000
  Fe  Fe60      1.0  0.02503  0.44078  0.24732  1.0000
  S   S123      1.0  0.06743  0.47475  0.21364  1.0000
  H   H526      1.0  0.40836  0.50207  0.50130  1.0000
  C   C457      1.0  0.12105  0.40287  0.33156  1.0000
  H   H527      1.0  0.27039  0.29403  0.36509  1.0000
  H   H528      1.0  0.21126  0.47322  0.17844  1.0000
  C   C458      1.0  0.11699  0.35401  0.57945  1.0000
  H   H529      1.0  0.16607  0.43454  0.12445  1.0000
  S   S124      1.0  0.41765  0.44651  0.15877  1.0000
  C   C459      1.0  0.98746  0.33397  0.11734  1.0000
  C   C460      1.0  0.38203  0.38846  0.26950  1.0000
  C   C461      1.0  0.02732  0.38763  0.34202  1.0000
  H   H530      1.0  0.41575  0.27277  0.54835  1.0000
  N   N29       1.0  0.38027  0.36545  0.24917  1.0000
  C   C462      1.0  0.19402  0.30600  0.19169  1.0000
  C   C463      1.0  0.14825  0.49795  0.14051  1.0000
  C   C464      1.0  0.97978  0.32627  0.17364  1.0000
  H   H531      1.0  0.43613  0.39717  0.43600  1.0000
  S   S125      1.0  0.01700  0.45500  0.18343  1.0000
  H   H532      1.0  0.10330  0.39446  0.37480  1.0000
  H   H533      1.0  0.01727  0.34873  0.41550  1.0000
  C   C465      1.0  0.39124  0.37241  0.18747  1.0000
  H   H534      1.0  0.07817  0.39195  0.26022  1.0000
  H   H535      1.0  0.42817  0.33901  0.39383  1.0000
  H   H536      1.0  0.44447  0.48791  0.47972  1.0000
  S   S126      1.0  0.33344  0.38823  0.49927  1.0000
  H   H537      1.0  0.41383  0.38732  0.16338  1.0000
  C   C466      1.0  0.38108  0.36529  0.49701  1.0000
  H   H538      1.0  0.21930  0.41654  0.43585  1.0000
  Fe  Fe61      1.0  0.06960  0.35740  0.56147  1.0000
  C   C467      1.0  0.24392  0.38995  0.37428  1.0000
  C   C468      1.0  0.31570  0.37659  0.42461  1.0000
  C   C469      1.0  0.99336  0.37014  0.17711  1.0000
  H   H539      1.0  0.01343  0.38749  0.38590  1.0000
  H   H540      1.0  0.10496  0.42484  0.30664  1.0000
  H   H541      1.0  0.04911  0.39936  0.33292  1.0000
  C   C470      1.0  0.19711  0.35529  0.42818  1.0000
  H   H542      1.0  0.15548  0.46793  0.56069  1.0000
  N   N30       1.0  0.40005  0.36833  0.43654  1.0000
  H   H543      1.0  0.05067  0.30862  0.24796  1.0000
  H   H544      1.0  0.20158  0.28235  0.38389  1.0000
  H   H545      1.0  0.24525  0.31796  0.53621  1.0000
  C   C471      1.0  0.21563  0.43185  0.14842  1.0000
  S   S127      1.0  0.31073  0.27783  0.19839  1.0000
  S   S128      1.0  0.96851  0.27177  0.39549  1.0000
  H   H546      1.0  0.37237  0.38365  0.31630  1.0000
  H   H547      1.0  0.38950  0.35534  0.17109  1.0000
  C   C472      1.0  0.31264  0.30247  0.34269  1.0000
  H   H548      1.0  0.29934  0.36945  0.36863  1.0000
  S   S129      1.0  0.04321  0.41753  0.19733  1.0000
  H   H549      1.0  0.24073  0.39093  0.33757  1.0000
  H   H550      1.0  0.17498  0.35551  0.54115  1.0000
  N   N31       1.0  0.03439  0.27104  0.23618  1.0000
  H   H551      1.0  0.37110  0.39734  0.25870  1.0000
  H   H552      1.0  0.30597  0.28405  0.36838  1.0000
  C   C473      1.0  0.16620  0.40777  0.25887  1.0000
  C   C474      1.0  0.18290  0.42983  0.11989  1.0000
  H   H553      1.0  0.29242  0.50904  0.52805  1.0000
  C   C475      1.0  0.97875  0.29014  0.47578  1.0000
  C   C476      1.0  0.05592  0.28203  0.17481  1.0000
  C   C477      1.0  0.02568  0.34522  0.24993  1.0000
  H   H554      1.0  0.10527  0.32397  0.54130  1.0000
  H   H555      1.0  0.19544  0.32437  0.17940  1.0000
  Fe  Fe62      1.0  0.01509  0.30928  0.59546  1.0000
  H   H556      1.0  0.35904  0.35920  0.50788  1.0000
  C   C478      1.0  0.98126  0.34420  0.20458  1.0000
  S   S130      1.0  0.23659  0.49610  0.56465  1.0000
  S   S131      1.0  0.29943  0.42466  0.59016  1.0000
  S   S132      1.0  0.99573  0.26874  0.59121  1.0000
  C   C479      1.0  0.23636  0.28617  0.30489  1.0000
  Fe  Fe63      1.0  0.30911  0.39181  0.58560  1.0000
  H   H557      1.0  0.27592  0.26940  0.47629  1.0000
  C   C480      1.0  0.32225  0.48749  0.53092  1.0000
  N   N32       1.0  0.02122  0.36138  0.33615  1.0000
  H   H558      1.0  0.37971  0.38053  0.17686  1.0000
  C   C481      1.0  0.20450  0.46630  0.14817  1.0000
  C   C482      1.0  0.40080  0.45089  0.12397  1.0000
  H   H559      1.0  0.02452  0.32967  0.36746  1.0000
  H   H560      1.0  0.35557  0.31481  0.31477  1.0000
  H   H561      1.0  0.00381  0.33074  0.27231  1.0000
  H   H562      1.0  0.12458  0.48770  0.59529  1.0000
  H   H563      1.0  0.17515  0.34752  0.46426  1.0000
  C   C483      1.0  0.02909  0.34955  0.37004  1.0000
  C   C484      1.0  0.26474  0.33427  0.50514  1.0000
  H   H564      1.0  0.17449  0.40880  0.12618  1.0000
  H   H565      1.0  0.36163  0.27825  0.38942  1.0000
  C   C485      1.0  0.12199  0.41994  0.29322  1.0000
  H   H566      1.0  0.33049  0.32410  0.11972  1.0000
  H   H567      1.0  0.18930  0.47306  0.15114  1.0000
  H   H568      1.0  0.10950  0.29384  0.59786  1.0000
  H   H569      1.0  0.96710  0.37358  0.47439  1.0000
  C   C486      1.0  0.37212  0.43455  0.14557  1.0000
  H   H570      1.0  0.32227  0.47810  0.49694  1.0000
  C   C487      1.0  0.39998  0.38779  0.40078  1.0000
  C   C488      1.0  0.18395  0.29515  0.24805  1.0000
  H   H571      1.0  0.25787  0.46079  0.53127  1.0000
  C   C489      1.0  0.34119  0.32062  0.31218  1.0000
  H   H572      1.0  0.97792  0.30664  0.46011  1.0000
  C   C490      1.0  0.19604  0.36318  0.53417  1.0000
  H   H573      1.0  0.34796  0.33919  0.44927  1.0000
  H   H574      1.0  0.33464  0.48308  0.54634  1.0000
  H   H575      1.0  0.33493  0.36786  0.25217  1.0000
  H   H576      1.0  0.12758  0.49340  0.17517  1.0000
  H   H577      1.0  0.20463  0.32332  0.35043  1.0000
  C   C491      1.0  0.21929  0.31741  0.32208  1.0000
  H   H578      1.0  0.20877  0.41108  0.15247  1.0000
  S   S133      1.0  0.04793  0.38143  0.58567  1.0000
  C   C492      1.0  0.24920  0.38333  0.52268  1.0000
  S   S134      1.0  0.27554  0.41805  0.11616  1.0000
  C   C493      1.0  0.03775  0.36207  0.27625  1.0000
  Fe  Fe64      1.0  0.06069  0.48736  0.14533  1.0000
  H   H579      1.0  0.02379  0.39793  0.31376  1.0000
  C   C494      1.0  0.99019  0.34657  0.36078  1.0000
  H   H580      1.0  0.38803  0.38347  0.50864  1.0000
  H   H581      1.0  0.44538  0.29565  0.25614  1.0000
  H   H582      1.0  0.10547  0.42611  0.56670  1.0000
  Fe  Fe65      1.0  0.26873  0.37947  0.15116  1.0000
  H   H583      1.0  0.99552  0.38401  0.20026  1.0000
  C   C495      1.0  0.08295  0.38053  0.18594  1.0000
  H   H584      1.0  0.20426  0.34068  0.42854  1.0000
  C   C496      1.0  0.99608  0.50241  0.12101  1.0000
  H   H585      1.0  0.36013  0.41932  0.18435  1.0000
  C   C497      1.0  0.22015  0.37608  0.47897  1.0000
  H   H586      1.0  0.38022  0.35055  0.52520  1.0000
  S   S135      1.0  0.32106  0.27923  0.56779  1.0000
  C   C498      1.0  0.25805  0.32457  0.22970  1.0000
  H   H587      1.0  0.01191  0.28954  0.22478  1.0000
  H   H588      1.0  0.22399  0.43760  0.17699  1.0000
  C   C499      1.0  0.20540  0.39800  0.43349  1.0000
  H   H589      1.0  0.37850  0.38242  0.40851  1.0000
  C   C500      1.0  0.16803  0.42558  0.21888  1.0000
  H   H590      1.0  0.99165  0.26498  0.28894  1.0000
  H   H591      1.0  0.44473  0.38195  0.38128  1.0000
  C   C501      1.0  0.41423  0.29644  0.23865  1.0000
  C   C502      1.0  0.97623  0.37279  0.54107  1.0000
  H   H592      1.0  0.41680  0.44462  0.59227  1.0000
  C   C503      1.0  0.98527  0.28980  0.51845  1.0000
  H   H593      1.0  0.44177  0.34819  0.56217  1.0000
  H   H594      1.0  0.98309  0.32582  0.36458  1.0000
  H   H595      1.0  0.27051  0.29494  0.22027  1.0000
  H   H596      1.0  0.98982  0.30622  0.53461  1.0000
  Fe  Fe66      1.0  0.99205  0.28325  0.12336  1.0000
  H   H597      1.0  0.40992  0.29887  0.37285  1.0000
  Fe  Fe67      1.0  0.36068  0.28175  0.56060  1.0000
  S   S136      1.0  0.40049  0.31681  0.53744  1.0000
  C   C504      1.0  0.21746  0.29408  0.34093  1.0000
  C   C505      1.0  0.96562  0.36983  0.59913  1.0000
  C   C506      1.0  0.19859  0.36000  0.58170  1.0000
  H   H598      1.0  0.02841  0.28334  0.31182  1.0000
  Fe  Fe68      1.0  0.33348  0.26542  0.22973  1.0000
  H   H599      1.0  0.97625  0.40533  0.25716  1.0000
  H   H600      1.0  0.30001  0.47805  0.56713  1.0000
  S   S137      1.0  0.97331  0.29556  0.20095  1.0000
  H   H601      1.0  0.25033  0.42163  0.58651  1.0000
  C   C507      1.0  0.20113  0.26990  0.16697  1.0000
  H   H602      1.0  0.11327  0.45840  0.54704  1.0000
  H   H603      1.0  0.95092  0.48847  0.30142  1.0000
  C   C508      1.0  0.95882  0.37089  0.51926  1.0000
  H   H604      1.0  0.44049  0.30695  0.57307  1.0000
  H   H605      1.0  0.37874  0.44722  0.58357  1.0000
  C   C509      1.0  0.11094  0.32951  0.57255  1.0000
  H   H606      1.0  0.04894  0.27023  0.14946  1.0000
  C   C510      1.0  0.39710  0.32957  0.59475  1.0000
  H   H607      1.0  0.95371  0.44709  0.21616  1.0000
  H   H608      1.0  0.21112  0.30222  0.10698  1.0000
  C   C511      1.0  0.14068  0.45149  0.59967  1.0000
  C   C512      1.0  0.45010  0.50794  0.47568  1.0000
  C   C513      1.0  0.00296  0.37801  0.11960  1.0000
  H   H609      1.0  0.40803  0.54377  0.97413  1.0000
  H   H610      1.0  0.27992  0.57440  0.70752  1.0000
  C   C514      1.0  0.38703  0.59303  0.93290  1.0000
  C   C515      1.0  0.26152  0.52223  0.74894  1.0000
  S   S138      1.0  0.44725  0.76005  0.72820  1.0000
  H   H611      1.0  0.01425  0.71955  0.79364  1.0000
  C   C516      1.0  0.30481  0.51900  0.70894  1.0000
  H   H612      1.0  0.05652  0.53321  0.68368  1.0000
  H   H613      1.0  0.23513  0.70150  0.74772  1.0000
  C   C517      1.0  0.40036  0.73434  0.65586  1.0000
  Fe  Fe69      1.0  0.26555  0.56141  0.98806  1.0000
  H   H614      1.0  0.19590  0.52732  0.95476  1.0000
  H   H615      1.0  0.01904  0.68279  0.70077  1.0000
  H   H616      1.0  0.38670  0.51469  0.06166  1.0000
  H   H617      1.0  0.17389  0.76114  0.80125  1.0000
  H   H618      1.0  0.01700  0.65303  0.91370  1.0000
  N   N33       1.0  0.06450  0.58819  0.99179  1.0000
  H   H619      1.0  0.14325  0.53906  0.93935  1.0000
  C   C518      1.0  0.31295  0.70282  0.68613  1.0000
  H   H620      1.0  0.99029  0.60937  0.80327  1.0000
  C   C519      1.0  0.42115  0.55933  0.98522  1.0000
  C   C520      1.0  0.11639  0.69278  0.90308  1.0000
  H   H621      1.0  0.34798  0.74133  0.87850  1.0000
  H   H622      1.0  0.34560  0.68506  0.92970  1.0000
  N   N34       1.0  0.17613  0.55108  0.95984  1.0000
  H   H623      1.0  0.04819  0.54734  0.63997  1.0000
  C   C521      1.0  0.43531  0.74639  0.68408  1.0000
  S   S139      1.0  0.04938  0.68146  0.08260  1.0000
  S   S140      1.0  0.26497  0.60331  0.64593  1.0000
  H   H624      1.0  0.00578  0.72160  0.71361  1.0000
  H   H625      1.0  0.13849  0.70670  0.81226  1.0000
  S   S141      1.0  0.99935  0.76013  0.66013  1.0000
  S   S142      1.0  0.35211  0.57338  0.98676  1.0000
  H   H626      1.0  0.30431  0.59699  0.72283  1.0000
  H   H627      1.0  0.43167  0.69505  0.92977  1.0000
  C   C522      1.0  0.24683  0.62137  0.04808  1.0000
  H   H628      1.0  0.18225  0.54511  0.85702  1.0000
  C   C523      1.0  0.34203  0.69087  0.00873  1.0000
  H   H629      1.0  0.44810  0.64110  0.91113  1.0000
  C   C524      1.0  0.00158  0.63008  0.79239  1.0000
  H   H630      1.0  0.44193  0.55961  0.96811  1.0000
  H   H631      1.0  0.09946  0.55849  0.68691  1.0000
  H   H632      1.0  0.15720  0.72238  0.02597  1.0000
  S   S143      1.0  0.24432  0.74791  0.64208  1.0000
  C   C525      1.0  0.04551  0.58776  0.97110  1.0000
  C   C526      1.0  0.00264  0.64486  0.74984  1.0000
  H   H633      1.0  0.31951  0.57052  0.62760  1.0000
  H   H634      1.0  0.04574  0.70380  0.74414  1.0000
  C   C527      1.0  0.17653  0.74327  0.91775  1.0000
  C   C528      1.0  0.24249  0.60867  0.83972  1.0000
  C   C529      1.0  0.41580  0.67298  0.83066  1.0000
  H   H635      1.0  0.12894  0.74416  0.94874  1.0000
  C   C530      1.0  0.29702  0.66265  0.09305  1.0000
  H   H636      1.0  0.39800  0.61486  0.98595  1.0000
  C   C531      1.0  0.14863  0.54798  0.96953  1.0000
  Fe  Fe70      1.0  0.20920  0.72220  0.62951  1.0000
  H   H637      1.0  0.13104  0.73292  0.05658  1.0000
  C   C532      1.0  0.13412  0.61715  0.85113  1.0000
  H   H638      1.0  0.12428  0.59003  0.64140  1.0000
  H   H639      1.0  0.95470  0.64298  0.89344  1.0000
  C   C533      1.0  0.20478  0.75383  0.73456  1.0000
  H   H640      1.0  0.43625  0.56338  0.79906  1.0000
  H   H641      1.0  0.22386  0.59856  0.92858  1.0000
  C   C534      1.0  0.43963  0.55233  0.82464  1.0000
  H   H642      1.0  0.98031  0.69660  0.99072  1.0000
  H   H643      1.0  0.96319  0.72557  0.97171  1.0000
  H   H644      1.0  0.32336  0.74493  0.03883  1.0000
  C   C535      1.0  0.15718  0.68831  0.83884  1.0000
  H   H645      1.0  0.08261  0.68017  0.83917  1.0000
  H   H646      1.0  0.09097  0.58440  0.69899  1.0000
  S   S144      1.0  0.97686  0.68720  0.66683  1.0000
  H   H647      1.0  0.01278  0.68072  0.90209  1.0000
  N   N35       1.0  0.42697  0.67791  0.76893  1.0000
  S   S145      1.0  0.00533  0.56546  0.79153  1.0000
  H   H648      1.0  0.43243  0.60202  0.79427  1.0000
  C   C536      1.0  0.14147  0.59759  0.84746  1.0000
  C   C537      1.0  0.06485  0.70903  0.81039  1.0000
  H   H649      1.0  0.17284  0.59085  0.64106  1.0000
  Fe  Fe71      1.0  0.15183  0.67555  0.68306  1.0000
  C   C538      1.0  0.02870  0.67395  0.89313  1.0000
  H   H650      1.0  0.12909  0.71270  0.01164  1.0000
  C   C539      1.0  0.32273  0.56646  0.74695  1.0000
  H   H651      1.0  0.25744  0.61511  0.75063  1.0000
  H   H652      1.0  0.19930  0.56215  0.00303  1.0000
  C   C540      1.0  0.13745  0.69692  0.84799  1.0000
  C   C541      1.0  0.43734  0.60221  0.03415  1.0000
  S   S146      1.0  0.16506  0.71718  0.67361  1.0000
  C   C542      1.0  0.17948  0.56023  0.00644  1.0000
  C   C543      1.0  0.08724  0.62520  0.77154  1.0000
  S   S147      1.0  0.44533  0.58022  0.69052  1.0000
  S   S148      1.0  0.02491  0.75661  0.85436  1.0000
  H   H653      1.0  0.17334  0.69137  0.79606  1.0000
  H   H654      1.0  0.05479  0.60590  0.93897  1.0000
  C   C544      1.0  0.95855  0.68887  0.00191  1.0000
  C   C545      1.0  0.21854  0.75441  0.05324  1.0000
  Fe  Fe72      1.0  0.05331  0.68513  0.99739  1.0000
  H   H655      1.0  0.06316  0.66250  0.65630  1.0000
  H   H656      1.0  0.04126  0.57192  0.95096  1.0000
  H   H657      1.0  0.39519  0.74591  0.73137  1.0000
  H   H658      1.0  0.28548  0.62291  0.89529  1.0000
  H   H659      1.0  0.40749  0.70150  0.77000  1.0000
  H   H660      1.0  0.07659  0.59873  0.84413  1.0000
  H   H661      1.0  0.32727  0.52683  0.69152  1.0000
  H   H662      1.0  0.16184  0.54682  0.04881  1.0000
  S   S149      1.0  0.04751  0.51804  0.94018  1.0000
  S   S150      1.0  0.95314  0.64155  0.03251  1.0000
  C   C546      1.0  0.04909  0.56426  0.03791  1.0000
  C   C547      1.0  0.33198  0.67890  0.97543  1.0000
  C   C548      1.0  0.29133  0.53460  0.72436  1.0000
  H   H663      1.0  0.36923  0.51570  0.82083  1.0000
  H   H664      1.0  0.43975  0.64862  0.76202  1.0000
  H   H665      1.0  0.02952  0.56284  0.07401  1.0000
  C   C549      1.0  0.44678  0.62187  0.63879  1.0000
  S   S151      1.0  0.22496  0.68358  0.03703  1.0000
  C   C550      1.0  0.05305  0.61220  0.74113  1.0000
  H   H666      1.0  0.01517  0.62947  0.85117  1.0000
  S   S152      1.0  0.09339  0.70544  0.91383  1.0000
  H   H667      1.0  0.25940  0.62667  0.83384  1.0000
  C   C551      1.0  0.19810  0.52775  0.08110  1.0000
  H   H668      1.0  0.99228  0.63574  0.72741  1.0000
  C   C552      1.0  0.13816  0.59306  0.06761  1.0000
  H   H669      1.0  0.09211  0.64760  0.70001  1.0000
  H   H670      1.0  0.02487  0.58497  0.00613  1.0000
  H   H671      1.0  0.10964  0.69334  0.64011  1.0000
  H   H672      1.0  0.42583  0.61565  0.67455  1.0000
  H   H673      1.0  0.34541  0.69388  0.63020  1.0000
  H   H674      1.0  0.24927  0.53228  0.76330  1.0000
  H   H675      1.0  0.30720  0.55676  0.79268  1.0000
  S   S153      1.0  0.18237  0.66728  0.87277  1.0000
  H   H676      1.0  0.38402  0.65925  0.99484  1.0000
  H   H677      1.0  0.23891  0.72030  0.79416  1.0000
  Fe  Fe73      1.0  0.95418  0.67969  0.61921  1.0000
  H   H678      1.0  0.40530  0.63821  0.77151  1.0000
  C   C553      1.0  0.19882  0.56261  0.85386  1.0000
  H   H679      1.0  0.14754  0.63479  0.81698  1.0000
  H   H680      1.0  0.38019  0.73194  0.66339  1.0000
  S   S154      1.0  0.30689  0.59604  0.95725  1.0000
  H   H681      1.0  0.26858  0.65418  0.92846  1.0000
  S   S155      1.0  0.15168  0.67649  0.60212  1.0000
  H   H682      1.0  0.04729  0.55804  0.70084  1.0000
  H   H683      1.0  0.26044  0.73523  0.71953  1.0000
  C   C554      1.0  0.03600  0.58945  0.78509  1.0000
  S   S156      1.0  0.98649  0.51458  0.92115  1.0000
  C   C555      1.0  0.09032  0.51400  0.85201  1.0000
  C   C556      1.0  0.24282  0.75994  0.00180  1.0000
  Fe  Fe74      1.0  0.31478  0.59475  0.87026  1.0000
  H   H684      1.0  0.17965  0.57901  0.00680  1.0000
  Fe  Fe75      1.0  0.19296  0.64669  0.03996  1.0000
  H   H685      1.0  0.97228  0.67245  0.83930  1.0000
  C   C557      1.0  0.42498  0.60461  0.83634  1.0000
  H   H686      1.0  0.27516  0.56887  0.77766  1.0000
  H   H687      1.0  0.34565  0.56759  0.63829  1.0000
  H   H688      1.0  0.15084  0.61125  0.03591  1.0000
  C   C558      1.0  0.37711  0.64794  0.92798  1.0000
  H   H689      1.0  0.05078  0.71791  0.81802  1.0000
  S   S157      1.0  0.22657  0.55766  0.06245  1.0000
  C   C559      1.0  0.00030  0.75523  0.72199  1.0000
  C   C560      1.0  0.17520  0.52565  0.96398  1.0000
  C   C561      1.0  0.36977  0.51536  0.91909  1.0000
  H   H690      1.0  0.16044  0.59993  0.81035  1.0000
  S   S158      1.0  0.11800  0.64753  0.76750  1.0000
  N   N36       1.0  0.27326  0.71138  0.75026  1.0000
  C   C562      1.0  0.24146  0.60218  0.79269  1.0000
  H   H691      1.0  0.04652  0.61588  0.71226  1.0000
  C   C563      1.0  0.42585  0.51498  0.89273  1.0000
  H   H692      1.0  0.38693  0.66878  0.77643  1.0000
  C   C564      1.0  0.29100  0.57610  0.73147  1.0000
  Fe  Fe76      1.0  0.99005  0.65867  0.04530  1.0000
  S   S159      1.0  0.29369  0.70861  0.88435  1.0000
  C   C565      1.0  0.11482  0.67977  0.94917  1.0000
  H   H693      1.0  0.13430  0.66227  0.97569  1.0000
  H   H694      1.0  0.25942  0.61365  0.01741  1.0000
  C   C566      1.0  0.13518  0.67193  0.94011  1.0000
  S   S160      1.0  0.19572  0.68032  0.64435  1.0000
  H   H695      1.0  0.43579  0.65804  0.70475  1.0000
  S   S161      1.0  0.02203  0.69977  0.01785  1.0000
  H   H696      1.0  0.35933  0.68294  0.74944  1.0000
  H   H697      1.0  0.43243  0.60787  0.00408  1.0000
  H   H698      1.0  0.33795  0.55871  0.73355  1.0000
  Fe  Fe77      1.0  0.99712  0.72817  0.62018  1.0000
  H   H699      1.0  0.24510  0.67100  0.78782  1.0000
  S   S162      1.0  0.33514  0.56969  0.86211  1.0000
  H   H700      1.0  0.13088  0.53545  0.01268  1.0000
  C   C567      1.0  0.40009  0.52946  0.07385  1.0000
  H   H701      1.0  0.33478  0.58716  0.74226  1.0000
  C   C568      1.0  0.22173  0.59223  0.89414  1.0000
  Fe  Fe78      1.0  0.32377  0.56818  0.95204  1.0000
  H   H702      1.0  0.38234  0.57551  0.86940  1.0000
  H   H703      1.0  0.35646  0.63198  0.95681  1.0000
  H   H704      1.0  0.10890  0.57861  0.03856  1.0000
  C   C569      1.0  0.40559  0.61171  0.94446  1.0000
  C   C570      1.0  0.25113  0.71742  0.75259  1.0000
  H   H705      1.0  0.24305  0.74622  0.97790  1.0000
  H   H706      1.0  0.10431  0.62966  0.89763  1.0000
  H   H707      1.0  0.05565  0.75131  0.62083  1.0000
  H   H708      1.0  0.34164  0.59566  0.64370  1.0000
  H   H709      1.0  0.30784  0.73630  0.96459  1.0000
  C   C571      1.0  0.00475  0.73532  0.73766  1.0000
  C   C572      1.0  0.00955  0.73410  0.78280  1.0000
  H   H710      1.0  0.38471  0.72901  0.83378  1.0000
  C   C573      1.0  0.95206  0.65897  0.87826  1.0000
  C   C574      1.0  0.40640  0.74676  0.87641  1.0000
  C   C575      1.0  0.43391  0.62677  0.90197  1.0000
  Fe  Fe79      1.0  0.17882  0.51841  0.73779  1.0000
  Fe  Fe80      1.0  0.19911  0.69977  0.02623  1.0000
  H   H711      1.0  0.22474  0.60551  0.07044  1.0000
  H   H712      1.0  0.34333  0.71443  0.78540  1.0000
  H   H713      1.0  0.09841  0.67637  0.99179  1.0000
  H   H714      1.0  0.36342  0.70635  0.98896  1.0000
  C   C576      1.0  0.30495  0.68632  0.85957  1.0000
  H   H715      1.0  0.41664  0.68914  0.70937  1.0000
  C   C577      1.0  0.38833  0.65272  0.86951  1.0000
  C   C578      1.0  0.01612  0.64181  0.81927  1.0000
  S   S163      1.0  0.22489  0.52970  0.68840  1.0000
  H   H716      1.0  0.16987  0.51617  0.93411  1.0000
  N   N37       1.0  0.30815  0.56240  0.71446  1.0000
  C   C579      1.0  0.28403  0.70736  0.65134  1.0000
  Fe  Fe81      1.0  0.29150  0.53750  0.89920  1.0000
  C   C580      1.0  0.19903  0.56867  0.90289  1.0000
  S   S164      1.0  0.28175  0.53347  0.98878  1.0000
  C   C581      1.0  0.40877  0.68464  0.75558  1.0000
  H   H717      1.0  0.30406  0.75074  0.72755  1.0000
  C   C582      1.0  0.03257  0.66881  0.80364  1.0000
  C   C583      1.0  0.44369  0.62297  0.84814  1.0000
  H   H718      1.0  0.04246  0.54699  0.02311  1.0000
  C   C584      1.0  0.31753  0.75749  0.94999  1.0000
  C   C585      1.0  0.33063  0.69444  0.80919  1.0000
  H   H719      1.0  0.08320  0.67431  0.77591  1.0000
  C   C586      1.0  0.07426  0.75521  0.62509  1.0000
  H   H720      1.0  0.18927  0.73610  0.73621  1.0000
  H   H721      1.0  0.05080  0.60706  0.05619  1.0000
  C   C587      1.0  0.42687  0.65467  0.75123  1.0000
  N   N38       1.0  0.08903  0.57112  0.62897  1.0000
  C   C588      1.0  0.01790  0.67142  0.73462  1.0000
  H   H722      1.0  0.06221  0.56330  0.05534  1.0000
  C   C589      1.0  0.14348  0.75951  0.95784  1.0000
  S   S165      1.0  0.04385  0.52792  0.80041  1.0000
  Fe  Fe82      1.0  0.19256  0.67071  0.94121  1.0000
  H   H723      1.0  0.26694  0.71050  0.65468  1.0000
  H   H724      1.0  0.06602  0.74645  0.67023  1.0000
  H   H725      1.0  0.29833  0.65026  0.97231  1.0000
  H   H726      1.0  0.30722  0.72864  0.76762  1.0000
  Fe  Fe83      1.0  0.23054  0.56737  0.65165  1.0000
  N   N39       1.0  0.25659  0.62919  0.08823  1.0000
  C   C590      1.0  0.29022  0.70765  0.69547  1.0000
  C   C591      1.0  0.32833  0.69781  0.63611  1.0000
  H   H727      1.0  0.33267  0.69177  0.09334  1.0000
  H   H728      1.0  0.18960  0.75899  0.87798  1.0000
  C   C592      1.0  0.07065  0.60060  0.61029  1.0000
  C   C593      1.0  0.11443  0.57445  0.06889  1.0000
  C   C594      1.0  0.39661  0.58978  0.87860  1.0000
  C   C595      1.0  0.43109  0.68830  0.85416  1.0000
  N   N40       1.0  0.16203  0.75161  0.96729  1.0000
  H   H729      1.0  0.05837  0.65000  0.84235  1.0000
  H   H730      1.0  0.03138  0.56738  0.85662  1.0000
  H   H731      1.0  0.21900  0.57426  0.76296  1.0000
  Fe  Fe84      1.0  0.24692  0.69041  0.94308  1.0000
  H   H732      1.0  0.31863  0.70230  0.71804  1.0000
  C   C596      1.0  0.10140  0.57620  0.66565  1.0000
  C   C597      1.0  0.39268  0.66321  0.94954  1.0000
  H   H733      1.0  0.32046  0.64160  0.61426  1.0000
  H   H734      1.0  0.07642  0.71709  0.83276  1.0000
  S   S166      1.0  0.27166  0.56265  0.90154  1.0000
  C   C598      1.0  0.05889  0.55167  0.66487  1.0000
  C   C599      1.0  0.06888  0.67082  0.82191  1.0000
  C   C600      1.0  0.40885  0.74226  0.69436  1.0000
  C   C601      1.0  0.06994  0.60266  0.81572  1.0000
  C   C602      1.0  0.32968  0.57448  0.65344  1.0000
  H   H735      1.0  0.27956  0.73646  0.80242  1.0000
  H   H736      1.0  0.38427  0.57577  0.04746  1.0000
  C   C603      1.0  0.21976  0.57916  0.79974  1.0000
  C   C604      1.0  0.07890  0.63004  0.73396  1.0000
  H   H737      1.0  0.37520  0.53546  0.92067  1.0000
  H   H738      1.0  0.04888  0.58712  0.64052  1.0000
  S   S167      1.0  0.16552  0.66243  0.03518  1.0000
  C   C605      1.0  0.25890  0.68757  0.79582  1.0000
  C   C606      1.0  0.14408  0.72903  0.01762  1.0000
  C   C607      1.0  0.01013  0.75288  0.81153  1.0000
  C   C608      1.0  0.41804  0.72993  0.60748  1.0000
  H   H739      1.0  0.08115  0.71552  0.76460  1.0000
  C   C609      1.0  0.28584  0.65045  0.06030  1.0000
  C   C610      1.0  0.09127  0.59134  0.94366  1.0000
  C   C611      1.0  0.10934  0.61410  0.89811  1.0000
  H   H740      1.0  0.08641  0.61226  0.02820  1.0000
  S   S168      1.0  0.33616  0.62910  0.79792  1.0000
  C   C612      1.0  0.07015  0.60986  0.01696  1.0000
  C   C613      1.0  0.12419  0.57494  0.89116  1.0000
  S   S169      1.0  0.18484  0.55703  0.70549  1.0000
  Fe  Fe85      1.0  0.00363  0.53005  0.82900  1.0000
  C   C614      1.0  0.33971  0.67665  0.78904  1.0000
  N   N41       1.0  0.04854  0.68065  0.83147  1.0000
  S   S170      1.0  0.22368  0.70967  0.93154  1.0000
  H   H741      1.0  0.27404  0.68280  0.80047  1.0000
  Fe  Fe86      1.0  0.18014  0.54205  0.63568  1.0000
  C   C615      1.0  0.10294  0.69694  0.61154  1.0000
  C   C616      1.0  0.29185  0.73270  0.76219  1.0000
  H   H742      1.0  0.14877  0.56680  0.96497  1.0000
  C   C617      1.0  0.03315  0.68331  0.76012  1.0000
  H   H743      1.0  0.39252  0.54608  0.81864  1.0000
  H   H744      1.0  0.42488  0.57737  0.96161  1.0000
  S   S171      1.0  0.02181  0.64426  0.01812  1.0000
  H   H745      1.0  0.41947  0.52734  0.06050  1.0000
  C   C618      1.0  0.04443  0.58482  0.82245  1.0000
  H   H746      1.0  0.19010  0.73618  0.92296  1.0000
  H   H747      1.0  0.24703  0.63744  0.02514  1.0000
  Fe  Fe87      1.0  0.21713  0.51718  0.61982  1.0000
  C   C619      1.0  0.41898  0.52707  0.85978  1.0000
  H   H748      1.0  0.15891  0.51228  0.00720  1.0000
  H   H749      1.0  0.08723  0.55379  0.97126  1.0000
  C   C620      1.0  0.09965  0.57187  0.93907  1.0000
  H   H750      1.0  0.24518  0.68923  0.83747  1.0000
  C   C621      1.0  0.32369  0.65092  0.82061  1.0000
  C   C622      1.0  0.38989  0.52647  0.81817  1.0000
  S   S172      1.0  0.18783  0.72556  0.07788  1.0000
  C   C623      1.0  0.28840  0.66046  0.88976  1.0000
  C   C624      1.0  0.38472  0.73962  0.86470  1.0000
  C   C625      1.0  0.30445  0.65889  0.00061  1.0000
  H   H751      1.0  0.12952  0.55946  0.88724  1.0000
  H   H752      1.0  0.07769  0.62820  0.98780  1.0000
  C   C626      1.0  0.29804  0.64282  0.87104  1.0000
  H   H753      1.0  0.04011  0.68288  0.91505  1.0000
  H   H754      1.0  0.08383  0.52011  0.82541  1.0000
  H   H755      1.0  0.42302  0.74153  0.85501  1.0000
  C   C627      1.0  0.07643  0.67965  0.62115  1.0000
  H   H756      1.0  0.19383  0.63737  0.60081  1.0000
  H   H757      1.0  0.26936  0.60008  0.08768  1.0000
  H   H758      1.0  0.37531  0.64037  0.85490  1.0000
  H   H759      1.0  0.16135  0.72753  0.91113  1.0000
  C   C628      1.0  0.15640  0.67628  0.88487  1.0000
  S   S173      1.0  0.21721  0.65185  0.94685  1.0000
  H   H760      1.0  0.40666  0.52776  0.77611  1.0000
  C   C629      1.0  0.36364  0.74693  0.89087  1.0000
  C   C630      1.0  0.41955  0.68333  0.91276  1.0000
  H   H761      1.0  0.12538  0.51261  0.78246  1.0000
  C   C631      1.0  0.42614  0.57601  0.06069  1.0000
  H   H762      1.0  0.36598  0.54226  0.05797  1.0000
  H   H763      1.0  0.10015  0.54109  0.60706  1.0000
  C   C632      1.0  0.32464  0.68267  0.06747  1.0000
  C   C633      1.0  0.38067  0.55704  0.06766  1.0000
  N   N42       1.0  0.40738  0.55571  0.04734  1.0000
  H   H764      1.0  0.22263  0.51448  0.01663  1.0000
  N   N43       1.0  0.39087  0.51429  0.86518  1.0000
  S   S174      1.0  0.03284  0.66380  0.60143  1.0000
  C   C634      1.0  0.29950  0.70219  0.60154  1.0000
  H   H765      1.0  0.08511  0.74479  0.60076  1.0000
  C   C635      1.0  0.43345  0.57063  0.10063  1.0000
  C   C636      1.0  0.05973  0.73607  0.14346  1.0000
  C   C637      1.0  0.44381  0.73245  0.59887  1.0000
  H   H766      1.0  0.32003  0.53971  0.48261  1.0000
  C   C638      1.0  0.17910  0.59830  0.59780  1.0000
  C   C639      1.0  0.42984  0.51598  0.48763  1.0000
  H   H767      1.0  0.07378  0.68136  0.20132  1.0000
  H   H768      1.0  0.97557  0.52601  0.14273  1.0000
  C   C640      1.0  0.19521  0.61784  0.48610  1.0000
  C   C641      1.0  0.10311  0.64279  0.54378  1.0000
  C   C642      1.0  0.12577  0.63843  0.53308  1.0000
  C   C643      1.0  0.26698  0.76013  0.34607  1.0000
  H   H769      1.0  0.09424  0.52663  0.17655  1.0000
  H   H770      1.0  0.33320  0.69295  0.55578  1.0000
  H   H771      1.0  0.36958  0.55428  0.11421  1.0000
  H   H772      1.0  0.16812  0.53583  0.14772  1.0000
  H   H773      1.0  0.04403  0.69340  0.28066  1.0000
  S   S175      1.0  0.42044  0.69072  0.43404  1.0000
  C   C644      1.0  0.08492  0.75377  0.13871  1.0000
  C   C645      1.0  0.40436  0.56901  0.39429  1.0000
  C   C646      1.0  0.96497  0.59051  0.19124  1.0000
  C   C647      1.0  0.33104  0.52591  0.56001  1.0000
  H   H774      1.0  0.95648  0.62664  0.50172  1.0000
  H   H775      1.0  0.12622  0.57186  0.56046  1.0000
  S   S176      1.0  0.00846  0.72172  0.15245  1.0000
  H   H776      1.0  0.12591  0.70644  0.15170  1.0000
  H   H777      1.0  0.33003  0.57967  0.50238  1.0000
  H   H778      1.0  0.44139  0.56637  0.33670  1.0000
  H   H779      1.0  0.30885  0.51631  0.59641  1.0000
  C   C648      1.0  0.14588  0.58772  0.10591  1.0000
  H   H780      1.0  0.96728  0.63797  0.33720  1.0000
  S   S177      1.0  0.38543  0.61546  0.47757  1.0000
  Fe  Fe88      1.0  0.01123  0.68506  0.59032  1.0000
  H   H781      1.0  0.96984  0.59721  0.10868  1.0000
  S   S178      1.0  0.21216  0.66728  0.49167  1.0000
  Fe  Fe89      1.0  0.01499  0.64168  0.10535  1.0000
  H   H782      1.0  0.37478  0.75068  0.58910  1.0000
  C   C649      1.0  0.19082  0.62466  0.57513  1.0000
  C   C650      1.0  0.32255  0.62804  0.58991  1.0000
  C   C651      1.0  0.10909  0.74163  0.24475  1.0000
  C   C652      1.0  0.96135  0.75140  0.17459  1.0000
  C   C653      1.0  0.07937  0.72583  0.27450  1.0000
  C   C654      1.0  0.00943  0.72495  0.33956  1.0000
  C   C655      1.0  0.24152  0.73998  0.38971  1.0000
  H   H783      1.0  0.41391  0.58951  0.37681  1.0000
  C   C656      1.0  0.12555  0.73366  0.20061  1.0000
  H   H784      1.0  0.01079  0.51234  0.13462  1.0000
  C   C657      1.0  0.96573  0.75294  0.22022  1.0000
  C   C658      1.0  0.37953  0.51624  0.43980  1.0000
  Fe  Fe90      1.0  0.01580  0.69351  0.10461  1.0000
  C   C659      1.0  0.43705  0.54182  0.48256  1.0000
  C   C660      1.0  0.25496  0.60659  0.11798  1.0000
  H   H785      1.0  0.14833  0.74365  0.17739  1.0000
  Fe  Fe91      1.0  0.16856  0.71874  0.58919  1.0000
  H   H786      1.0  0.36546  0.56671  0.45492  1.0000
  H   H787      1.0  0.10685  0.66098  0.52291  1.0000
  C   C661      1.0  0.95517  0.59035  0.15387  1.0000
  S   S179      1.0  0.15348  0.74060  0.55422  1.0000
  C   C662      1.0  0.19888  0.63448  0.51930  1.0000
  C   C663      1.0  0.96438  0.63275  0.41810  1.0000
  H   H788      1.0  0.05555  0.71656  0.14499  1.0000
  C   C664      1.0  0.09333  0.59549  0.60009  1.0000
  H   H789      1.0  0.44840  0.65444  0.59622  1.0000
  C   C665      1.0  0.40747  0.52974  0.39450  1.0000
  C   C666      1.0  0.41981  0.55603  0.37186  1.0000
  H   H790      1.0  0.09488  0.55599  0.55729  1.0000
  H   H791      1.0  0.12502  0.74070  0.49390  1.0000
  H   H792      1.0  0.13601  0.55945  0.17458  1.0000
  C   C667      1.0  0.03965  0.74347  0.14813  1.0000
  H   H793      1.0  0.07744  0.71044  0.51229  1.0000
  H   H794      1.0  0.17940  0.57850  0.48395  1.0000
  H   H795      1.0  0.33757  0.54669  0.54971  1.0000
  Fe  Fe92      1.0  0.19670  0.68467  0.56200  1.0000
  C   C668      1.0  0.08355  0.69789  0.21359  1.0000
  S   S180      1.0  0.42478  0.66536  0.53587  1.0000
  H   H796      1.0  0.24057  0.72209  0.40435  1.0000
  C   C669      1.0  0.10311  0.55956  0.58656  1.0000
  H   H797      1.0  0.13940  0.61323  0.55271  1.0000
  C   C670      1.0  0.32155  0.69738  0.59400  1.0000
  H   H798      1.0  0.23915  0.63917  0.16699  1.0000
  C   C671      1.0  0.12488  0.75550  0.30927  1.0000
  C   C672      1.0  0.10651  0.54497  0.14581  1.0000
  S   S181      1.0  0.22642  0.55578  0.57894  1.0000
  C   C673      1.0  0.12045  0.71896  0.56575  1.0000
  H   H799      1.0  0.43045  0.58022  0.52900  1.0000
  S   S182      1.0  0.15728  0.54851  0.59569  1.0000
  Fe  Fe93      1.0  0.00700  0.71631  0.50806  1.0000
  C   C674      1.0  0.35215  0.61325  0.52118  1.0000
  C   C675      1.0  0.00150  0.71972  0.39670  1.0000
  C   C676      1.0  0.11133  0.72379  0.52972  1.0000
  H   H800      1.0  0.28517  0.75691  0.32736  1.0000
  H   H801      1.0  0.14724  0.65327  0.50394  1.0000
  S   S183      1.0  0.21377  0.72710  0.54379  1.0000
  H   H802      1.0  0.20145  0.62538  0.44290  1.0000
  C   C677      1.0  0.08441  0.70680  0.54031  1.0000
  C   C678      1.0  0.13005  0.56367  0.14502  1.0000
  H   H803      1.0  0.23835  0.65454  0.11017  1.0000
  H   H804      1.0  0.95395  0.74872  0.37638  1.0000
  H   H805      1.0  0.42063  0.54713  0.49190  1.0000
  H   H806      1.0  0.31652  0.51228  0.45606  1.0000
  S   S184      1.0  0.07039  0.52651  0.10601  1.0000
  H   H807      1.0  0.06545  0.72953  0.31081  1.0000
  S   S185      1.0  0.00148  0.60538  0.16402  1.0000
  H   H808      1.0  0.95349  0.58290  0.27873  1.0000
  C   C679      1.0  0.09870  0.55028  0.10773  1.0000
  C   C680      1.0  0.06684  0.70466  0.25825  1.0000
  H   H809      1.0  0.99609  0.71552  0.27927  1.0000
  C   C681      1.0  0.17122  0.52187  0.12529  1.0000
  H   H810      1.0  0.03059  0.73919  0.30761  1.0000
  C   C682      1.0  0.29843  0.60753  0.59649  1.0000
  N   N44       1.0  0.33344  0.51550  0.51105  1.0000
  C   C683      1.0  0.30117  0.59004  0.56497  1.0000
  C   C684      1.0  0.36311  0.52893  0.46349  1.0000
  H   H811      1.0  0.13779  0.74529  0.29685  1.0000
  S   S186      1.0  0.02594  0.73568  0.41707  1.0000
  C   C685      1.0  0.95331  0.63069  0.38280  1.0000
  H   H812      1.0  0.26070  0.61058  0.15083  1.0000
  C   C686      1.0  0.11285  0.71215  0.18539  1.0000
  C   C687      1.0  0.37649  0.55572  0.43931  1.0000
  C   C688      1.0  0.34941  0.63096  0.55214  1.0000
  H   H813      1.0  0.23324  0.59009  0.13947  1.0000
  S   S187      1.0  0.03360  0.72703  0.54757  1.0000
  Fe  Fe94      1.0  0.42995  0.70311  0.50089  1.0000
  H   H814      1.0  0.98707  0.64161  0.39968  1.0000
  C   C689      1.0  0.18270  0.59138  0.50932  1.0000
  S   S188      1.0  0.40809  0.72259  0.55714  1.0000
  C   C690      1.0  0.98992  0.71161  0.32350  1.0000
  H   H815      1.0  0.28458  0.65661  0.13876  1.0000
  H   H816      1.0  0.10387  0.74199  0.34672  1.0000
  C   C691      1.0  0.31495  0.51936  0.49353  1.0000
  Fe  Fe95      1.0  0.41881  0.65412  0.46462  1.0000
  C   C692      1.0  0.97396  0.70154  0.43777  1.0000
  C   C693      1.0  0.07563  0.62395  0.58233  1.0000
  C   C694      1.0  0.06691  0.68476  0.58622  1.0000
  H   H817      1.0  0.44509  0.58790  0.42963  1.0000
  H   H818      1.0  0.42577  0.55141  0.12346  1.0000
  H   H819      1.0  0.38777  0.52439  0.12087  1.0000
  H   H820      1.0  0.34186  0.75907  0.57409  1.0000
  H   H821      1.0  0.10022  0.74791  0.13579  1.0000
  H   H822      1.0  0.36791  0.64674  0.54763  1.0000
  S   S189      1.0  0.98133  0.65366  0.13378  1.0000
  S   S190      1.0  0.98667  0.67399  0.54617  1.0000
  H   H823      1.0  0.97165  0.73950  0.23198  1.0000
  C   C695      1.0  0.21717  0.74276  0.41508  1.0000
  H   H824      1.0  0.28261  0.57421  0.56976  1.0000
  C   C696      1.0  0.12104  0.61529  0.56114  1.0000
  C   C697      1.0  0.32803  0.59301  0.52708  1.0000
  C   C698      1.0  0.23639  0.63656  0.13018  1.0000
  H   H825      1.0  0.19752  0.72725  0.44939  1.0000
  H   H826      1.0  0.96412  0.73722  0.15244  1.0000
  H   H827      1.0  0.21404  0.62160  0.14834  1.0000
  S   S191      1.0  0.97229  0.72089  0.57718  1.0000
  C   C699      1.0  0.17448  0.58161  0.56532  1.0000
  H   H828      1.0  0.34442  0.52305  0.57482  1.0000
  H   H829      1.0  0.05809  0.62764  0.59119  1.0000
  H   H830      1.0  0.96768  0.69742  0.48191  1.0000
  H   H831      1.0  0.41973  0.51983  0.37635  1.0000
  C   C700      1.0  0.96226  0.69378  0.36477  1.0000
  S   S192      1.0  0.44620  0.51816  0.14737  1.0000
  H   H832      1.0  0.29390  0.70131  0.56913  1.0000
  C   C701      1.0  0.95429  0.68876  0.42184  1.0000
  S   S193      1.0  0.17613  0.61057  0.10293  1.0000
  Fe  Fe96      1.0  0.30526  0.87999  0.68432  1.0000
  C   C702      1.0  0.35518  0.79830  0.93245  1.0000
  H   H833      1.0  0.26898  0.86248  0.89516  1.0000
  H   H834      1.0  0.13324  0.83485  0.01662  1.0000
  N   N45       1.0  0.17462  0.85040  0.94080  1.0000
  H   H835      1.0  0.12800  0.93820  0.05526  1.0000
  S   S194      1.0  0.25934  0.91278  0.60563  1.0000
  H   H836      1.0  0.00308  0.78545  0.82214  1.0000
  C   C703      1.0  0.25506  0.93744  0.04868  1.0000
  C   C704      1.0  0.13266  0.92681  0.62374  1.0000
  H   H837      1.0  0.16072  0.83587  0.02760  1.0000
  C   C705      1.0  0.37176  0.88774  0.88777  1.0000
  H   H838      1.0  0.03039  0.86268  0.66276  1.0000
  H   H839      1.0  0.95807  0.99893  0.06677  1.0000
  H   H840      1.0  0.32577  0.97662  0.85414  1.0000
  C   C706      1.0  0.03523  0.96339  0.63257  1.0000
  C   C707      1.0  0.16654  0.92118  0.71172  1.0000
  C   C708      1.0  0.32439  0.82073  0.76505  1.0000
  H   H841      1.0  0.01567  0.98594  0.74822  1.0000
  H   H842      1.0  0.30390  0.00901  0.60556  1.0000
  H   H843      1.0  0.11235  0.91643  0.66269  1.0000
  H   H844      1.0  0.95185  0.78584  0.85284  1.0000
  C   C709      1.0  0.96000  0.80084  0.87188  1.0000
  H   H845      1.0  0.41664  0.95257  0.63041  1.0000
  S   S195      1.0  0.43439  0.85666  0.70597  1.0000
  C   C710      1.0  0.98092  0.97527  0.93207  1.0000
  H   H846      1.0  0.04981  0.96877  0.64773  1.0000
  H   H847      1.0  0.02377  0.92212  0.02183  1.0000
  S   S196      1.0  0.27772  0.86707  0.77888  1.0000
  H   H848      1.0  0.40595  0.90932  0.77534  1.0000
  H   H849      1.0  0.99816  0.86020  0.62818  1.0000
  C   C711      1.0  0.23400  0.91437  0.05328  1.0000
  H   H850      1.0  0.37757  0.90603  0.89944  1.0000
  C   C712      1.0  0.24979  0.95829  0.05684  1.0000
  H   H851      1.0  0.35999  0.95634  0.98326  1.0000
  S   S197      1.0  0.41882  0.80832  0.80156  1.0000
  H   H852      1.0  0.32846  0.98845  0.62011  1.0000
  Fe  Fe97      1.0  0.08799  0.84583  0.85267  1.0000
  Fe  Fe98      1.0  0.40036  0.81606  0.75222  1.0000
  S   S198      1.0  0.30447  0.91734  0.67577  1.0000
  H   H853      1.0  0.17288  0.96314  0.74604  1.0000
  S   S199      1.0  0.23577  0.88482  0.76284  1.0000
  H   H854      1.0  0.38297  0.91157  0.01265  1.0000
  C   C713      1.0  0.31195  0.87297  0.87104  1.0000
  H   H855      1.0  0.34337  0.84707  0.86193  1.0000
  C   C714      1.0  0.19771  0.84333  0.91798  1.0000
  C   C715      1.0  0.37273  0.99232  0.00356  1.0000
  C   C716      1.0  0.18183  0.77298  0.97651  1.0000
  H   H856      1.0  0.00229  0.96046  0.01832  1.0000
  H   H857      1.0  0.37981  0.91189  0.76320  1.0000
  C   C717      1.0  0.21632  0.79068  0.77051  1.0000
  Fe  Fe99      1.0  0.05137  0.79913  0.83283  1.0000
  H   H858      1.0  0.34499  0.97710  0.88797  1.0000
  H   H859      1.0  0.31117  0.93038  0.93143  1.0000
  H   H860      1.0  0.14574  0.81225  0.99773  1.0000
  C   C718      1.0  0.96890  0.93213  0.09741  1.0000
  H   H861      1.0  0.11343  0.97978  0.98617  1.0000
  N   N46       1.0  0.09363  0.78309  0.60694  1.0000
  H   H862      1.0  0.19698  0.94526  0.60709  1.0000
  H   H863      1.0  0.01160  0.92769  0.95068  1.0000
  C   C719      1.0  0.98985  0.93431  0.64400  1.0000
  S   S200      1.0  0.05050  0.98325  0.03150  1.0000
  C   C720      1.0  0.23880  0.96260  0.69048  1.0000
  H   H864      1.0  0.15614  0.77671  0.92089  1.0000
  S   S201      1.0  0.11688  0.98549  0.72468  1.0000
  H   H865      1.0  0.17742  0.86124  0.86178  1.0000
  H   H866      1.0  0.02236  0.84316  0.06661  1.0000
  H   H867      1.0  0.42421  0.90418  0.65245  1.0000
  N   N47       1.0  0.36303  0.88816  0.84534  1.0000
  C   C721      1.0  0.02843  0.85135  0.63375  1.0000
  C   C722      1.0  0.17174  0.86745  0.63190  1.0000
  C   C723      1.0  0.32310  0.97439  0.73953  1.0000
  C   C724      1.0  0.20997  0.94421  0.71531  1.0000
  C   C725      1.0  0.33674  0.89050  0.86984  1.0000
  Fe  Fe100     1.0  0.43456  0.99329  0.78082  1.0000
  S   S202      1.0  0.42107  0.80074  0.68293  1.0000
  C   C726      1.0  0.16254  0.84656  0.90354  1.0000
  C   C727      1.0  0.38584  0.91047  0.79553  1.0000
  S   S203      1.0  0.29657  0.83129  0.98360  1.0000
  C   C728      1.0  0.38170  0.83494  0.06172  1.0000
  H   H868      1.0  0.21662  0.81399  0.67817  1.0000
  C   C729      1.0  0.40482  0.91737  0.98138  1.0000
  H   H869      1.0  0.02217  0.95200  0.78683  1.0000
  H   H870      1.0  0.96443  0.94954  0.82990  1.0000
  H   H871      1.0  0.16803  0.99659  0.07441  1.0000
  S   S204      1.0  0.04152  0.82596  0.88340  1.0000
  C   C730      1.0  0.22586  0.89430  0.61556  1.0000
  H   H872      1.0  0.41819  0.95625  0.98134  1.0000
  H   H873      1.0  0.27553  0.97827  0.69902  1.0000
  H   H874      1.0  0.96460  0.86280  0.73428  1.0000
  Fe  Fe101     1.0  0.44218  0.79561  0.72851  1.0000
  N   N48       1.0  0.03122  0.88279  0.05644  1.0000
  S   S205      1.0  0.96366  0.92447  0.93900  1.0000
  C   C731      1.0  0.07616  0.98525  0.87900  1.0000
  H   H875      1.0  0.39066  0.88468  0.87164  1.0000
  S   S206      1.0  0.34543  0.87722  0.63929  1.0000
  C   C732      1.0  0.35020  0.82091  0.74714  1.0000
  H   H876      1.0  0.14909  0.77429  0.05376  1.0000
  H   H877      1.0  0.06073  0.90376  0.08226  1.0000
  C   C733      1.0  0.25380  0.96375  0.71781  1.0000
  H   H878      1.0  0.20248  0.91519  0.83670  1.0000
  C   C734      1.0  0.17605  0.86467  0.67711  1.0000
  H   H879      1.0  0.00607  0.89646  0.89574  1.0000
  Fe  Fe102     1.0  0.43564  0.00871  0.67335  1.0000
  C   C735      1.0  0.37272  0.98583  0.69237  1.0000
  H   H880      1.0  0.22685  0.96985  0.60422  1.0000
  C   C736      1.0  0.03987  0.86249  0.05579  1.0000
  H   H881      1.0  0.19127  0.89405  0.07105  1.0000
  C   C737      1.0  0.22963  0.80561  0.94872  1.0000
  H   H882      1.0  0.00229  0.93061  0.70500  1.0000
  H   H883      1.0  0.29575  0.99117  0.92176  1.0000
  H   H884      1.0  0.17514  0.96835  0.67897  1.0000
  H   H885      1.0  0.04124  0.91469  0.71664  1.0000
  C   C738      1.0  0.37358  0.83665  0.69414  1.0000
  H   H886      1.0  0.38891  0.78151  0.96665  1.0000
  H   H887      1.0  0.25180  0.94855  0.79290  1.0000
  H   H888      1.0  0.30610  0.80820  0.80562  1.0000
  H   H889      1.0  0.97237  0.99314  0.82463  1.0000
  C   C739      1.0  0.14707  0.00120  0.00375  1.0000
  C   C740      1.0  0.02659  0.98983  0.77154  1.0000
  H   H890      1.0  0.95353  0.92730  0.08459  1.0000
  H   H891      1.0  0.22098  0.93751  0.61610  1.0000
  S   S207      1.0  0.13467  0.97845  0.86543  1.0000
  H   H892      1.0  0.17471  0.82240  0.62303  1.0000
  H   H893      1.0  0.17011  0.90426  0.70881  1.0000
  C   C741      1.0  0.20954  0.82281  0.65539  1.0000
  H   H894      1.0  0.25231  0.81425  0.92037  1.0000
  C   C742      1.0  0.02153  0.90791  0.99921  1.0000
  C   C743      1.0  0.21873  0.81415  0.99587  1.0000
  C   C744      1.0  0.34404  0.98934  0.85773  1.0000
  H   H895      1.0  0.20743  0.84546  0.94454  1.0000
  N   N49       1.0  0.20345  0.80816  0.61689  1.0000
  H   H896      1.0  0.05549  0.96842  0.90898  1.0000
  Fe  Fe103     1.0  0.10521  0.84194  0.73248  1.0000
  C   C745      1.0  0.07433  0.94642  0.71924  1.0000
  C   C746      1.0  0.41847  0.94011  0.60147  1.0000
  C   C747      1.0  0.07787  0.79423  0.64755  1.0000
  C   C748      1.0  0.08983  0.93553  0.77962  1.0000
  H   H897      1.0  0.95690  0.82503  0.95367  1.0000
  C   C749      1.0  0.00328  0.77135  0.79887  1.0000
  H   H898      1.0  0.20635  0.87617  0.70398  1.0000
  S   S208      1.0  0.21356  0.99244  0.78035  1.0000
  C   C750      1.0  0.18969  0.80265  0.03323  1.0000
  C   C751      1.0  0.17144  0.78247  0.02369  1.0000
  C   C752      1.0  0.32250  0.83740  0.73105  1.0000
  Fe  Fe104     1.0  0.18122  0.00570  0.81954  1.0000
  C   C753      1.0  0.99871  0.77278  0.75366  1.0000
  H   H899      1.0  0.08864  0.97942  0.84295  1.0000
  H   H900      1.0  0.17974  0.96570  0.00246  1.0000
  Fe  Fe105     1.0  0.24178  0.84995  0.76376  1.0000
  H   H901      1.0  0.12718  0.95078  0.99633  1.0000
  C   C754      1.0  0.95806  0.95120  0.94845  1.0000
  C   C755      1.0  0.12628  0.95406  0.03646  1.0000
  H   H902      1.0  0.31071  0.85660  0.85478  1.0000
  H   H903      1.0  0.21899  0.97174  0.07923  1.0000
  C   C756      1.0  0.05736  0.00069  0.82838  1.0000
  H   H904      1.0  0.23293  0.82946  0.00385  1.0000
  H   H905      1.0  0.35676  0.82648  0.02209  1.0000
  S   S209      1.0  0.10731  0.86267  0.90411  1.0000
  C   C757      1.0  0.18394  0.87703  0.94477  1.0000
  H   H906      1.0  0.11195  0.77755  0.65513  1.0000
  C   C758      1.0  0.41251  0.89917  0.96020  1.0000
  Fe  Fe106     1.0  0.05408  0.85062  0.80176  1.0000
  C   C759      1.0  0.22324  0.95576  0.07154  1.0000
  H   H907      1.0  0.07552  0.88759  0.90091  1.0000
  H   H908      1.0  0.99510  0.78810  0.74187  1.0000
  H   H909      1.0  0.04829  0.92219  0.06028  1.0000
  C   C760      1.0  0.01673  0.95766  0.07593  1.0000
  C   C761      1.0  0.36631  0.96381  0.72802  1.0000
  N   N50       1.0  0.19355  0.94504  0.68883  1.0000
  C   C762      1.0  0.04434  0.83847  0.61531  1.0000
  H   H910      1.0  0.08498  0.93277  0.89196  1.0000
  H   H911      1.0  0.05976  0.79278  0.64364  1.0000
  H   H912      1.0  0.01138  0.85835  0.91490  1.0000
  H   H913      1.0  0.98076  0.81634  0.83749  1.0000
  H   H914      1.0  0.26593  0.97632  0.05295  1.0000
  S   S210      1.0  0.35412  0.80341  0.79270  1.0000
  H   H915      1.0  0.22169  0.77968  0.90178  1.0000
  H   H916      1.0  0.30250  0.83687  0.74439  1.0000
  H   H917      1.0  0.08765  0.99054  0.90234  1.0000
  H   H918      1.0  0.18831  0.77167  0.66995  1.0000
  H   H919      1.0  0.23823  0.89860  0.04462  1.0000
  S   S211      1.0  0.16880  0.92945  0.09688  1.0000
  H   H920      1.0  0.30635  0.97833  0.74373  1.0000
  H   H921      1.0  0.00179  0.97718  0.91427  1.0000
  Fe  Fe107     1.0  0.28415  0.90230  0.06572  1.0000
  C   C763      1.0  0.31670  0.95214  0.77444  1.0000
  H   H922      1.0  0.33361  0.85215  0.06585  1.0000
  C   C764      1.0  0.06984  0.90998  0.79603  1.0000
  H   H923      1.0  0.07619  0.96060  0.68945  1.0000
  H   H924      1.0  0.22882  0.88856  0.91190  1.0000
  C   C765      1.0  0.05436  0.90678  0.05136  1.0000
  C   C766      1.0  0.21222  0.89390  0.92894  1.0000
  H   H925      1.0  0.19055  0.82343  0.68862  1.0000
  H   H926      1.0  0.38009  0.86307  0.80931  1.0000
  C   C767      1.0  0.34771  0.85002  0.07735  1.0000
  H   H927      1.0  0.05832  0.86625  0.01370  1.0000
  C   C768      1.0  0.21251  0.92830  0.79570  1.0000
  Fe  Fe108     1.0  0.44564  0.84794  0.01146  1.0000
  S   S212      1.0  0.43702  0.97552  0.71072  1.0000
  C   C769      1.0  0.33822  0.94674  0.76846  1.0000
  N   N51       1.0  0.14926  0.97943  0.02607  1.0000
  H   H928      1.0  0.23915  0.99226  0.98142  1.0000
  H   H929      1.0  0.16474  0.95296  0.87893  1.0000
  C   C770      1.0  0.17250  0.91163  0.97106  1.0000
  C   C771      1.0  0.20043  0.92767  0.95471  1.0000
  C   C772      1.0  0.04573  0.97607  0.82065  1.0000
  C   C773      1.0  0.24050  0.94695  0.77077  1.0000
  H   H930      1.0  0.15716  0.91857  0.98779  1.0000
  C   C774      1.0  0.37188  0.85378  0.66106  1.0000
  H   H931      1.0  0.35517  0.98479  0.04632  1.0000
  C   C775      1.0  0.01387  0.87198  0.93918  1.0000
  H   H932      1.0  0.33969  0.80568  0.95189  1.0000
  C   C776      1.0  0.01019  0.84980  0.61457  1.0000
  S   S213      1.0  0.24607  0.99823  0.87175  1.0000
  C   C777      1.0  0.18659  0.96623  0.69985  1.0000
  C   C778      1.0  0.44196  0.92408  0.63329  1.0000
  Fe  Fe109     1.0  0.27440  0.90291  0.76921  1.0000
  C   C779      1.0  0.24307  0.79567  0.06388  1.0000
  H   H933      1.0  0.15127  0.91851  0.75668  1.0000
  H   H934      1.0  0.16206  0.78209  0.68780  1.0000
  C   C780      1.0  0.11835  0.78665  0.61153  1.0000
  C   C781      1.0  0.09191  0.95378  0.74200  1.0000
  H   H935      1.0  0.09126  0.81461  0.64152  1.0000
  H   H936      1.0  0.38281  0.95939  0.72296  1.0000
  H   H937      1.0  0.30936  0.00031  0.82680  1.0000
  C   C782      1.0  0.05254  0.90230  0.77304  1.0000
  H   H938      1.0  0.35628  0.00846  0.67106  1.0000
  H   H939      1.0  0.22602  0.84304  0.63170  1.0000
  H   H940      1.0  0.07337  0.91427  0.00821  1.0000
  H   H941      1.0  0.36055  0.01004  0.92590  1.0000
  C   C783      1.0  0.97367  0.00334  0.62123  1.0000
  S   S214      1.0  0.26949  0.86049  0.66953  1.0000
  C   C784      1.0  0.14837  0.98084  0.08051  1.0000
  C   C785      1.0  0.02504  0.88645  0.01120  1.0000
  H   H942      1.0  0.32790  0.81679  0.62834  1.0000
  C   C786      1.0  0.34653  0.85464  0.68012  1.0000
  C   C787      1.0  0.26697  0.80147  0.01142  1.0000
  C   C788      1.0  0.20204  0.93255  0.07738  1.0000
  H   H943      1.0  0.27567  0.79196  0.66595  1.0000
  S   S215      1.0  0.31977  0.89262  0.02860  1.0000
  H   H944      1.0  0.05848  0.83975  0.63044  1.0000
  S   S216      1.0  0.20591  0.81028  0.81101  1.0000
  C   C789      1.0  0.19744  0.92662  0.76831  1.0000
  C   C790      1.0  0.99666  0.95090  0.05960  1.0000
  C   C791      1.0  0.21162  0.78536  0.93891  1.0000
  H   H945      1.0  0.28522  0.78832  0.93933  1.0000
  S   S217      1.0  0.09990  0.87213  0.77409  1.0000
  C   C792      1.0  0.39837  0.98641  0.91223  1.0000
  C   C793      1.0  0.36029  0.86469  0.82636  1.0000
  C   C794      1.0  0.01460  0.91132  0.95836  1.0000
  H   H946      1.0  0.24167  0.93138  0.92264  1.0000
  H   H947      1.0  0.39055  0.92875  0.80729  1.0000
  S   S218      1.0  0.03060  0.86955  0.78892  1.0000
  Fe  Fe110     1.0  0.26606  0.89657  0.66962  1.0000
  Fe  Fe111     1.0  0.28647  0.85332  0.04608  1.0000
  H   H948      1.0  0.97228  0.84745  0.88758  1.0000
  C   C795      1.0  0.35120  0.99126  0.69829  1.0000
  S   S219      1.0  0.28168  0.92953  0.82054  1.0000
  H   H949      1.0  0.19001  0.82307  0.91666  1.0000
  H   H950      1.0  0.10522  0.95228  0.06643  1.0000
  C   C796      1.0  0.24501  0.79873  0.73378  1.0000
  C   C797      1.0  0.21028  0.94960  0.62653  1.0000
  H   H951      1.0  0.39310  0.83583  0.67868  1.0000
  H   H952      1.0  0.19487  0.99923  0.97516  1.0000
  H   H953      1.0  0.35361  0.92554  0.89228  1.0000
  H   H954      1.0  0.17776  0.97816  0.94445  1.0000
  C   C798      1.0  0.44059  0.90624  0.92192  1.0000
  C   C799      1.0  0.05445  0.92055  0.73501  1.0000
  C   C800      1.0  0.15265  0.83260  0.99800  1.0000
  C   C801      1.0  0.03053  0.97084  0.79274  1.0000
  H   H955      1.0  0.21448  0.85516  0.87393  1.0000
  C   C802      1.0  0.18063  0.78195  0.65190  1.0000
  C   C803      1.0  0.31346  0.00232  0.92850  1.0000
  H   H956      1.0  0.02220  0.85106  0.98711  1.0000
  H   H957      1.0  0.36349  0.99558  0.81565  1.0000
  H   H958      1.0  0.14241  0.87495  0.97893  1.0000
  C   C804      1.0  0.26687  0.78366  0.98032  1.0000
  H   H959      1.0  0.18126  0.80930  0.07000  1.0000
  H   H960      1.0  0.12989  0.76385  0.99537  1.0000
  C   C805      1.0  0.16428  0.88665  0.96616  1.0000
  S   S220      1.0  0.28738  0.94001  0.03615  1.0000
  H   H961      1.0  0.33314  0.92908  0.79404  1.0000
  H   H962      1.0  0.34751  0.77735  0.02891  1.0000
  C   C806      1.0  0.36089  0.83541  0.05238  1.0000
  S   S221      1.0  0.40319  0.96685  0.86781  1.0000
  H   H963      1.0  0.06787  0.89616  0.82657  1.0000
  H   H964      1.0  0.36321  0.80293  0.88624  1.0000
  H   H965      1.0  0.39032  0.86649  0.62101  1.0000
  C   C807      1.0  0.00825  0.94183  0.66505  1.0000
  C   C808      1.0  0.13860  0.91292  0.89379  1.0000
  C   C809      1.0  0.17651  0.98066  0.98518  1.0000
  H   H966      1.0  0.13837  0.96355  0.63687  1.0000
  H   H967      1.0  0.20599  0.98470  0.68401  1.0000
  H   H968      1.0  0.10420  0.94134  0.79512  1.0000
  C   C810      1.0  0.25352  0.78504  0.69562  1.0000
  H   H969      1.0  0.17291  0.77043  0.62699  1.0000
  H   H970      1.0  0.15557  0.92131  0.68846  1.0000
  H   H971      1.0  0.43849  0.93449  0.66600  1.0000
  H   H972      1.0  0.06918  0.78427  0.69226  1.0000
  C   C811      1.0  0.02035  0.86817  0.98069  1.0000
  H   H973      1.0  0.39681  0.87947  0.97368  1.0000
  C   C812      1.0  0.28728  0.89650  0.91670  1.0000
  H   H974      1.0  0.03652  0.99740  0.94125  1.0000
  H   H975      1.0  0.37337  0.80936  0.93797  1.0000
  C   C813      1.0  0.11385  0.89453  0.89831  1.0000
  H   H976      1.0  0.15352  0.90740  0.89423  1.0000
  H   H977      1.0  0.17589  0.91164  0.78986  1.0000
  C   C814      1.0  0.42523  0.94298  0.96299  1.0000
  S   S222      1.0  0.06065  0.82268  0.75350  1.0000
  H   H978      1.0  0.95466  0.91447  0.78368  1.0000
  H   H979      1.0  0.35556  0.86456  0.79172  1.0000
  H   H980      1.0  0.20705  0.94700  0.95847  1.0000
  C   C815      1.0  0.97668  0.99670  0.94014  1.0000
  C   C816      1.0  0.09463  0.90176  0.89738  1.0000
  S   S223      1.0  0.13803  0.85110  0.64187  1.0000
  C   C817      1.0  0.33563  0.91129  0.89225  1.0000
  H   H981      1.0  0.26073  0.81579  0.73405  1.0000
  C   C818      1.0  0.10022  0.92735  0.89161  1.0000
  H   H982      1.0  0.97576  0.84704  0.79935  1.0000
  C   C819      1.0  0.37550  0.97635  0.96786  1.0000
  H   H983      1.0  0.15766  0.82746  0.89537  1.0000
  H   H984      1.0  0.31093  0.98950  0.96353  1.0000
  H   H985      1.0  0.95336  0.96994  0.71692  1.0000
  H   H986      1.0  0.35444  0.87217  0.92737  1.0000
  H   H987      1.0  0.26863  0.89911  0.93399  1.0000
  C   C820      1.0  0.22010  0.91877  0.93429  1.0000
  H   H988      1.0  0.24963  0.97690  0.65089  1.0000
  C   C821      1.0  0.28760  0.87597  0.89462  1.0000
  H   H989      1.0  0.14250  0.84771  0.92220  1.0000
  C   C822      1.0  0.20740  0.91183  0.06813  1.0000
  S   S224      1.0  0.09686  0.81688  0.80849  1.0000
  S   S225      1.0  0.40392  0.82322  0.01883  1.0000
  H   H990      1.0  0.04826  0.96057  0.83538  1.0000
  S   S226      1.0  0.40759  0.00662  0.64039  1.0000
  H   H991      1.0  0.15850  0.85237  0.71854  1.0000
  C   C823      1.0  0.12766  0.99816  0.98548  1.0000
  C   C824      1.0  0.12609  0.94609  0.88215  1.0000
  C   C825      1.0  0.14506  0.93877  0.88451  1.0000
  C   C826      1.0  0.95385  0.83880  0.81109  1.0000
  N   N52       1.0  0.07276  0.00678  0.85931  1.0000
  H   H992      1.0  0.44654  0.89184  0.90648  1.0000
  C   C827      1.0  0.20317  0.87805  0.66885  1.0000
  C   C828      1.0  0.01104  0.89351  0.92800  1.0000
  C   C829      1.0  0.31130  0.91419  0.91518  1.0000
  C   C830      1.0  0.95214  0.83151  0.92256  1.0000
  H   H993      1.0  0.30594  0.77276  0.60973  1.0000
  H   H994      1.0  0.24298  0.80946  0.08793  1.0000
  H   H995      1.0  0.98730  0.00790  0.64016  1.0000
  S   S227      1.0  0.25133  0.86367  0.07662  1.0000
  C   C831      1.0  0.23337  0.76304  0.69464  1.0000
  C   C832      1.0  0.19615  0.76780  0.77207  1.0000
  S   S228      1.0  0.95673  0.90636  0.68032  1.0000
  H   H996      1.0  0.96450  0.79224  0.90098  1.0000
  C   C833      1.0  0.21873  0.77220  0.08454  1.0000
  Fe  Fe112     1.0  0.06117  0.00344  0.09044  1.0000
  H   H997      1.0  0.95215  0.90875  0.85143  1.0000
  C   C834      1.0  0.14736  0.95336  0.60931  1.0000
  H   H998      1.0  0.39875  0.92149  0.62469  1.0000
  H   H999      1.0  0.04612  0.86120  0.08781  1.0000
  C   C835      1.0  0.38647  0.76909  0.93999  1.0000
  C   C836      1.0  0.33126  0.76538  0.01914  1.0000
  H   H1000     1.0  0.42453  0.76759  0.92190  1.0000
  N   N53       1.0  0.34218  0.77041  0.95730  1.0000
  H   H1001     1.0  0.31363  0.77010  0.04109  1.0000
  C   C837      1.0  0.95213  0.97843  0.83310  1.0000
  Fe  Fe113     1.0  0.12252  0.01094  0.65391  1.0000
  H   H1002     1.0  0.44768  0.99567  0.92890  1.0000
  H   H1003     1.0  0.30070  0.76274  0.97443  1.0000
  H   H1004     1.0  0.32337  0.76304  0.90498  1.0000
  C   C838      1.0  0.36371  0.76172  0.93000  1.0000
  C   C839      1.0  0.40726  0.76147  0.91397  1.0000
  H   H1005     1.0  0.44943  0.91720  0.10017  1.0000
  C   C840      1.0  0.38704  0.84672  0.10072  1.0000
  H   H1006     1.0  0.13323  0.80721  0.60085  1.0000
  H   H1007     1.0  0.20598  0.89458  0.17271  1.0000
  H   H1008     1.0  0.29813  0.82541  0.52234  1.0000
  C   C841      1.0  0.32420  0.97804  0.16720  1.0000
  H   H1009     1.0  0.00393  0.78095  0.30879  1.0000
  H   H1010     1.0  0.09685  0.92515  0.30552  1.0000
  C   C842      1.0  0.24911  0.79239  0.48886  1.0000
  C   C843      1.0  0.40461  0.93788  0.46200  1.0000
  H   H1011     1.0  0.35337  0.93756  0.15863  1.0000
  H   H1012     1.0  0.34874  0.95062  0.10666  1.0000
  H   H1013     1.0  0.03353  0.78028  0.53835  1.0000
  Fe  Fe114     1.0  0.30815  0.87885  0.11749  1.0000
  H   H1014     1.0  0.99675  0.97929  0.30055  1.0000
  S   S229      1.0  0.01329  0.95818  0.42224  1.0000
  H   H1015     1.0  0.37763  0.83861  0.47573  1.0000
  H   H1016     1.0  0.33883  0.82751  0.26254  1.0000
  C   C844      1.0  0.96096  0.92048  0.15199  1.0000
  C   C845      1.0  0.30651  0.96644  0.14514  1.0000
  H   H1017     1.0  0.34067  0.96181  0.33672  1.0000
  C   C846      1.0  0.10466  0.77755  0.28117  1.0000
  C   C847      1.0  0.10329  0.87282  0.43028  1.0000
  C   C848      1.0  0.31730  0.78406  0.56481  1.0000
  Fe  Fe115     1.0  0.13598  0.88956  0.14786  1.0000
  C   C849      1.0  0.99063  0.78633  0.54432  1.0000
  C   C850      1.0  0.35917  0.77530  0.57218  1.0000
  S   S230      1.0  0.11100  0.86187  0.11723  1.0000
  S   S231      1.0  0.09829  0.88485  0.22757  1.0000
  H   H1018     1.0  0.18284  0.92105  0.20720  1.0000
  C   C851      1.0  0.12875  0.83570  0.47230  1.0000
  H   H1019     1.0  0.01254  0.83043  0.47333  1.0000
  C   C852      1.0  0.36214  0.90056  0.48048  1.0000
  H   H1020     1.0  0.98777  0.77387  0.51649  1.0000
  C   C853      1.0  0.17461  0.88613  0.28474  1.0000
  Fe  Fe116     1.0  0.19532  0.00584  0.24274  1.0000
  C   C854      1.0  0.05716  0.91661  0.41219  1.0000
  H   H1021     1.0  0.32289  0.90003  0.53762  1.0000
  H   H1022     1.0  0.40437  0.90683  0.42411  1.0000
  H   H1023     1.0  0.18634  0.93589  0.26013  1.0000
  H   H1024     1.0  0.20635  0.78484  0.53193  1.0000
  C   C855      1.0  0.12126  0.89995  0.33900  1.0000
  C   C856      1.0  0.18668  0.81842  0.35501  1.0000
  S   S232      1.0  0.27677  0.83895  0.13339  1.0000
  S   S233      1.0  0.34008  0.88342  0.14083  1.0000
  C   C857      1.0  0.43222  0.91002  0.14355  1.0000
  H   H1025     1.0  0.31229  0.81477  0.33649  1.0000
  S   S234      1.0  0.40306  0.97752  0.50938  1.0000
  C   C858      1.0  0.29100  0.97722  0.13795  1.0000
  H   H1026     1.0  0.29192  0.96676  0.59362  1.0000
  H   H1027     1.0  0.28775  0.83536  0.31000  1.0000
  C   C859      1.0  0.31854  0.81055  0.29477  1.0000
  H   H1028     1.0  0.33689  0.01018  0.20159  1.0000
  H   H1029     1.0  0.09301  0.85404  0.45863  1.0000
  C   C860      1.0  0.27794  0.81640  0.52510  1.0000
  H   H1030     1.0  0.96943  0.79436  0.35799  1.0000
  C   C861      1.0  0.30898  0.01116  0.17562  1.0000
  S   S235      1.0  0.36332  0.91875  0.23554  1.0000
  H   H1031     1.0  0.36235  0.97646  0.47540  1.0000
  H   H1032     1.0  0.12534  0.90219  0.29620  1.0000
  H   H1033     1.0  0.13035  0.98365  0.11033  1.0000
  H   H1034     1.0  0.16561  0.80706  0.36293  1.0000
  C   C862      1.0  0.43138  0.89386  0.18372  1.0000
  H   H1035     1.0  0.15061  0.78762  0.17547  1.0000
  C   C863      1.0  0.40572  0.81492  0.56759  1.0000
  C   C864      1.0  0.21916  0.91753  0.27268  1.0000
  H   H1036     1.0  0.08085  0.94465  0.30312  1.0000
  C   C865      1.0  0.40961  0.88548  0.24039  1.0000
  S   S236      1.0  0.15592  0.00334  0.31404  1.0000
  Fe  Fe117     1.0  0.04888  0.98528  0.20811  1.0000
  C   C866      1.0  0.15077  0.78327  0.21490  1.0000
  C   C867      1.0  0.36392  0.00202  0.29549  1.0000
  S   S237      1.0  0.27623  0.88105  0.48794  1.0000
  C   C868      1.0  0.04207  0.82390  0.57773  1.0000
  H   H1037     1.0  0.24678  0.78253  0.45815  1.0000
  C   C869      1.0  0.05509  0.90318  0.19427  1.0000
  Fe  Fe118     1.0  0.16387  0.98272  0.36988  1.0000
  C   C870      1.0  0.20919  0.83157  0.29952  1.0000
  N   N54       1.0  0.44421  0.93700  0.58262  1.0000
  S   S238      1.0  0.14245  0.86105  0.18882  1.0000
  S   S239      1.0  0.02414  0.94809  0.27452  1.0000
  H   H1038     1.0  0.19032  0.97069  0.42387  1.0000
  H   H1039     1.0  0.18586  0.80979  0.56430  1.0000
  H   H1040     1.0  0.04952  0.88053  0.45808  1.0000
  C   C871      1.0  0.96336  0.77180  0.24906  1.0000
  H   H1041     1.0  0.14402  0.99332  0.21488  1.0000
  S   S240      1.0  0.30872  0.86193  0.37903  1.0000
  H   H1042     1.0  0.25294  0.96947  0.42007  1.0000
  N   N55       1.0  0.20236  0.90869  0.24492  1.0000
  N   N56       1.0  0.33278  0.99963  0.53922  1.0000
  C   C872      1.0  0.31922  0.98165  0.38458  1.0000
  H   H1043     1.0  0.35151  0.98067  0.56478  1.0000
  H   H1044     1.0  0.07204  0.00112  0.36630  1.0000
  H   H1045     1.0  0.42296  0.96541  0.19833  1.0000
  C   C873      1.0  0.97813  0.98260  0.31472  1.0000
  C   C874      1.0  0.26883  0.78383  0.32687  1.0000
  H   H1046     1.0  0.95451  0.80432  0.24767  1.0000
  H   H1047     1.0  0.10423  0.78436  0.42693  1.0000
  H   H1048     1.0  0.95111  0.76728  0.12071  1.0000
  H   H1049     1.0  0.06532  0.95548  0.38365  1.0000
  H   H1050     1.0  0.98091  0.99320  0.58946  1.0000
  Fe  Fe119     1.0  0.26880  0.86536  0.42110  1.0000
  C   C875      1.0  0.35515  0.00967  0.47863  1.0000
  H   H1051     1.0  0.25415  0.85525  0.24689  1.0000
  H   H1052     1.0  0.99338  0.83475  0.56332  1.0000
  H   H1053     1.0  0.04883  0.84015  0.44805  1.0000
  C   C876      1.0  0.21770  0.90106  0.19533  1.0000
  C   C877      1.0  0.38895  0.90855  0.21606  1.0000
  C   C878      1.0  0.99827  0.77818  0.27549  1.0000
  C   C879      1.0  0.19449  0.88319  0.57833  1.0000
  C   C880      1.0  0.00545  0.87551  0.11193  1.0000
  H   H1054     1.0  0.07455  0.91805  0.27552  1.0000
  H   H1055     1.0  0.44028  0.97461  0.34790  1.0000
  S   S241      1.0  0.02390  0.99301  0.17623  1.0000
  H   H1056     1.0  0.18290  0.98763  0.54952  1.0000
  C   C881      1.0  0.10822  0.79516  0.45528  1.0000
  Fe  Fe120     1.0  0.24512  0.85329  0.16270  1.0000
  C   C882      1.0  0.35883  0.81988  0.48868  1.0000
  C   C883      1.0  0.24125  0.84794  0.33455  1.0000
  H   H1057     1.0  0.39190  0.84013  0.54873  1.0000
  H   H1058     1.0  0.40910  0.87320  0.27162  1.0000
  H   H1059     1.0  0.98292  0.97632  0.51290  1.0000
  H   H1060     1.0  0.00938  0.90050  0.41646  1.0000
  C   C884      1.0  0.02656  0.92257  0.24755  1.0000
  C   C885      1.0  0.12284  0.82177  0.43664  1.0000
  H   H1061     1.0  0.15980  0.88148  0.26882  1.0000
  Fe  Fe121     1.0  0.31779  0.88046  0.44129  1.0000
  C   C886      1.0  0.00752  0.98476  0.42244  1.0000
  C   C887      1.0  0.11943  0.82309  0.52721  1.0000
  H   H1062     1.0  0.32460  0.81300  0.19170  1.0000
  C   C888      1.0  0.95428  0.76844  0.15644  1.0000
  H   H1063     1.0  0.23605  0.95879  0.24056  1.0000
  S   S242      1.0  0.03374  0.85153  0.20700  1.0000
  H   H1064     1.0  0.30724  0.78024  0.23062  1.0000
  H   H1065     1.0  0.95559  0.96108  0.42370  1.0000
  C   C889      1.0  0.22597  0.79375  0.53163  1.0000
  H   H1066     1.0  0.07340  0.80549  0.14506  1.0000
  C   C890      1.0  0.23651  0.84585  0.28941  1.0000
  C   C891      1.0  0.36854  0.99511  0.45225  1.0000
  C   C892      1.0  0.02481  0.97022  0.55983  1.0000
  C   C893      1.0  0.36958  0.98565  0.15521  1.0000
  H   H1067     1.0  0.23901  0.90942  0.52911  1.0000
  H   H1068     1.0  0.08901  0.76179  0.52089  1.0000
  H   H1069     1.0  0.26238  0.85935  0.32629  1.0000
  H   H1070     1.0  0.20012  0.76791  0.12451  1.0000
  H   H1071     1.0  0.34493  0.82403  0.47765  1.0000
  H   H1072     1.0  0.37183  0.00119  0.17634  1.0000
  H   H1073     1.0  0.39995  0.99269  0.37671  1.0000
  C   C894      1.0  0.29204  0.99939  0.15352  1.0000
  C   C895      1.0  0.34441  0.99538  0.57406  1.0000
  H   H1074     1.0  0.23144  0.00060  0.49163  1.0000
  C   C896      1.0  0.06776  0.95075  0.45758  1.0000
  H   H1075     1.0  0.21036  0.87950  0.31031  1.0000
  C   C897      1.0  0.01958  0.00191  0.37060  1.0000
  S   S243      1.0  0.29120  0.95408  0.43987  1.0000
  C   C898      1.0  0.32601  0.95649  0.24016  1.0000
  S   S244      1.0  0.28837  0.90372  0.36193  1.0000
  H   H1076     1.0  0.38113  0.00060  0.26117  1.0000
  C   C899      1.0  0.34568  0.91038  0.51677  1.0000
  N   N57       1.0  0.33972  0.96640  0.17820  1.0000
  C   C900      1.0  0.00469  0.87704  0.25746  1.0000
  H   H1077     1.0  0.26207  0.97180  0.28900  1.0000
  H   H1078     1.0  0.03106  0.98078  0.51881  1.0000
  C   C901      1.0  0.20588  0.96416  0.41991  1.0000
  S   S245      1.0  0.20312  0.83104  0.24302  1.0000
  C   C902      1.0  0.18540  0.95432  0.52093  1.0000
  H   H1079     1.0  0.06896  0.94140  0.53222  1.0000
  H   H1080     1.0  0.42374  0.83024  0.56620  1.0000
  Fe  Fe122     1.0  0.11396  0.83268  0.16535  1.0000
  C   C903      1.0  0.34003  0.94485  0.15299  1.0000
  H   H1081     1.0  0.33810  0.94941  0.25127  1.0000
  H   H1082     1.0  0.23550  0.89347  0.36065  1.0000
  C   C904      1.0  0.03106  0.87918  0.21984  1.0000
  C   C905      1.0  0.10365  0.79601  0.54829  1.0000
  C   C906      1.0  0.05279  0.92497  0.20763  1.0000
  H   H1083     1.0  0.40818  0.91016  0.54315  1.0000
  C   C907      1.0  0.27504  0.80360  0.48573  1.0000
  H   H1084     1.0  0.10771  0.89227  0.49189  1.0000
  H   H1085     1.0  0.99878  0.89068  0.11641  1.0000
  C   C908      1.0  0.38824  0.89263  0.25650  1.0000
  H   H1086     1.0  0.42731  0.94844  0.44110  1.0000
  C   C909      1.0  0.29501  0.82927  0.27068  1.0000
  H   H1087     1.0  0.03105  0.99779  0.33202  1.0000
  C   C910      1.0  0.39164  0.91421  0.45316  1.0000
  S   S246      1.0  0.08539  0.99402  0.12255  1.0000
  C   C911      1.0  0.19156  0.81973  0.40023  1.0000
  H   H1088     1.0  0.07151  0.94334  0.18970  1.0000
  N   N58       1.0  0.05237  0.90789  0.36674  1.0000
  C   C912      1.0  0.15687  0.01010  0.17895  1.0000
  C   C913      1.0  0.40865  0.94311  0.31353  1.0000
  S   S247      1.0  0.07441  0.82350  0.24653  1.0000
  H   H1089     1.0  0.07552  0.90489  0.16494  1.0000
  Fe  Fe123     1.0  0.10270  0.85421  0.26673  1.0000
  H   H1090     1.0  0.22058  0.88486  0.20805  1.0000
  H   H1091     1.0  0.16689  0.77681  0.20582  1.0000
  C   C914      1.0  0.11162  0.89445  0.44913  1.0000
  C   C915      1.0  0.31971  0.00539  0.38590  1.0000
  C   C916      1.0  0.22147  0.89686  0.57036  1.0000
  C   C917      1.0  0.23496  0.94381  0.26668  1.0000
  H   H1092     1.0  0.09833  0.78086  0.25044  1.0000
  C   C918      1.0  0.37342  0.86085  0.12658  1.0000
  H   H1093     1.0  0.31590  0.95999  0.53762  1.0000
  C   C919      1.0  0.37800  0.77013  0.58099  1.0000
  H   H1094     1.0  0.11597  0.79648  0.28628  1.0000
  H   H1095     1.0  0.41170  0.92981  0.12847  1.0000
  H   H1096     1.0  0.95558  0.98882  0.19336  1.0000
  H   H1097     1.0  0.37146  0.88611  0.30026  1.0000
  H   H1098     1.0  0.23893  0.91722  0.16452  1.0000
  H   H1099     1.0  0.34560  0.94073  0.55548  1.0000
  H   H1100     1.0  0.02027  0.89958  0.34507  1.0000
  H   H1101     1.0  0.19679  0.94373  0.42040  1.0000
  C   C920      1.0  0.43215  0.98335  0.20686  1.0000
  H   H1102     1.0  0.15887  0.80173  0.22479  1.0000
  Fe  Fe124     1.0  0.29769  0.91951  0.42618  1.0000
  H   H1103     1.0  0.26149  0.93955  0.35084  1.0000
  H   H1104     1.0  0.30240  0.78927  0.56004  1.0000
  C   C921      1.0  0.17323  0.96705  0.55869  1.0000
  H   H1105     1.0  0.97535  0.91715  0.20944  1.0000
  H   H1106     1.0  0.30443  0.94034  0.25825  1.0000
  H   H1107     1.0  0.98752  0.85769  0.11732  1.0000
  C   C922      1.0  0.42772  0.90909  0.52612  1.0000
  C   C923      1.0  0.00930  0.94468  0.12907  1.0000
  C   C924      1.0  0.19299  0.82062  0.59066  1.0000
  H   H1108     1.0  0.97911  0.99149  0.27688  1.0000
  H   H1109     1.0  0.38021  0.99457  0.10909  1.0000
  H   H1110     1.0  0.95367  0.94845  0.27375  1.0000
  H   H1111     1.0  0.42847  0.00356  0.14593  1.0000
  C   C925      1.0  0.98123  0.92653  0.16771  1.0000
  S   S248      1.0  0.09775  0.84788  0.35281  1.0000
  S   S249      1.0  0.33960  0.92031  0.38685  1.0000
  C   C926      1.0  0.30431  0.79749  0.22746  1.0000
  C   C927      1.0  0.41109  0.91745  0.15975  1.0000
  H   H1112     1.0  0.32410  0.97136  0.26222  1.0000
  H   H1113     1.0  0.05730  0.89664  0.53117  1.0000
  C   C928      1.0  0.43169  0.89397  0.48888  1.0000
  C   C929      1.0  0.24988  0.93347  0.32906  1.0000
  S   S250      1.0  0.22514  0.83571  0.44590  1.0000
  H   H1114     1.0  0.13051  0.77822  0.58185  1.0000
  C   C930      1.0  0.32475  0.00067  0.18269  1.0000
  H   H1115     1.0  0.32089  0.77138  0.53703  1.0000
  H   H1116     1.0  0.97587  0.79440  0.55287  1.0000
  C   C931      1.0  0.34116  0.98002  0.33890  1.0000
  C   C932      1.0  0.12969  0.92169  0.35787  1.0000
  C   C933      1.0  0.23530  0.90759  0.33448  1.0000
  H   H1117     1.0  0.17423  0.80926  0.44315  1.0000
  C   C934      1.0  0.38800  0.94759  0.49872  1.0000
  H   H1118     1.0  0.24735  0.00608  0.41680  1.0000
  N   N59       1.0  0.43880  0.96193  0.27678  1.0000
  H   H1119     1.0  0.07281  0.97027  0.45859  1.0000
  N   N60       1.0  0.96886  0.77330  0.29638  1.0000
  H   H1120     1.0  0.41567  0.88436  0.47830  1.0000
  H   H1121     1.0  0.28107  0.82775  0.25351  1.0000
  H   H1122     1.0  0.17748  0.91623  0.50990  1.0000
  H   H1123     1.0  0.40566  0.92477  0.33450  1.0000
  H   H1124     1.0  0.31874  0.92803  0.17347  1.0000
  C   C935      1.0  0.39017  0.00427  0.39561  1.0000
  C   C936      1.0  0.25010  0.95156  0.29444  1.0000
  S   S251      1.0  0.20109  0.00143  0.15906  1.0000
  H   H1125     1.0  0.14652  0.96332  0.10217  1.0000
  C   C937      1.0  0.25505  0.81803  0.56784  1.0000
  N   N61       1.0  0.02035  0.80645  0.51802  1.0000
  H   H1126     1.0  0.22512  0.97503  0.37756  1.0000
  C   C938      1.0  0.36303  0.80068  0.56112  1.0000
  C   C939      1.0  0.02345  0.82171  0.55773  1.0000
  H   H1127     1.0  0.19915  0.76776  0.41712  1.0000
  C   C940      1.0  0.14404  0.91373  0.58782  1.0000
  H   H1128     1.0  0.16453  0.88956  0.32672  1.0000
  H   H1129     1.0  0.44672  0.77845  0.49306  1.0000
  C   C941      1.0  0.06521  0.93432  0.49968  1.0000
  H   H1130     1.0  0.30463  0.94924  0.13218  1.0000
  H   H1131     1.0  0.39757  0.95072  0.34739  1.0000
  H   H1132     1.0  0.02700  0.86752  0.40790  1.0000
  C   C942      1.0  0.21811  0.76557  0.39672  1.0000
  H   H1133     1.0  0.28804  0.79333  0.21539  1.0000
  C   C943      1.0  0.10806  0.87548  0.37527  1.0000
  H   H1134     1.0  0.37819  0.87046  0.15550  1.0000
  N   N62       1.0  0.29607  0.80499  0.28091  1.0000
  C   C944      1.0  0.22676  0.99623  0.45752  1.0000
  C   C945      1.0  0.96516  0.79379  0.32265  1.0000
  H   H1135     1.0  0.05488  0.81433  0.56545  1.0000
  S   S252      1.0  0.98414  0.89693  0.53716  1.0000
  C   C946      1.0  0.09912  0.78236  0.50992  1.0000
  C   C947      1.0  0.38718  0.82036  0.55816  1.0000
  H   H1136     1.0  0.13535  0.77193  0.32270  1.0000
  C   C948      1.0  0.02788  0.82327  0.46569  1.0000
  C   C949      1.0  0.05443  0.90018  0.45616  1.0000
  Fe  Fe125     1.0  0.44912  0.00433  0.45176  1.0000
  H   H1137     1.0  0.32362  0.79456  0.29596  1.0000
  H   H1138     1.0  0.31618  0.84532  0.23909  1.0000
  C   C950      1.0  0.19683  0.92855  0.22499  1.0000
  H   H1139     1.0  0.98617  0.85849  0.27769  1.0000
  C   C951      1.0  0.12478  0.91891  0.41308  1.0000
  H   H1140     1.0  0.40245  0.84574  0.10958  1.0000
  N   N63       1.0  0.21214  0.96820  0.46583  1.0000
  H   H1141     1.0  0.17626  0.86835  0.29143  1.0000
  Fe  Fe126     1.0  0.32904  0.90201  0.32654  1.0000
  C   C952      1.0  0.44818  0.92181  0.54134  1.0000
  S   S253      1.0  0.07754  0.00281  0.53391  1.0000
  H   H1142     1.0  0.27788  0.96814  0.12068  1.0000
  S   S254      1.0  0.34566  0.87266  0.46502  1.0000
  H   H1143     1.0  0.02865  0.81324  0.43229  1.0000
  C   C953      1.0  0.04457  0.76849  0.14904  1.0000
  H   H1144     1.0  0.00876  0.87214  0.14764  1.0000
  H   H1145     1.0  0.02507  0.94906  0.14099  1.0000
  N   N64       1.0  0.34402  0.80696  0.54978  1.0000
  C   C954      1.0  0.95632  0.78906  0.22919  1.0000
  H   H1146     1.0  0.21644  0.94492  0.18981  1.0000
  H   H1147     1.0  0.38170  0.97679  0.16118  1.0000
  C   C955      1.0  0.35455  0.86333  0.11332  1.0000
  S   S255      1.0  0.12108  0.80074  0.13444  1.0000
  H   H1148     1.0  0.03188  0.92944  0.35968  1.0000
  H   H1149     1.0  0.06474  0.87837  0.36488  1.0000
  H   H1150     1.0  0.04410  0.87543  0.33284  1.0000
  C   C956      1.0  0.06375  0.94212  0.41456  1.0000
  S   S256      1.0  0.13645  0.00405  0.56863  1.0000
  H   H1151     1.0  0.30023  0.97717  0.52242  1.0000
  C   C957      1.0  0.22061  0.89971  0.30595  1.0000
  S   S257      1.0  0.96224  0.83071  0.50693  1.0000
  H   H1152     1.0  0.39755  0.93832  0.28954  1.0000
  C   C958      1.0  0.21887  0.83465  0.38990  1.0000
  H   H1153     1.0  0.02928  0.77437  0.15176  1.0000
  Fe  Fe127     1.0  0.07352  0.85491  0.20015  1.0000
  C   C959      1.0  0.44121  0.98493  0.24665  1.0000
  S   S258      1.0  0.13444  0.94557  0.43839  1.0000
  H   H1154     1.0  0.13002  0.83162  0.39411  1.0000
  C   C960      1.0  0.05849  0.90908  0.49907  1.0000
  H   H1155     1.0  0.23651  0.96011  0.49544  1.0000
  C   C961      1.0  0.00247  0.89867  0.27170  1.0000
  S   S259      1.0  0.27607  0.89254  0.15342  1.0000
  C   C962      1.0  0.02743  0.90942  0.37230  1.0000
  H   H1156     1.0  0.13971  0.94059  0.33002  1.0000
  C   C963      1.0  0.04691  0.88109  0.36845  1.0000
  C   C964      1.0  0.04358  0.97733  0.57939  1.0000
  H   H1157     1.0  0.06128  0.80799  0.47817  1.0000
  H   H1158     1.0  0.30266  0.00678  0.42084  1.0000
  C   C965      1.0  0.33628  0.82446  0.58260  1.0000
  S   S260      1.0  0.20095  0.98251  0.29742  1.0000
  H   H1159     1.0  0.27937  0.00724  0.14915  1.0000
  C   C966      1.0  0.03849  0.79373  0.50108  1.0000
  C   C967      1.0  0.06962  0.78613  0.14494  1.0000
  C   C968      1.0  0.07726  0.92460  0.31044  1.0000
  C   C969      1.0  0.00770  0.83525  0.57716  1.0000
  C   C970      1.0  0.43466  0.00490  0.17736  1.0000
  H   H1160     1.0  0.29295  0.80257  0.45254  1.0000
  H   H1161     1.0  0.21422  0.00556  0.45559  1.0000
  H   H1162     1.0  0.14077  0.85641  0.45722  1.0000
  H   H1163     1.0  0.22453  0.93817  0.45962  1.0000
  C   C971      1.0  0.23218  0.95847  0.46021  1.0000
  C   C972      1.0  0.30929  0.97495  0.54859  1.0000
  H   H1164     1.0  0.32006  0.82778  0.57902  1.0000
  H   H1165     1.0  0.01367  0.79564  0.23883  1.0000
  C   C973      1.0  0.16996  0.92720  0.53706  1.0000
  H   H1166     1.0  0.36610  0.80792  0.46218  1.0000
  C   C974      1.0  0.35859  0.93354  0.52671  1.0000
  C   C975      1.0  0.99206  0.98952  0.47276  1.0000
  H   H1167     1.0  0.96564  0.98110  0.10608  1.0000
  H   H1168     1.0  0.12516  0.83477  0.55272  1.0000
  Fe  Fe128     1.0  0.97740  0.92175  0.48755  1.0000
  H   H1169     1.0  0.19127  0.88501  0.54309  1.0000
  C   C976      1.0  0.22825  0.80681  0.57226  1.0000
  H   H1170     1.0  0.98225  0.89674  0.30318  1.0000
  H   H1171     1.0  0.98046  0.99728  0.33791  1.0000
  H   H1172     1.0  0.35428  0.84397  0.56733  1.0000
  H   H1173     1.0  0.98479  0.94371  0.57478  1.0000
  H   H1174     1.0  0.24243  0.80263  0.34044  1.0000
  H   H1175     1.0  0.44960  0.94961  0.33434  1.0000
  H   H1176     1.0  0.41878  0.94944  0.56497  1.0000
  H   H1177     1.0  0.03543  0.78222  0.47173  1.0000
  H   H1178     1.0  0.44382  0.94366  0.20920  1.0000
  C   C977      1.0  0.40107  0.78983  0.57915  1.0000
  C   C978      1.0  0.24339  0.78573  0.35290  1.0000
  H   H1179     1.0  0.41543  0.78560  0.58650  1.0000
  C   C979      1.0  0.08983  0.77878  0.13950  1.0000
  H   H1180     1.0  0.98007  0.81300  0.29166  1.0000
  H   H1181     1.0  0.25904  0.82838  0.59649  1.0000
  H   H1182     1.0  0.96839  0.94173  0.38547  1.0000
  H   H1183     1.0  0.20987  0.84019  0.56261  1.0000
  H   H1184     1.0  0.96767  0.93506  0.30391  1.0000
  N   N65       1.0  0.12218  0.76420  0.26191  1.0000
  C   C980      1.0  0.99831  0.94891  0.59178  1.0000
  H   H1185     1.0  0.08510  0.76671  0.32319  1.0000
  H   H1186     1.0  0.95536  0.78209  0.48499  1.0000
  H   H1187     1.0  0.95128  0.86714  0.26314  1.0000
  Fe  Fe129     1.0  0.95339  0.86360  0.52747  1.0000
  N   N66       1.0  0.95134  0.95869  0.34970  1.0000
  H   H1188     1.0  0.98364  0.77402  0.58533  1.0000
  C   C981      1.0  0.95137  0.94745  0.39902  1.0000
  C   C982      1.0  0.95184  0.78725  0.18357  1.0000
  H   H1189     1.0  0.00177  0.76201  0.26152  1.0000
  H   H1190     1.0  0.13252  0.89306  0.59896  1.0000
  C   C983      1.0  0.86472  0.14940  0.69879  1.0000
  H   H1191     1.0  0.59616  0.10410  0.88884  1.0000
  C   C984      1.0  0.82087  0.10259  0.71551  1.0000
  H   H1192     1.0  0.94523  0.13822  0.64133  1.0000
  Fe  Fe130     1.0  0.47646  0.04673  0.70059  1.0000
  C   C985      1.0  0.77715  0.24138  0.89188  1.0000
  H   H1193     1.0  0.62048  0.19960  0.75316  1.0000
  C   C986      1.0  0.71448  0.16761  0.67243  1.0000
  N   N67       1.0  0.89971  0.24537  0.72957  1.0000
  C   C987      1.0  0.75009  0.23893  0.92334  1.0000
  Fe  Fe131     1.0  0.92035  0.15024  0.80222  1.0000
  H   H1194     1.0  0.78260  0.19294  0.02908  1.0000
  C   C988      1.0  0.68989  0.16773  0.68096  1.0000
  H   H1195     1.0  0.93103  0.23141  0.63552  1.0000
  H   H1196     1.0  0.68552  0.13740  0.89560  1.0000
  H   H1197     1.0  0.55343  0.05810  0.72283  1.0000
  C   C989      1.0  0.64054  0.08989  0.92353  1.0000
  C   C990      1.0  0.48016  0.10570  0.69913  1.0000
  C   C991      1.0  0.47583  0.24659  0.97742  1.0000
  C   C992      1.0  0.70987  0.18329  0.75425  1.0000
  C   C993      1.0  0.59053  0.05773  0.97477  1.0000
  H   H1198     1.0  0.65742  0.17781  0.73009  1.0000
  C   C994      1.0  0.60546  0.12654  0.76201  1.0000
  H   H1199     1.0  0.68353  0.13036  0.79055  1.0000
  C   C995      1.0  0.75531  0.12523  0.85631  1.0000
  H   H1200     1.0  0.79816  0.10547  0.79970  1.0000
  N   N68       1.0  0.58582  0.17408  0.83564  1.0000
  H   H1201     1.0  0.60730  0.01920  0.92554  1.0000
  H   H1202     1.0  0.76333  0.04633  0.62779  1.0000
  S   S261      1.0  0.50038  0.15775  0.95813  1.0000
  S   S262      1.0  0.70631  0.23822  0.01748  1.0000
  H   H1203     1.0  0.67515  0.19173  0.79470  1.0000
  H   H1204     1.0  0.59127  0.17877  0.90754  1.0000
  H   H1205     1.0  0.81484  0.18800  0.81805  1.0000
  H   H1206     1.0  0.86530  0.19173  0.60213  1.0000
  H   H1207     1.0  0.61706  0.06812  0.88544  1.0000
  H   H1208     1.0  0.62905  0.20001  0.80768  1.0000
  S   S263      1.0  0.80765  0.02893  0.61787  1.0000
  C   C996      1.0  0.85449  0.20936  0.66961  1.0000
  C   C997      1.0  0.89737  0.04049  0.07497  1.0000
  C   C998      1.0  0.47396  0.16436  0.96157  1.0000
  H   H1209     1.0  0.74595  0.18564  0.87438  1.0000
  S   S264      1.0  0.49996  0.08921  0.68276  1.0000
  H   H1210     1.0  0.84254  0.06145  0.85753  1.0000
  H   H1211     1.0  0.69563  0.11296  0.90200  1.0000
  N   N69       1.0  0.80644  0.13814  0.09796  1.0000
  H   H1212     1.0  0.87199  0.09135  0.68713  1.0000
  H   H1213     1.0  0.81005  0.09776  0.95713  1.0000
  H   H1214     1.0  0.67950  0.07477  0.86900  1.0000
  H   H1215     1.0  0.92894  0.06206  0.95968  1.0000
  C   C999      1.0  0.80817  0.02452  0.87713  1.0000
  S   S265      1.0  0.74107  0.08570  0.65834  1.0000
  H   H1216     1.0  0.79798  0.23060  0.68592  1.0000
  H   H1217     1.0  0.60091  0.15836  0.73841  1.0000
  S   S266      1.0  0.64081  0.17441  0.91443  1.0000
  H   H1218     1.0  0.89564  0.03468  0.98415  1.0000
  C   C1000     1.0  0.91459  0.10600  0.00075  1.0000
  H   H1219     1.0  0.93890  0.02120  0.68410  1.0000
  H   H1220     1.0  0.90918  0.05282  0.82571  1.0000
  H   H1221     1.0  0.74706  0.01629  0.88434  1.0000
  H   H1222     1.0  0.64754  0.10718  0.82261  1.0000
  H   H1223     1.0  0.60669  0.09966  0.62400  1.0000
  S   S267      1.0  0.51942  0.10283  0.92806  1.0000
  H   H1224     1.0  0.80363  0.20213  0.87430  1.0000
  C   C1001     1.0  0.79745  0.19203  0.84615  1.0000
  C   C1002     1.0  0.80129  0.04532  0.03490  1.0000
  H   H1225     1.0  0.83306  0.20260  0.67864  1.0000
  H   H1226     1.0  0.72075  0.02664  0.71544  1.0000
  C   C1003     1.0  0.59733  0.11619  0.85605  1.0000
  H   H1227     1.0  0.86223  0.06510  0.04213  1.0000
  H   H1228     1.0  0.75643  0.11163  0.73735  1.0000
  C   C1004     1.0  0.87270  0.20327  0.62621  1.0000
  C   C1005     1.0  0.92920  0.25255  0.71404  1.0000
  C   C1006     1.0  0.76586  0.15217  0.84110  1.0000
  C   C1007     1.0  0.61165  0.07878  0.02681  1.0000
  C   C1008     1.0  0.67686  0.08659  0.84141  1.0000
  Fe  Fe132     1.0  0.86639  0.15295  0.83075  1.0000
  S   S268      1.0  0.83546  0.15183  0.80636  1.0000
  H   H1229     1.0  0.85983  0.18173  0.02958  1.0000
  C   C1009     1.0  0.61632  0.07163  0.92416  1.0000
  S   S269      1.0  0.71958  0.18814  0.80562  1.0000
  C   C1010     1.0  0.75169  0.11092  0.81919  1.0000
  C   C1011     1.0  0.90030  0.21184  0.61412  1.0000
  C   C1012     1.0  0.61379  0.25257  0.98035  1.0000
  Fe  Fe133     1.0  0.64286  0.01342  0.07630  1.0000
  H   H1230     1.0  0.76408  0.06585  0.97148  1.0000
  H   H1231     1.0  0.87232  0.06471  0.71897  1.0000
  H   H1232     1.0  0.54839  0.09938  0.98033  1.0000
  H   H1233     1.0  0.60766  0.01793  0.67964  1.0000
  H   H1234     1.0  0.80066  0.10932  0.62079  1.0000
  H   H1235     1.0  0.58626  0.13940  0.90791  1.0000
  C   C1013     1.0  0.82201  0.05124  0.86188  1.0000
  H   H1236     1.0  0.69257  0.15025  0.05336  1.0000
  H   H1237     1.0  0.52669  0.05987  0.89507  1.0000
  H   H1238     1.0  0.66155  0.07309  0.83131  1.0000
  C   C1014     1.0  0.73873  0.23820  0.98054  1.0000
  C   C1015     1.0  0.92186  0.06655  0.78448  1.0000
  S   S270      1.0  0.45784  0.08521  0.04241  1.0000
  S   S271      1.0  0.66995  0.04837  0.66375  1.0000
  S   S272      1.0  0.91174  0.18240  0.78642  1.0000
  H   H1239     1.0  0.73843  0.13131  0.63765  1.0000
  H   H1240     1.0  0.70243  0.03090  0.68361  1.0000
  H   H1241     1.0  0.48170  0.01571  0.87003  1.0000
  S   S273      1.0  0.62827  0.23195  0.89132  1.0000
  C   C1016     1.0  0.90957  0.22587  0.64653  1.0000
  S   S274      1.0  0.67502  0.09715  0.71542  1.0000
  C   C1017     1.0  0.84863  0.20573  0.99713  1.0000
  H   H1242     1.0  0.88577  0.02048  0.07488  1.0000
  C   C1018     1.0  0.93452  0.21788  0.93349  1.0000
  H   H1243     1.0  0.88187  0.16716  0.69280  1.0000
  C   C1019     1.0  0.69074  0.12289  0.87595  1.0000
  C   C1020     1.0  0.77599  0.02713  0.04085  1.0000
  C   C1021     1.0  0.75866  0.12288  0.76610  1.0000
  C   C1022     1.0  0.62315  0.25570  0.92271  1.0000
  C   C1023     1.0  0.54934  0.09604  0.01783  1.0000
  C   C1024     1.0  0.57326  0.04654  0.76012  1.0000
  H   H1244     1.0  0.87032  0.22063  0.97152  1.0000
  H   H1245     1.0  0.74410  0.09049  0.83078  1.0000
  C   C1025     1.0  0.93032  0.13163  0.99596  1.0000
  C   C1026     1.0  0.59179  0.15227  0.82558  1.0000
  S   S275      1.0  0.71619  0.05675  0.94221  1.0000
  S   S276      1.0  0.46553  0.09623  0.91578  1.0000
  C   C1027     1.0  0.77187  0.15499  0.92423  1.0000
  H   H1246     1.0  0.56839  0.05023  0.06528  1.0000
  S   S277      1.0  0.67512  0.15353  0.64124  1.0000
  H   H1247     1.0  0.83229  0.22691  0.97032  1.0000
  C   C1028     1.0  0.77444  0.06010  0.98913  1.0000
  Fe  Fe134     1.0  0.48719  0.11654  0.96050  1.0000
  C   C1029     1.0  0.51480  0.21382  0.03449  1.0000
  C   C1030     1.0  0.55270  0.25314  0.96349  1.0000
  H   H1248     1.0  0.60895  0.21531  0.80619  1.0000
  N   N70       1.0  0.89558  0.05894  0.04023  1.0000
  C   C1031     1.0  0.57370  0.10891  0.06953  1.0000
  H   H1249     1.0  0.62707  0.14174  0.62158  1.0000
  C   C1032     1.0  0.46566  0.16000  0.92152  1.0000
  H   H1250     1.0  0.94933  0.12845  0.84420  1.0000
  C   C1033     1.0  0.88076  0.22870  0.78873  1.0000
  S   S278      1.0  0.64893  0.04232  0.01019  1.0000
  H   H1251     1.0  0.74325  0.17462  0.70274  1.0000
  S   S279      1.0  0.66993  0.01984  0.87632  1.0000
  H   H1252     1.0  0.54890  0.24687  0.92940  1.0000
  C   C1034     1.0  0.53853  0.06072  0.80830  1.0000
  C   C1035     1.0  0.88091  0.08577  0.71030  1.0000
  H   H1253     1.0  0.72623  0.15681  0.93035  1.0000
  Fe  Fe135     1.0  0.68715  0.19206  0.88289  1.0000
  C   C1036     1.0  0.81861  0.24695  0.66966  1.0000
  H   H1254     1.0  0.74986  0.11484  0.89655  1.0000
  C   C1037     1.0  0.82726  0.20926  0.99619  1.0000
  H   H1255     1.0  0.57968  0.01633  0.64123  1.0000
  C   C1038     1.0  0.76817  0.14908  0.75052  1.0000
  N   N71       1.0  0.66757  0.10452  0.86943  1.0000
  Fe  Fe136     1.0  0.48874  0.06996  0.00627  1.0000
  H   H1256     1.0  0.92427  0.07948  0.09811  1.0000
  S   S280      1.0  0.60234  0.03755  0.80406  1.0000
  Fe  Fe137     1.0  0.68787  0.06825  0.01005  1.0000
  C   C1039     1.0  0.49162  0.12930  0.66164  1.0000
  H   H1257     1.0  0.51225  0.13696  0.62384  1.0000
  H   H1258     1.0  0.84660  0.13835  0.05000  1.0000
  Fe  Fe138     1.0  0.85501  0.02179  0.67005  1.0000
  H   H1259     1.0  0.77718  0.18351  0.77500  1.0000
  C   C1040     1.0  0.75384  0.23843  0.00712  1.0000
  H   H1260     1.0  0.52513  0.14179  0.03296  1.0000
  H   H1261     1.0  0.77235  0.11509  0.08480  1.0000
  H   H1262     1.0  0.60968  0.08215  0.06645  1.0000
  H   H1263     1.0  0.55875  0.12804  0.66070  1.0000
  C   C1041     1.0  0.72155  0.02183  0.81810  1.0000
  C   C1042     1.0  0.55486  0.05529  0.76015  1.0000
  S   S281      1.0  0.82850  0.25180  0.87536  1.0000
  S   S282      1.0  0.69471  0.10814  0.00824  1.0000
  H   H1264     1.0  0.58591  0.04251  0.72277  1.0000
  C   C1043     1.0  0.70201  0.11915  0.05975  1.0000
  H   H1265     1.0  0.87281  0.09071  0.75096  1.0000
  H   H1266     1.0  0.91508  0.07226  0.62720  1.0000
  H   H1267     1.0  0.52828  0.20779  0.04324  1.0000
  C   C1044     1.0  0.67618  0.17723  0.72398  1.0000
  H   H1268     1.0  0.93269  0.23554  0.71563  1.0000
  C   C1045     1.0  0.69932  0.14061  0.07388  1.0000
  S   S283      1.0  0.68014  0.17969  0.96882  1.0000
  C   C1046     1.0  0.78253  0.05179  0.86040  1.0000
  C   C1047     1.0  0.74698  0.17436  0.90607  1.0000
  H   H1269     1.0  0.58842  0.13052  0.98723  1.0000
  H   H1270     1.0  0.54897  0.09512  0.68349  1.0000
  Fe  Fe139     1.0  0.49534  0.07965  0.89044  1.0000
  S   S284      1.0  0.63510  0.20271  0.01642  1.0000
  C   C1048     1.0  0.56409  0.17235  0.82191  1.0000
  S   S285      1.0  0.51729  0.07350  0.80644  1.0000
  H   H1271     1.0  0.57892  0.11894  0.68190  1.0000
  N   N72       1.0  0.52642  0.24203  0.01949  1.0000
  H   H1272     1.0  0.60937  0.09572  0.79505  1.0000
  H   H1273     1.0  0.61036  0.23571  0.00566  1.0000
  C   C1049     1.0  0.77105  0.16349  0.78794  1.0000
  H   H1274     1.0  0.79635  0.20593  0.82003  1.0000
  C   C1050     1.0  0.90886  0.07314  0.75921  1.0000
  C   C1051     1.0  0.72464  0.17551  0.70869  1.0000
  H   H1275     1.0  0.51367  0.20562  0.99984  1.0000
  S   S286      1.0  0.69192  0.23085  0.88995  1.0000
  C   C1052     1.0  0.71092  0.10690  0.08611  1.0000
  H   H1276     1.0  0.93197  0.14659  0.96842  1.0000
  H   H1277     1.0  0.78645  0.24350  0.84696  1.0000
  C   C1053     1.0  0.79290  0.16722  0.06169  1.0000
  H   H1278     1.0  0.85243  0.03250  0.06772  1.0000
  C   C1054     1.0  0.76726  0.11751  0.63063  1.0000
  H   H1279     1.0  0.77319  0.15823  0.70937  1.0000
  C   C1055     1.0  0.45358  0.09598  0.74845  1.0000
  H   H1280     1.0  0.55743  0.18727  0.83355  1.0000
  Fe  Fe140     1.0  0.63415  0.16565  0.00147  1.0000
  H   H1281     1.0  0.85883  0.22567  0.80665  1.0000
  H   H1282     1.0  0.95067  0.12410  0.08903  1.0000
  C   C1056     1.0  0.56744  0.11445  0.65867  1.0000
  C   C1057     1.0  0.45556  0.25902  0.64275  1.0000
  H   H1283     1.0  0.79316  0.24213  0.99557  1.0000
  H   H1284     1.0  0.46665  0.23842  0.95242  1.0000
  H   H1285     1.0  0.57013  0.19146  0.90188  1.0000
  H   H1286     1.0  0.49850  0.22542  0.96187  1.0000
  C   C1058     1.0  0.81407  0.16284  0.06345  1.0000
  C   C1059     1.0  0.68611  0.18491  0.76083  1.0000
  H   H1287     1.0  0.57203  0.04466  0.97429  1.0000
  S   S287      1.0  0.91529  0.15410  0.88593  1.0000
  H   H1288     1.0  0.77106  0.15296  0.08617  1.0000
  S   S288      1.0  0.85755  0.15738  0.91667  1.0000
  C   C1060     1.0  0.61216  0.19826  0.79889  1.0000
  S   S289      1.0  0.85075  0.10021  0.60788  1.0000
  H   H1289     1.0  0.84883  0.22797  0.73499  1.0000
  C   C1061     1.0  0.86367  0.22370  0.70175  1.0000
  C   C1062     1.0  0.89129  0.23189  0.69209  1.0000
  C   C1063     1.0  0.80044  0.07815  0.98109  1.0000
  N   N73       1.0  0.77041  0.16795  0.87898  1.0000
  C   C1064     1.0  0.50621  0.24932  0.01609  1.0000
  S   S290      1.0  0.67963  0.04046  0.08146  1.0000
  C   C1065     1.0  0.66369  0.11943  0.83202  1.0000
  H   H1290     1.0  0.88780  0.23704  0.81772  1.0000
  H   H1291     1.0  0.72542  0.16121  0.63781  1.0000
  H   H1292     1.0  0.90124  0.06541  0.95634  1.0000
  C   C1066     1.0  0.57522  0.17534  0.89519  1.0000
  H   H1293     1.0  0.77678  0.16767  0.95030  1.0000
  H   H1294     1.0  0.46542  0.17494  0.03913  1.0000
  Fe  Fe141     1.0  0.64518  0.21269  0.92684  1.0000
  C   C1067     1.0  0.55775  0.04708  0.85756  1.0000
  H   H1295     1.0  0.80610  0.25861  0.74621  1.0000
  H   H1296     1.0  0.61147  0.12280  0.72112  1.0000
  C   C1068     1.0  0.53945  0.05601  0.85747  1.0000
  C   C1069     1.0  0.57205  0.11355  0.02148  1.0000
  H   H1297     1.0  0.87967  0.20948  0.79129  1.0000
  S   S291      1.0  0.64014  0.08182  0.64923  1.0000
  H   H1298     1.0  0.47632  0.15335  0.88670  1.0000
  H   H1299     1.0  0.54472  0.15350  0.84566  1.0000
  Fe  Fe142     1.0  0.67658  0.11632  0.64125  1.0000
  Fe  Fe143     1.0  0.83830  0.05878  0.63429  1.0000
  H   H1300     1.0  0.74471  0.23716  0.05173  1.0000
  H   H1301     1.0  0.91629  0.25537  0.96095  1.0000
  C   C1070     1.0  0.60451  0.11131  0.80362  1.0000
  H   H1302     1.0  0.91488  0.13203  0.70720  1.0000
  H   H1303     1.0  0.76210  0.02294  0.77223  1.0000
  C   C1071     1.0  0.57536  0.04323  0.80815  1.0000
  Fe  Fe144     1.0  0.67630  0.02887  0.94773  1.0000
  S   S292      1.0  0.84565  0.09311  0.99696  1.0000
  C   C1072     1.0  0.53379  0.25110  0.06211  1.0000
  C   C1073     1.0  0.81751  0.11446  0.75917  1.0000
  C   C1074     1.0  0.59142  0.13654  0.86677  1.0000
  H   H1304     1.0  0.56804  0.24724  0.96357  1.0000
  Fe  Fe145     1.0  0.70466  0.08515  0.65355  1.0000
  H   H1305     1.0  0.88680  0.14771  0.61308  1.0000
  H   H1306     1.0  0.65721  0.13344  0.85140  1.0000
  C   C1075     1.0  0.58836  0.06095  0.02606  1.0000
  C   C1076     1.0  0.92189  0.12678  0.66672  1.0000
  C   C1077     1.0  0.94328  0.13807  0.02771  1.0000
  C   C1078     1.0  0.59925  0.14677  0.77254  1.0000
  H   H1307     1.0  0.82001  0.08558  0.84145  1.0000
  H   H1308     1.0  0.71053  0.13391  0.83431  1.0000
  Fe  Fe146     1.0  0.86964  0.12662  0.92146  1.0000
  C   C1079     1.0  0.76808  0.02509  0.87760  1.0000
  S   S293      1.0  0.60273  0.12988  0.07331  1.0000
  C   C1080     1.0  0.83947  0.13771  0.75094  1.0000
  H   H1309     1.0  0.90412  0.10203  0.97664  1.0000
  S   S294      1.0  0.87552  0.12027  0.83817  1.0000
  H   H1310     1.0  0.91378  0.13338  0.64297  1.0000
  S   S295      1.0  0.50025  0.05157  0.05734  1.0000
  S   S296      1.0  0.92411  0.22255  0.88557  1.0000
  C   C1081     1.0  0.86752  0.13835  0.65402  1.0000
  Fe  Fe147     1.0  0.90379  0.18445  0.87303  1.0000
  H   H1311     1.0  0.78833  0.14868  0.90606  1.0000
  H   H1312     1.0  0.73860  0.23884  0.90254  1.0000
  C   C1082     1.0  0.79253  0.11683  0.07881  1.0000
  H   H1313     1.0  0.57157  0.17488  0.77617  1.0000
  H   H1314     1.0  0.69739  0.09689  0.80066  1.0000
  C   C1083     1.0  0.84579  0.11474  0.66272  1.0000
  H   H1315     1.0  0.90264  0.17844  0.97442  1.0000
  H   H1316     1.0  0.55552  0.15755  0.92519  1.0000
  H   H1317     1.0  0.80403  0.08436  0.72222  1.0000
  H   H1318     1.0  0.74902  0.18570  0.93622  1.0000
  C   C1084     1.0  0.79265  0.24246  0.91786  1.0000
  S   S297      1.0  0.82220  0.03382  0.71877  1.0000
  C   C1085     1.0  0.75251  0.03672  0.60522  1.0000
  H   H1319     1.0  0.81135  0.03957  0.05340  1.0000
  S   S298      1.0  0.94355  0.02045  0.97527  1.0000
  C   C1086     1.0  0.52831  0.07385  0.06218  1.0000
  C   C1087     1.0  0.78093  0.24068  0.97566  1.0000
  C   C1088     1.0  0.92053  0.19398  0.97242  1.0000
  C   C1089     1.0  0.92507  0.09117  0.70498  1.0000
  C   C1090     1.0  0.54866  0.15637  0.07432  1.0000
  C   C1091     1.0  0.92513  0.09319  0.06923  1.0000
  N   N74       1.0  0.91220  0.09889  0.67690  1.0000
  C   C1092     1.0  0.92078  0.09288  0.62174  1.0000
  H   H1320     1.0  0.65405  0.10728  0.98056  1.0000
  H   H1321     1.0  0.75152  0.13819  0.95476  1.0000
  C   C1093     1.0  0.63727  0.09334  0.97649  1.0000
  Fe  Fe148     1.0  0.68160  0.21733  0.97847  1.0000
  C   C1094     1.0  0.81369  0.07080  0.00461  1.0000
  H   H1322     1.0  0.93805  0.02133  0.60402  1.0000
  C   C1095     1.0  0.92946  0.19017  0.00964  1.0000
  C   C1096     1.0  0.76247  0.03450  0.01823  1.0000
  Fe  Fe149     1.0  0.70474  0.02656  0.01399  1.0000
  C   C1097     1.0  0.80932  0.06486  0.85300  1.0000
  Fe  Fe150     1.0  0.64063  0.06201  0.71971  1.0000
  C   C1098     1.0  0.49379  0.23898  0.98380  1.0000
  H   H1323     1.0  0.91842  0.17175  0.04008  1.0000
  C   C1099     1.0  0.91193  0.08595  0.03678  1.0000
  C   C1100     1.0  0.90578  0.05521  0.98265  1.0000
  H   H1324     1.0  0.48473  0.16054  0.64167  1.0000
  H   H1325     1.0  0.88614  0.06367  0.78260  1.0000
  H   H1326     1.0  0.71399  0.09089  0.07401  1.0000
  H   H1327     1.0  0.80653  0.11950  0.03316  1.0000
  C   C1101     1.0  0.79938  0.19009  0.02884  1.0000
  H   H1328     1.0  0.55932  0.04455  0.89483  1.0000
  C   C1102     1.0  0.83110  0.13641  0.09416  1.0000
  H   H1329     1.0  0.56534  0.17309  0.03891  1.0000
  C   C1103     1.0  0.84226  0.18305  0.03065  1.0000
  H   H1330     1.0  0.73024  0.04151  0.81917  1.0000
  S   S299      1.0  0.48249  0.03260  0.62389  1.0000
  H   H1331     1.0  0.77258  0.06237  0.85386  1.0000
  H   H1332     1.0  0.48074  0.24904  0.66653  1.0000
  S   S300      1.0  0.46695  0.04576  0.96633  1.0000
  C   C1104     1.0  0.84032  0.25260  0.61416  1.0000
  H   H1333     1.0  0.88778  0.22834  0.05826  1.0000
  C   C1105     1.0  0.86549  0.05239  0.06605  1.0000
  C   C1106     1.0  0.47611  0.14268  0.67183  1.0000
  C   C1107     1.0  0.70911  0.01742  0.69406  1.0000
  C   C1108     1.0  0.76012  0.13652  0.62333  1.0000
  H   H1334     1.0  0.49340  0.20435  0.07315  1.0000
  H   H1335     1.0  0.91968  0.04475  0.05831  1.0000
  C   C1109     1.0  0.94059  0.11892  0.06435  1.0000
  C   C1110     1.0  0.45999  0.17273  0.00667  1.0000
  C   C1111     1.0  0.87884  0.25710  0.09460  1.0000
  C   C1112     1.0  0.52613  0.13879  0.07082  1.0000
  S   S301      1.0  0.88061  0.01930  0.70720  1.0000
  H   H1336     1.0  0.81937  0.01490  0.88138  1.0000
  H   H1337     1.0  0.54814  0.24453  0.06525  1.0000
  H   H1338     1.0  0.57843  0.07653  0.61888  1.0000
  C   C1113     1.0  0.89106  0.24779  0.04984  1.0000
  C   C1114     1.0  0.79519  0.12402  0.61402  1.0000
  N   N75       1.0  0.72695  0.01207  0.64259  1.0000
  S   S302      1.0  0.48150  0.01658  0.74104  1.0000
  C   C1115     1.0  0.46126  0.24205  0.66608  1.0000
  Fe  Fe151     1.0  0.87306  0.20027  0.46945  1.0000
  C   C1116     1.0  0.93714  0.12170  0.26056  1.0000
  H   H1339     1.0  0.73794  0.16558  0.31501  1.0000
  H   H1340     1.0  0.86608  0.24503  0.13786  1.0000
  H   H1341     1.0  0.57473  0.03836  0.33328  1.0000
  C   C1117     1.0  0.55200  0.22992  0.16862  1.0000
  H   H1342     1.0  0.82537  0.18848  0.24805  1.0000
  H   H1343     1.0  0.47114  0.19900  0.23277  1.0000
  C   C1118     1.0  0.88301  0.18578  0.24346  1.0000
  C   C1119     1.0  0.55257  0.08675  0.11411  1.0000
  C   C1120     1.0  0.94066  0.14566  0.44883  1.0000
  H   H1344     1.0  0.59708  0.24374  0.28678  1.0000
  S   S303      1.0  0.83224  0.05325  0.24155  1.0000
  H   H1345     1.0  0.92133  0.14225  0.16807  1.0000
  H   H1346     1.0  0.52157  0.14615  0.29281  1.0000
  C   C1121     1.0  0.50919  0.19755  0.17648  1.0000
  H   H1347     1.0  0.56949  0.23161  0.26980  1.0000
  H   H1348     1.0  0.78739  0.09796  0.10247  1.0000
  C   C1122     1.0  0.79055  0.20851  0.41567  1.0000
  C   C1123     1.0  0.54956  0.15274  0.12380  1.0000
  H   H1349     1.0  0.65104  0.08110  0.27150  1.0000
  C   C1124     1.0  0.61418  0.11698  0.18320  1.0000
  C   C1125     1.0  0.45454  0.03064  0.22627  1.0000
  H   H1350     1.0  0.57377  0.15188  0.18718  1.0000
  Fe  Fe152     1.0  0.82951  0.08502  0.20157  1.0000
  H   H1351     1.0  0.70579  0.13060  0.30628  1.0000
  H   H1352     1.0  0.60992  0.19968  0.15763  1.0000
  N   N76       1.0  0.84412  0.09038  0.44052  1.0000
  H   H1353     1.0  0.48971  0.14615  0.43215  1.0000
  H   H1354     1.0  0.51289  0.22704  0.40817  1.0000
  H   H1355     1.0  0.52102  0.21919  0.34206  1.0000
  H   H1356     1.0  0.84110  0.01171  0.23446  1.0000
  N   N77       1.0  0.55595  0.23414  0.35586  1.0000
  H   H1357     1.0  0.86802  0.15537  0.31432  1.0000
  H   H1358     1.0  0.61436  0.13348  0.16395  1.0000
  H   H1359     1.0  0.57816  0.02606  0.27396  1.0000
  H   H1360     1.0  0.64079  0.19219  0.45264  1.0000
  H   H1361     1.0  0.58923  0.08112  0.31249  1.0000
  C   C1126     1.0  0.60934  0.14127  0.56765  1.0000
  H   H1362     1.0  0.61108  0.09791  0.55572  1.0000
  H   H1363     1.0  0.57499  0.05320  0.15246  1.0000
  H   H1364     1.0  0.53326  0.25194  0.34339  1.0000
  H   H1365     1.0  0.63974  0.11246  0.10363  1.0000
  C   C1127     1.0  0.91491  0.02747  0.21120  1.0000
  C   C1128     1.0  0.63498  0.04460  0.22147  1.0000
  H   H1366     1.0  0.62625  0.03631  0.19481  1.0000
  S   S304      1.0  0.82545  0.25927  0.23163  1.0000
  S   S305      1.0  0.86591  0.12424  0.15309  1.0000
  Fe  Fe153     1.0  0.84115  0.01719  0.57591  1.0000
  H   H1367     1.0  0.77541  0.17674  0.59125  1.0000
  Fe  Fe154     1.0  0.49861  0.02799  0.33179  1.0000
  Fe  Fe155     1.0  0.80656  0.02843  0.20772  1.0000
  C   C1129     1.0  0.81158  0.11025  0.48295  1.0000
  Fe  Fe156     1.0  0.69185  0.16250  0.24360  1.0000
  H   H1368     1.0  0.85683  0.05422  0.10989  1.0000
  C   C1130     1.0  0.59586  0.09657  0.59953  1.0000
  H   H1369     1.0  0.88491  0.17770  0.12083  1.0000
  H   H1370     1.0  0.81514  0.11199  0.51777  1.0000
  N   N78       1.0  0.52841  0.12845  0.22452  1.0000
  C   C1131     1.0  0.47207  0.10955  0.41758  1.0000
  H   H1371     1.0  0.70246  0.16592  0.12665  1.0000
  C   C1132     1.0  0.54996  0.20867  0.38334  1.0000
  C   C1133     1.0  0.69978  0.12019  0.40911  1.0000
  C   C1134     1.0  0.72755  0.03124  0.42421  1.0000
  H   H1372     1.0  0.91775  0.08219  0.30619  1.0000
  H   H1373     1.0  0.48763  0.09692  0.20003  1.0000
  C   C1135     1.0  0.56348  0.06480  0.43565  1.0000
  C   C1136     1.0  0.74314  0.05107  0.48524  1.0000
  S   S306      1.0  0.89923  0.23487  0.39573  1.0000
  H   H1374     1.0  0.63572  0.02902  0.24372  1.0000
  S   S307      1.0  0.89380  0.21124  0.27143  1.0000
  C   C1137     1.0  0.57977  0.03952  0.46827  1.0000
  H   H1375     1.0  0.88631  0.06647  0.26717  1.0000
  S   S308      1.0  0.78995  0.07901  0.27796  1.0000
  C   C1138     1.0  0.60037  0.08720  0.26683  1.0000
  S   S309      1.0  0.61236  0.17197  0.24228  1.0000
  C   C1139     1.0  0.71662  0.11581  0.12739  1.0000
  H   H1376     1.0  0.57761  0.02105  0.48261  1.0000
  H   H1377     1.0  0.85789  0.11323  0.48991  1.0000
  H   H1378     1.0  0.75891  0.05812  0.49717  1.0000
  C   C1140     1.0  0.62982  0.08478  0.17390  1.0000
  H   H1379     1.0  0.90405  0.03873  0.21584  1.0000
  H   H1380     1.0  0.70878  0.12291  0.43716  1.0000
  S   S310      1.0  0.70141  0.23953  0.31694  1.0000
  S   S311      1.0  0.68543  0.19548  0.22272  1.0000
  C   C1141     1.0  0.61593  0.07541  0.23377  1.0000
  S   S312      1.0  0.67029  0.05229  0.52531  1.0000
  H   H1381     1.0  0.88804  0.10042  0.38806  1.0000
  S   S313      1.0  0.92367  0.14565  0.41124  1.0000
  H   H1382     1.0  0.85165  0.24724  0.41063  1.0000
  C   C1142     1.0  0.52957  0.23295  0.36290  1.0000
  H   H1383     1.0  0.66704  0.18445  0.57049  1.0000
  S   S314      1.0  0.87303  0.17265  0.41694  1.0000
  H   H1384     1.0  0.93517  0.04648  0.25547  1.0000
  C   C1143     1.0  0.70165  0.02479  0.26738  1.0000
  C   C1144     1.0  0.77091  0.19188  0.47144  1.0000
  C   C1145     1.0  0.58860  0.03296  0.29864  1.0000
  C   C1146     1.0  0.71264  0.08807  0.37727  1.0000
  C   C1147     1.0  0.47280  0.13267  0.42777  1.0000
  S   S315      1.0  0.63377  0.17559  0.35769  1.0000
  H   H1385     1.0  0.45198  0.15614  0.44096  1.0000
  C   C1148     1.0  0.63824  0.22251  0.23825  1.0000
  H   H1386     1.0  0.57465  0.23881  0.15029  1.0000
  C   C1149     1.0  0.56896  0.03420  0.17378  1.0000
  H   H1387     1.0  0.60056  0.14974  0.50158  1.0000
  S   S316      1.0  0.51767  0.03113  0.24018  1.0000
  H   H1388     1.0  0.72334  0.08127  0.34102  1.0000
  C   C1150     1.0  0.55404  0.16910  0.37940  1.0000
  H   H1389     1.0  0.56216  0.11862  0.19115  1.0000
  C   C1151     1.0  0.71362  0.13711  0.14194  1.0000
  Fe  Fe157     1.0  0.93623  0.23515  0.39680  1.0000
  S   S317      1.0  0.52680  0.05559  0.35607  1.0000
  H   H1390     1.0  0.73562  0.22062  0.23824  1.0000
  H   H1391     1.0  0.79586  0.15028  0.17401  1.0000
  C   C1152     1.0  0.86476  0.14073  0.24604  1.0000
  H   H1392     1.0  0.83287  0.05974  0.40256  1.0000
  C   C1153     1.0  0.52251  0.14801  0.25140  1.0000
  C   C1154     1.0  0.71905  0.05438  0.51217  1.0000
  H   H1393     1.0  0.58587  0.25393  0.38125  1.0000
  H   H1394     1.0  0.53392  0.14161  0.45882  1.0000
  S   S318      1.0  0.94157  0.21112  0.33605  1.0000
  H   H1395     1.0  0.77388  0.12450  0.43622  1.0000
  N   N79       1.0  0.61744  0.05459  0.26184  1.0000
  C   C1155     1.0  0.93240  0.03185  0.23355  1.0000
  H   H1396     1.0  0.57193  0.19846  0.30640  1.0000
  H   H1397     1.0  0.78701  0.19906  0.26645  1.0000
  C   C1156     1.0  0.78196  0.17936  0.28047  1.0000
  Fe  Fe158     1.0  0.76713  0.05268  0.24200  1.0000
  Fe  Fe159     1.0  0.50872  0.02226  0.42821  1.0000
  Fe  Fe160     1.0  0.68040  0.20137  0.30585  1.0000
  C   C1157     1.0  0.63026  0.23947  0.15393  1.0000
  H   H1398     1.0  0.49476  0.23592  0.26007  1.0000
  C   C1158     1.0  0.70500  0.11237  0.32042  1.0000
  C   C1159     1.0  0.60429  0.08578  0.44542  1.0000
  C   C1160     1.0  0.52786  0.17485  0.47015  1.0000
  C   C1161     1.0  0.56099  0.04096  0.45312  1.0000
  H   H1399     1.0  0.81145  0.05123  0.47773  1.0000
  H   H1400     1.0  0.79587  0.10594  0.36142  1.0000
  C   C1162     1.0  0.82919  0.19974  0.39795  1.0000
  H   H1401     1.0  0.94380  0.10401  0.59188  1.0000
  H   H1402     1.0  0.48521  0.09969  0.28265  1.0000
  C   C1163     1.0  0.52996  0.06916  0.11028  1.0000
  H   H1403     1.0  0.87136  0.10271  0.34945  1.0000
  H   H1404     1.0  0.50936  0.10064  0.30357  1.0000
  H   H1405     1.0  0.68991  0.07349  0.40089  1.0000
  C   C1164     1.0  0.55973  0.19289  0.35208  1.0000
  N   N80       1.0  0.58522  0.11522  0.59925  1.0000
  C   C1165     1.0  0.77915  0.21354  0.38368  1.0000
  S   S319      1.0  0.63161  0.11384  0.43924  1.0000
  H   H1406     1.0  0.64191  0.07694  0.14492  1.0000
  S   S320      1.0  0.72244  0.14903  0.19096  1.0000
  Fe  Fe161     1.0  0.79061  0.04520  0.31523  1.0000
  H   H1407     1.0  0.46883  0.11631  0.59177  1.0000
  H   H1408     1.0  0.73056  0.02213  0.39060  1.0000
  H   H1409     1.0  0.83575  0.23987  0.58950  1.0000
  C   C1166     1.0  0.78658  0.13422  0.15843  1.0000
  C   C1167     1.0  0.53848  0.20894  0.15287  1.0000
  H   H1410     1.0  0.89604  0.21153  0.16696  1.0000
  H   H1411     1.0  0.50199  0.14630  0.25905  1.0000
  S   S321      1.0  0.72986  0.05536  0.24742  1.0000
  H   H1412     1.0  0.78390  0.12719  0.51396  1.0000
  H   H1413     1.0  0.63192  0.04912  0.31813  1.0000
  H   H1414     1.0  0.57842  0.10598  0.53076  1.0000
  H   H1415     1.0  0.88766  0.04060  0.12013  1.0000
  C   C1168     1.0  0.61414  0.15646  0.51886  1.0000
  C   C1169     1.0  0.94427  0.18266  0.20851  1.0000
  H   H1416     1.0  0.93072  0.17242  0.49235  1.0000
  C   C1170     1.0  0.53839  0.16019  0.43823  1.0000
  H   H1417     1.0  0.61649  0.06978  0.33227  1.0000
  C   C1171     1.0  0.88701  0.19177  0.18955  1.0000
  H   H1418     1.0  0.71623  0.06366  0.54551  1.0000
  H   H1419     1.0  0.90743  0.25922  0.55380  1.0000
  H   H1420     1.0  0.56172  0.15738  0.35469  1.0000
  S   S322      1.0  0.49250  0.17208  0.15511  1.0000
  H   H1421     1.0  0.74679  0.05020  0.59048  1.0000
  H   H1422     1.0  0.82828  0.08164  0.53051  1.0000
  C   C1172     1.0  0.65220  0.17664  0.55612  1.0000
  H   H1423     1.0  0.68239  0.09762  0.34210  1.0000
  C   C1173     1.0  0.80360  0.17346  0.27016  1.0000
  H   H1424     1.0  0.86208  0.24347  0.31747  1.0000
  H   H1425     1.0  0.46368  0.04913  0.23292  1.0000
  H   H1426     1.0  0.58869  0.01652  0.31962  1.0000
  S   S323      1.0  0.47378  0.03012  0.48597  1.0000
  C   C1174     1.0  0.58548  0.08723  0.43056  1.0000
  H   H1427     1.0  0.54846  0.06605  0.42611  1.0000
  H   H1428     1.0  0.78415  0.22798  0.20557  1.0000
  H   H1429     1.0  0.76630  0.13291  0.16576  1.0000
  H   H1430     1.0  0.67750  0.10464  0.43479  1.0000
  H   H1431     1.0  0.88063  0.24067  0.53884  1.0000
  C   C1175     1.0  0.62878  0.10526  0.14933  1.0000
  S   S324      1.0  0.46284  0.03624  0.38075  1.0000
  H   H1432     1.0  0.85232  0.20781  0.37920  1.0000
  H   H1433     1.0  0.71698  0.10757  0.28159  1.0000
  C   C1176     1.0  0.79723  0.14820  0.28804  1.0000
  C   C1177     1.0  0.70330  0.03434  0.45140  1.0000
  C   C1178     1.0  0.77531  0.23768  0.23495  1.0000
  H   H1434     1.0  0.65720  0.05988  0.19342  1.0000
  H   H1435     1.0  0.64115  0.21605  0.27123  1.0000
  H   H1436     1.0  0.58754  0.10563  0.41610  1.0000
  H   H1437     1.0  0.74186  0.20673  0.38074  1.0000
  C   C1179     1.0  0.70474  0.14939  0.11559  1.0000
  C   C1180     1.0  0.74748  0.03961  0.44117  1.0000
  H   H1438     1.0  0.55123  0.25049  0.42662  1.0000
  C   C1181     1.0  0.50704  0.22841  0.23038  1.0000
  H   H1439     1.0  0.81957  0.18897  0.44243  1.0000
  C   C1182     1.0  0.60121  0.06194  0.46522  1.0000
  H   H1440     1.0  0.62710  0.24590  0.12129  1.0000
  C   C1183     1.0  0.92092  0.12983  0.19895  1.0000
  C   C1184     1.0  0.54209  0.01965  0.22120  1.0000
  Fe  Fe162     1.0  0.48987  0.06154  0.41131  1.0000
  H   H1441     1.0  0.68804  0.02797  0.43792  1.0000
  S   S325      1.0  0.87295  0.04877  0.58684  1.0000
  H   H1442     1.0  0.83582  0.25256  0.32720  1.0000
  H   H1443     1.0  0.72049  0.08770  0.40673  1.0000
  C   C1185     1.0  0.58792  0.02426  0.15423  1.0000
  C   C1186     1.0  0.50528  0.11362  0.16615  1.0000
  C   C1187     1.0  0.74657  0.13409  0.32786  1.0000
  H   H1444     1.0  0.86327  0.08593  0.48822  1.0000
  Fe  Fe163     1.0  0.90161  0.20741  0.34292  1.0000
  S   S326      1.0  0.49759  0.10168  0.41586  1.0000
  H   H1445     1.0  0.81824  0.22652  0.47252  1.0000
  H   H1446     1.0  0.69842  0.13771  0.39836  1.0000
  C   C1188     1.0  0.79365  0.11924  0.48100  1.0000
  C   C1189     1.0  0.53626  0.23986  0.20675  1.0000
  C   C1190     1.0  0.73134  0.18577  0.46054  1.0000
  C   C1191     1.0  0.50717  0.10286  0.26589  1.0000
  C   C1192     1.0  0.64375  0.25722  0.17588  1.0000
  H   H1447     1.0  0.82705  0.09014  0.36349  1.0000
  C   C1193     1.0  0.80052  0.10752  0.39496  1.0000
  C   C1194     1.0  0.79140  0.25461  0.25385  1.0000
  Fe  Fe164     1.0  0.63912  0.16823  0.27497  1.0000
  H   H1448     1.0  0.72724  0.16820  0.53617  1.0000
  H   H1449     1.0  0.51529  0.16769  0.51593  1.0000
  C   C1195     1.0  0.75389  0.16003  0.30860  1.0000
  C   C1196     1.0  0.87017  0.14712  0.19076  1.0000
  C   C1197     1.0  0.88085  0.17259  0.16320  1.0000
  H   H1450     1.0  0.56711  0.16727  0.12480  1.0000
  C   C1198     1.0  0.82450  0.09953  0.44068  1.0000
  H   H1451     1.0  0.76566  0.10969  0.32969  1.0000
  H   H1452     1.0  0.70874  0.17723  0.47793  1.0000
  C   C1199     1.0  0.76919  0.12877  0.31667  1.0000
  C   C1200     1.0  0.57724  0.24342  0.29437  1.0000
  Fe  Fe165     1.0  0.91271  0.17778  0.41403  1.0000
  C   C1201     1.0  0.90101  0.08664  0.25413  1.0000
  H   H1453     1.0  0.73572  0.24939  0.14887  1.0000
  C   C1202     1.0  0.50460  0.11740  0.11649  1.0000
  C   C1203     1.0  0.94668  0.01763  0.22710  1.0000
  H   H1454     1.0  0.91442  0.20701  0.58036  1.0000
  C   C1204     1.0  0.87207  0.10550  0.38829  1.0000
  S   S327      1.0  0.83490  0.19989  0.53935  1.0000
  H   H1455     1.0  0.47299  0.11397  0.52398  1.0000
  S   S328      1.0  0.69106  0.17097  0.32205  1.0000
  H   H1456     1.0  0.48712  0.10374  0.11361  1.0000
  C   C1205     1.0  0.65633  0.19096  0.50845  1.0000
  C   C1206     1.0  0.53327  0.19862  0.44323  1.0000
  C   C1207     1.0  0.49354  0.20724  0.21540  1.0000
  H   H1457     1.0  0.88885  0.09705  0.19758  1.0000
  S   S329      1.0  0.70931  0.10725  0.57789  1.0000
  H   H1458     1.0  0.53905  0.16775  0.22415  1.0000
  H   H1459     1.0  0.78097  0.11608  0.18581  1.0000
  C   C1208     1.0  0.59959  0.10767  0.24181  1.0000
  H   H1460     1.0  0.55681  0.12963  0.25312  1.0000
  C   C1209     1.0  0.63734  0.18092  0.48995  1.0000
  C   C1210     1.0  0.84838  0.09289  0.48943  1.0000
  H   H1461     1.0  0.82309  0.18592  0.37477  1.0000
  S   S330      1.0  0.77846  0.03691  0.40561  1.0000
  H   H1462     1.0  0.79232  0.22633  0.34153  1.0000
  C   C1211     1.0  0.56704  0.25357  0.38210  1.0000
  H   H1463     1.0  0.70902  0.24903  0.13545  1.0000
  C   C1212     1.0  0.87140  0.16014  0.27236  1.0000
  C   C1213     1.0  0.74180  0.18064  0.49326  1.0000
  S   S331      1.0  0.90968  0.20214  0.47440  1.0000
  C   C1214     1.0  0.62035  0.21327  0.17475  1.0000
  H   H1464     1.0  0.67432  0.20987  0.48557  1.0000
  H   H1465     1.0  0.88011  0.12631  0.38466  1.0000
  C   C1215     1.0  0.83907  0.23567  0.33334  1.0000
  C   C1216     1.0  0.64752  0.24866  0.21846  1.0000
  H   H1466     1.0  0.83485  0.22416  0.30495  1.0000
  H   H1467     1.0  0.54904  0.08670  0.59916  1.0000
  C   C1217     1.0  0.55643  0.13232  0.21329  1.0000
  S   S332      1.0  0.80677  0.06102  0.16188  1.0000
  H   H1468     1.0  0.51395  0.05186  0.14441  1.0000
  C   C1218     1.0  0.83336  0.06300  0.44147  1.0000
  H   H1469     1.0  0.50974  0.08731  0.24664  1.0000
  C   C1219     1.0  0.74998  0.20228  0.40592  1.0000
  H   H1470     1.0  0.85654  0.12104  0.26742  1.0000
  H   H1471     1.0  0.52423  0.20907  0.46969  1.0000
  H   H1472     1.0  0.58823  0.11680  0.26813  1.0000
  C   C1220     1.0  0.82847  0.23718  0.42761  1.0000
  C   C1221     1.0  0.46511  0.10268  0.56685  1.0000
  C   C1222     1.0  0.93897  0.13965  0.22092  1.0000
  C   C1223     1.0  0.69917  0.04615  0.49506  1.0000
  S   S333      1.0  0.64601  0.13446  0.28847  1.0000
  C   C1224     1.0  0.62914  0.15217  0.58529  1.0000
  N   N81       1.0  0.71665  0.11395  0.35811  1.0000
  H   H1473     1.0  0.81419  0.14370  0.27944  1.0000
  C   C1225     1.0  0.52796  0.13115  0.17125  1.0000
  C   C1226     1.0  0.80910  0.16840  0.57729  1.0000
  N   N82       1.0  0.82128  0.22015  0.39359  1.0000
  C   C1227     1.0  0.73639  0.24621  0.29098  1.0000
  H   H1474     1.0  0.55396  0.08284  0.15107  1.0000
  H   H1475     1.0  0.67176  0.03820  0.28455  1.0000
  H   H1476     1.0  0.55667  0.11884  0.57630  1.0000
  H   H1477     1.0  0.77795  0.18769  0.49889  1.0000
  C   C1228     1.0  0.74784  0.23352  0.25344  1.0000
  H   H1478     1.0  0.84661  0.05500  0.44528  1.0000
  H   H1479     1.0  0.72331  0.10621  0.14808  1.0000
  C   C1229     1.0  0.90224  0.10378  0.21548  1.0000
  H   H1480     1.0  0.93509  0.18109  0.18090  1.0000
  Fe  Fe166     1.0  0.67244  0.07093  0.59249  1.0000
  H   H1481     1.0  0.92689  0.17681  0.25318  1.0000
  Fe  Fe167     1.0  0.64501  0.14437  0.36633  1.0000
  C   C1230     1.0  0.81840  0.09846  0.39659  1.0000
  H   H1482     1.0  0.60873  0.03584  0.11806  1.0000
  C   C1231     1.0  0.91858  0.09555  0.27630  1.0000
  H   H1483     1.0  0.61565  0.06081  0.47717  1.0000
  C   C1232     1.0  0.62461  0.20477  0.21648  1.0000
  C   C1233     1.0  0.78810  0.11787  0.43711  1.0000
  C   C1234     1.0  0.62980  0.06406  0.29734  1.0000
  C   C1235     1.0  0.78096  0.16203  0.59728  1.0000
  C   C1236     1.0  0.56669  0.10647  0.57501  1.0000
  H   H1484     1.0  0.83813  0.15439  0.57092  1.0000
  H   H1485     1.0  0.84202  0.15105  0.11043  1.0000
  H   H1486     1.0  0.76825  0.03437  0.56754  1.0000
  C   C1237     1.0  0.67506  0.02155  0.28392  1.0000
  H   H1487     1.0  0.70792  0.25460  0.19991  1.0000
  C   C1238     1.0  0.81634  0.14950  0.58589  1.0000
  H   H1488     1.0  0.91061  0.01210  0.55768  1.0000
  H   H1489     1.0  0.47866  0.09347  0.56192  1.0000
  C   C1239     1.0  0.45140  0.13829  0.43303  1.0000
  H   H1490     1.0  0.82474  0.11751  0.11972  1.0000
  S   S334      1.0  0.76516  0.01831  0.28486  1.0000
  H   H1491     1.0  0.91081  0.09767  0.60002  1.0000
  C   C1240     1.0  0.94188  0.16147  0.48449  1.0000
  C   C1241     1.0  0.72236  0.25872  0.15355  1.0000
  H   H1492     1.0  0.55077  0.20178  0.12205  1.0000
  H   H1493     1.0  0.82181  0.25219  0.42716  1.0000
  S   S335      1.0  0.53555  0.01315  0.45293  1.0000
  H   H1494     1.0  0.51470  0.24383  0.10515  1.0000
  H   H1495     1.0  0.94996  0.12731  0.27974  1.0000
  C   C1242     1.0  0.89850  0.25992  0.52647  1.0000
  H   H1496     1.0  0.45913  0.01236  0.28598  1.0000
  H   H1497     1.0  0.53828  0.41935  0.84444  1.0000
  H   H1498     1.0  0.81361  0.48901  0.00144  1.0000
  H   H1499     1.0  0.53895  0.32475  0.67524  1.0000
  C   C1243     1.0  0.54291  0.40768  0.06161  1.0000
  C   C1244     1.0  0.74086  0.42826  0.07929  1.0000
  Fe  Fe168     1.0  0.59887  0.34066  0.95250  1.0000
  S   S336      1.0  0.82409  0.31138  0.81757  1.0000
  C   C1245     1.0  0.94197  0.39499  0.90088  1.0000
  C   C1246     1.0  0.73063  0.37261  0.88177  1.0000
  H   H1500     1.0  0.91017  0.28182  0.68308  1.0000
  C   C1247     1.0  0.68642  0.39904  0.64299  1.0000
  C   C1248     1.0  0.94133  0.43630  0.77999  1.0000
  C   C1249     1.0  0.82315  0.26259  0.70376  1.0000
  C   C1250     1.0  0.52431  0.39171  0.04621  1.0000
  C   C1251     1.0  0.69515  0.44378  0.93697  1.0000
  H   H1501     1.0  0.49998  0.43114  0.02232  1.0000
  C   C1252     1.0  0.60791  0.27094  0.00584  1.0000
  H   H1502     1.0  0.93006  0.31173  0.84780  1.0000
  H   H1503     1.0  0.86606  0.50505  0.99069  1.0000
  H   H1504     1.0  0.65843  0.31425  0.98726  1.0000
  H   H1505     1.0  0.46002  0.26548  0.80864  1.0000
  N   N83       1.0  0.55785  0.35044  0.74325  1.0000
  H   H1506     1.0  0.54092  0.37462  0.73095  1.0000
  H   H1507     1.0  0.62404  0.31237  0.89093  1.0000
  H   H1508     1.0  0.70020  0.49776  0.66012  1.0000
  C   C1253     1.0  0.57500  0.50682  0.65564  1.0000
  H   H1509     1.0  0.75135  0.48400  0.67211  1.0000
  H   H1510     1.0  0.74221  0.31009  0.88378  1.0000
  H   H1511     1.0  0.69473  0.38560  0.63837  1.0000
  H   H1512     1.0  0.65818  0.40826  0.05646  1.0000
  Fe  Fe169     1.0  0.61108  0.39579  0.92101  1.0000
  C   C1254     1.0  0.94119  0.41395  0.92840  1.0000
  C   C1255     1.0  0.89730  0.26926  0.72731  1.0000
  H   H1513     1.0  0.48677  0.47334  0.82715  1.0000
  H   H1514     1.0  0.94376  0.46840  0.07144  1.0000
  C   C1256     1.0  0.63105  0.45784  0.80398  1.0000
  Fe  Fe170     1.0  0.88828  0.34439  0.83499  1.0000
  C   C1257     1.0  0.49964  0.38844  0.85860  1.0000
  C   C1258     1.0  0.56048  0.49695  0.75478  1.0000
  S   S337      1.0  0.49769  0.40523  0.80803  1.0000
  C   C1259     1.0  0.76552  0.42643  0.04812  1.0000
  H   H1515     1.0  0.90287  0.31735  0.02355  1.0000
  H   H1516     1.0  0.68520  0.43092  0.78519  1.0000
  C   C1260     1.0  0.89362  0.42522  0.66334  1.0000
  S   S338      1.0  0.49843  0.33164  0.62950  1.0000
  C   C1261     1.0  0.65162  0.44311  0.95426  1.0000
  C   C1262     1.0  0.47931  0.36292  0.88761  1.0000
  C   C1263     1.0  0.49967  0.29416  0.73786  1.0000
  H   H1517     1.0  0.59181  0.36441  0.76066  1.0000
  H   H1518     1.0  0.60019  0.26830  0.05067  1.0000
  S   S339      1.0  0.93307  0.37055  0.07701  1.0000
  H   H1519     1.0  0.46121  0.35440  0.88277  1.0000
  Fe  Fe171     1.0  0.84425  0.29360  0.84661  1.0000
  H   H1520     1.0  0.72161  0.44224  0.73512  1.0000
  Fe  Fe172     1.0  0.47156  0.37554  0.78268  1.0000
  H   H1521     1.0  0.81965  0.36214  0.81452  1.0000
  C   C1264     1.0  0.48206  0.27566  0.03380  1.0000
  C   C1265     1.0  0.64033  0.36697  0.08810  1.0000
  C   C1266     1.0  0.89098  0.43479  0.70965  1.0000
  C   C1267     1.0  0.88310  0.28208  0.08378  1.0000
  H   H1522     1.0  0.70794  0.31525  0.03008  1.0000
  H   H1523     1.0  0.91966  0.42086  0.81073  1.0000
  C   C1268     1.0  0.79694  0.41190  0.87580  1.0000
  H   H1524     1.0  0.88654  0.49078  0.99663  1.0000
  C   C1269     1.0  0.67770  0.46910  0.99446  1.0000
  H   H1525     1.0  0.50891  0.27762  0.06472  1.0000
  H   H1526     1.0  0.66944  0.42115  0.90548  1.0000
  C   C1270     1.0  0.93103  0.43014  0.70280  1.0000
  H   H1527     1.0  0.90606  0.44474  0.76541  1.0000
  C   C1271     1.0  0.48592  0.45772  0.80624  1.0000
  C   C1272     1.0  0.66486  0.43361  0.65457  1.0000
  C   C1273     1.0  0.89762  0.38680  0.90872  1.0000
  H   H1528     1.0  0.50803  0.46356  0.77248  1.0000
  H   H1529     1.0  0.77230  0.31183  0.04270  1.0000
  S   S340      1.0  0.59231  0.47603  0.69099  1.0000
  S   S341      1.0  0.60105  0.31364  0.00744  1.0000
  H   H1530     1.0  0.72897  0.47855  0.64315  1.0000
  S   S342      1.0  0.81883  0.44161  0.76924  1.0000
  H   H1531     1.0  0.93405  0.39169  0.74608  1.0000
  C   C1274     1.0  0.68159  0.48659  0.70119  1.0000
  H   H1532     1.0  0.88879  0.46408  0.94134  1.0000
  H   H1533     1.0  0.74614  0.28306  0.04356  1.0000
  C   C1275     1.0  0.90009  0.29809  0.02839  1.0000
  H   H1534     1.0  0.56017  0.48735  0.78968  1.0000
  C   C1276     1.0  0.69087  0.39790  0.03225  1.0000
  C   C1277     1.0  0.83224  0.34481  0.02798  1.0000
  C   C1278     1.0  0.62115  0.29573  0.91597  1.0000
  C   C1279     1.0  0.67557  0.28248  0.99712  1.0000
  C   C1280     1.0  0.65684  0.48718  0.71134  1.0000
  Fe  Fe173     1.0  0.76649  0.48489  0.89358  1.0000
  C   C1281     1.0  0.50702  0.35835  0.92540  1.0000
  H   H1535     1.0  0.66318  0.28675  0.03638  1.0000
  S   S343      1.0  0.80469  0.48217  0.88138  1.0000
  Fe  Fe174     1.0  0.80719  0.47119  0.80314  1.0000
  H   H1536     1.0  0.87437  0.44008  0.73062  1.0000
  N   N84       1.0  0.46677  0.45232  0.78348  1.0000
  H   H1537     1.0  0.66378  0.27721  0.97451  1.0000
  C   C1282     1.0  0.79157  0.44848  0.02026  1.0000
  C   C1283     1.0  0.52516  0.31605  0.72035  1.0000
  C   C1284     1.0  0.82271  0.36204  0.04988  1.0000
  C   C1285     1.0  0.87120  0.48144  0.83071  1.0000
  H   H1538     1.0  0.90927  0.27916  0.89185  1.0000
  C   C1286     1.0  0.81341  0.37599  0.83191  1.0000
  S   S344      1.0  0.72742  0.47311  0.97745  1.0000
  C   C1287     1.0  0.51098  0.31397  0.81855  1.0000
  C   C1288     1.0  0.52263  0.39953  0.86649  1.0000
  H   H1539     1.0  0.82304  0.33284  0.00687  1.0000
  H   H1540     1.0  0.58090  0.48337  0.01378  1.0000
  H   H1541     1.0  0.73869  0.50618  0.66962  1.0000
  H   H1542     1.0  0.52197  0.37267  0.04497  1.0000
  S   S345      1.0  0.88381  0.35227  0.65884  1.0000
  S   S346      1.0  0.84608  0.31652  0.90767  1.0000
  H   H1543     1.0  0.63989  0.46783  0.00357  1.0000
  S   S347      1.0  0.58100  0.32925  0.89680  1.0000
  H   H1544     1.0  0.94457  0.26610  0.67090  1.0000
  H   H1545     1.0  0.45733  0.47370  0.73745  1.0000
  N   N85       1.0  0.77034  0.50061  0.05722  1.0000
  H   H1546     1.0  0.86503  0.43062  0.90711  1.0000
  C   C1289     1.0  0.80153  0.37357  0.88984  1.0000
  C   C1290     1.0  0.57991  0.43857  0.09712  1.0000
  H   H1547     1.0  0.55821  0.34565  0.82158  1.0000
  C   C1291     1.0  0.66096  0.39350  0.69178  1.0000
  C   C1292     1.0  0.80994  0.41475  0.81736  1.0000
  H   H1548     1.0  0.53487  0.36686  0.80064  1.0000
  H   H1549     1.0  0.92983  0.32076  0.09126  1.0000
  C   C1293     1.0  0.70247  0.44350  0.74201  1.0000
  C   C1294     1.0  0.71886  0.30935  0.99242  1.0000
  H   H1550     1.0  0.92944  0.36184  0.68007  1.0000
  Fe  Fe175     1.0  0.86875  0.33977  0.75106  1.0000
  C   C1295     1.0  0.67667  0.35335  0.06429  1.0000
  C   C1296     1.0  0.90936  0.43730  0.72930  1.0000
  C   C1297     1.0  0.70555  0.37378  0.89990  1.0000
  C   C1298     1.0  0.89076  0.49532  0.89177  1.0000
  H   H1551     1.0  0.74111  0.32457  0.96658  1.0000
  H   H1552     1.0  0.54445  0.39275  0.90493  1.0000
  H   H1553     1.0  0.67623  0.26503  0.01167  1.0000
  Fe  Fe176     1.0  0.62187  0.47774  0.60258  1.0000
  H   H1554     1.0  0.93150  0.49975  0.91516  1.0000
  H   H1555     1.0  0.81073  0.44711  0.99523  1.0000
  C   C1299     1.0  0.53175  0.32653  0.76032  1.0000
  C   C1300     1.0  0.67166  0.43450  0.93021  1.0000
  C   C1301     1.0  0.88365  0.46947  0.91134  1.0000
  C   C1302     1.0  0.79266  0.39117  0.91219  1.0000
  H   H1556     1.0  0.67993  0.48250  0.01933  1.0000
  H   H1557     1.0  0.71884  0.27777  0.92489  1.0000
  H   H1558     1.0  0.89777  0.30262  0.91299  1.0000
  H   H1559     1.0  0.90481  0.28037  0.75302  1.0000
  H   H1560     1.0  0.53240  0.45965  0.04845  1.0000
  H   H1561     1.0  0.86636  0.48601  0.79921  1.0000
  H   H1562     1.0  0.57258  0.36401  0.65460  1.0000
  H   H1563     1.0  0.47812  0.29050  0.05172  1.0000
  N   N86       1.0  0.70728  0.47031  0.73430  1.0000
  H   H1564     1.0  0.59957  0.37544  0.67140  1.0000
  H   H1565     1.0  0.47225  0.42024  0.75879  1.0000
  C   C1303     1.0  0.67986  0.35244  0.93766  1.0000
  H   H1566     1.0  0.85416  0.44142  0.83598  1.0000
  C   C1304     1.0  0.57955  0.35835  0.68214  1.0000
  C   C1305     1.0  0.65490  0.46066  0.98573  1.0000
  C   C1306     1.0  0.61110  0.29225  0.97387  1.0000
  H   H1567     1.0  0.63075  0.40689  0.73540  1.0000
  C   C1307     1.0  0.57103  0.34748  0.77590  1.0000
  C   C1308     1.0  0.81751  0.39647  0.79585  1.0000
  H   H1568     1.0  0.72915  0.49182  0.07120  1.0000
  C   C1309     1.0  0.70151  0.42220  0.60076  1.0000
  H   H1569     1.0  0.71824  0.50072  0.77198  1.0000
  C   C1310     1.0  0.73254  0.48543  0.67721  1.0000
  H   H1570     1.0  0.58616  0.50508  0.61361  1.0000
  S   S348      1.0  0.63733  0.37587  0.88699  1.0000
  H   H1571     1.0  0.95044  0.41663  0.63049  1.0000
  H   H1572     1.0  0.52929  0.38009  0.64385  1.0000
  S   S349      1.0  0.92220  0.44764  0.96644  1.0000
  C   C1311     1.0  0.73009  0.35010  0.90143  1.0000
  H   H1573     1.0  0.49382  0.48812  0.71791  1.0000
  C   C1312     1.0  0.47466  0.43864  0.74005  1.0000
  S   S350      1.0  0.57393  0.36118  0.99080  1.0000
  H   H1574     1.0  0.66033  0.35340  0.95214  1.0000
  H   H1575     1.0  0.87516  0.26560  0.74452  1.0000
  H   H1576     1.0  0.79080  0.42589  0.89264  1.0000
  N   N87       1.0  0.93234  0.30608  0.92277  1.0000
  H   H1577     1.0  0.69666  0.46933  0.82097  1.0000
  C   C1313     1.0  0.74200  0.45207  0.08264  1.0000
  C   C1314     1.0  0.79299  0.47241  0.02383  1.0000
  C   C1315     1.0  0.69804  0.46097  0.96941  1.0000
  S   S351      1.0  0.92473  0.36165  0.84653  1.0000
  C   C1316     1.0  0.63162  0.47275  0.76245  1.0000
  H   H1578     1.0  0.86152  0.33023  0.01410  1.0000
  C   C1317     1.0  0.48562  0.29206  0.83554  1.0000
  C   C1318     1.0  0.91662  0.29949  0.89256  1.0000
  H   H1579     1.0  0.49467  0.38763  0.01991  1.0000
  H   H1580     1.0  0.86715  0.42563  0.07935  1.0000
  C   C1319     1.0  0.55050  0.37136  0.75519  1.0000
  C   C1320     1.0  0.92081  0.38212  0.88908  1.0000
  H   H1581     1.0  0.77185  0.28158  0.05588  1.0000
  H   H1582     1.0  0.65640  0.44688  0.65915  1.0000
  H   H1583     1.0  0.56929  0.38978  0.74429  1.0000
  H   H1584     1.0  0.60508  0.48623  0.03641  1.0000
  H   H1585     1.0  0.71067  0.43718  0.91822  1.0000
  C   C1321     1.0  0.71947  0.29606  0.91087  1.0000
  C   C1322     1.0  0.71401  0.48045  0.77676  1.0000
  H   H1586     1.0  0.88075  0.37633  0.90107  1.0000
  S   S352      1.0  0.79899  0.34897  0.93301  1.0000
  S   S353      1.0  0.51358  0.33796  0.95848  1.0000
  H   H1587     1.0  0.69699  0.43505  0.71142  1.0000
  C   C1323     1.0  0.68161  0.47128  0.74258  1.0000
  H   H1588     1.0  0.46187  0.43503  0.71936  1.0000
  C   C1324     1.0  0.67908  0.32983  0.95749  1.0000
  C   C1325     1.0  0.91921  0.42003  0.94455  1.0000
  C   C1326     1.0  0.86415  0.45627  0.85155  1.0000
  C   C1327     1.0  0.57465  0.49435  0.70063  1.0000
  H   H1589     1.0  0.54545  0.27232  0.05081  1.0000
  H   H1590     1.0  0.88347  0.35836  0.06022  1.0000
  C   C1328     1.0  0.52639  0.38438  0.89982  1.0000
  Fe  Fe177     1.0  0.47235  0.34188  0.70352  1.0000
  C   C1329     1.0  0.91967  0.36109  0.61388  1.0000
  C   C1330     1.0  0.69059  0.43937  0.60629  1.0000
  H   H1591     1.0  0.82714  0.39839  0.75085  1.0000
  H   H1592     1.0  0.61241  0.47289  0.76964  1.0000
  H   H1593     1.0  0.58490  0.34278  0.67000  1.0000
  S   S354      1.0  0.76705  0.47073  0.81953  1.0000
  S   S355      1.0  0.59487  0.38897  0.86117  1.0000
  C   C1331     1.0  0.65557  0.45701  0.79419  1.0000
  H   H1594     1.0  0.73313  0.47991  0.77212  1.0000
  Fe  Fe178     1.0  0.82968  0.33684  0.87338  1.0000
  H   H1595     1.0  0.77466  0.50795  0.97548  1.0000
  N   N88       1.0  0.56645  0.45042  0.07847  1.0000
  Fe  Fe179     1.0  0.55933  0.35296  0.92942  1.0000
  C   C1332     1.0  0.93735  0.36389  0.63550  1.0000
  H   H1596     1.0  0.46775  0.32785  0.94136  1.0000
  C   C1333     1.0  0.88440  0.50078  0.85019  1.0000
  H   H1597     1.0  0.68210  0.33822  0.06708  1.0000
  H   H1598     1.0  0.57470  0.33051  0.77220  1.0000
  H   H1599     1.0  0.78320  0.38915  0.95715  1.0000
  C   C1334     1.0  0.83480  0.37846  0.07674  1.0000
  C   C1335     1.0  0.70427  0.32791  0.93970  1.0000
  C   C1336     1.0  0.91369  0.28947  0.98187  1.0000
  C   C1337     1.0  0.47170  0.47692  0.75428  1.0000
  H   H1600     1.0  0.76431  0.40787  0.04540  1.0000
  S   S356      1.0  0.62260  0.43260  0.94484  1.0000
  H   H1601     1.0  0.89093  0.30658  0.61359  1.0000
  H   H1602     1.0  0.65400  0.44507  0.82756  1.0000
  H   H1603     1.0  0.93742  0.42722  0.06898  1.0000
  H   H1604     1.0  0.59267  0.43210  0.06315  1.0000
  H   H1605     1.0  0.80607  0.36224  0.04459  1.0000
  H   H1606     1.0  0.92500  0.33869  0.93556  1.0000
  H   H1607     1.0  0.70739  0.41751  0.01073  1.0000
  C   C1338     1.0  0.65028  0.41091  0.69781  1.0000
  H   H1608     1.0  0.75062  0.38921  0.85206  1.0000
  H   H1609     1.0  0.85901  0.42830  0.02545  1.0000
  H   H1610     1.0  0.71931  0.29194  0.00785  1.0000
  C   C1339     1.0  0.87037  0.45026  0.89170  1.0000
  H   H1611     1.0  0.61147  0.44672  0.84404  1.0000
  H   H1612     1.0  0.55434  0.39992  0.07136  1.0000
  H   H1613     1.0  0.87945  0.41005  0.95025  1.0000
  H   H1614     1.0  0.45237  0.39695  0.92968  1.0000
  Fe  Fe180     1.0  0.61789  0.36596  0.83307  1.0000
  C   C1340     1.0  0.58917  0.47242  0.02793  1.0000
  H   H1615     1.0  0.60033  0.46593  0.99167  1.0000
  S   S357      1.0  0.87267  0.36676  0.80422  1.0000
  S   S358      1.0  0.64301  0.36479  0.74453  1.0000
  H   H1616     1.0  0.61223  0.36328  0.03484  1.0000
  H   H1617     1.0  0.70599  0.39124  0.88479  1.0000
  H   H1618     1.0  0.75012  0.35019  0.88632  1.0000
  H   H1619     1.0  0.87890  0.42274  0.64913  1.0000
  H   H1620     1.0  0.51370  0.32142  0.85158  1.0000
  N   N89       1.0  0.70430  0.30431  0.95986  1.0000
  C   C1341     1.0  0.64828  0.34756  0.09087  1.0000
  H   H1621     1.0  0.94166  0.45512  0.78098  1.0000
  C   C1342     1.0  0.89684  0.40586  0.93658  1.0000
  H   H1622     1.0  0.71988  0.38271  0.01414  1.0000
  C   C1343     1.0  0.88787  0.50822  0.97598  1.0000
  S   S359      1.0  0.88800  0.31978  0.77672  1.0000
  H   H1623     1.0  0.47133  0.27889  0.62642  1.0000
  H   H1624     1.0  0.85285  0.29611  0.70904  1.0000
  S   S360      1.0  0.47156  0.37938  0.70117  1.0000
  H   H1625     1.0  0.63424  0.27980  0.84587  1.0000
  H   H1626     1.0  0.70985  0.29307  0.88386  1.0000
  C   C1344     1.0  0.48292  0.34791  0.92115  1.0000
  C   C1345     1.0  0.85386  0.34328  0.03213  1.0000
  S   S361      1.0  0.49093  0.50455  0.04687  1.0000
  H   H1627     1.0  0.49721  0.44988  0.70555  1.0000
  C   C1346     1.0  0.94244  0.33366  0.91925  1.0000
  H   H1628     1.0  0.46985  0.28318  0.88016  1.0000
  C   C1347     1.0  0.49986  0.26804  0.04086  1.0000
  C   C1348     1.0  0.86618  0.35911  0.05810  1.0000
  C   C1349     1.0  0.76822  0.47498  0.05487  1.0000
  C   C1350     1.0  0.66255  0.39237  0.05848  1.0000
  H   H1629     1.0  0.56294  0.27441  0.95147  1.0000
  C   C1351     1.0  0.47999  0.28213  0.79528  1.0000
  H   H1630     1.0  0.61804  0.39267  0.05428  1.0000
  H   H1631     1.0  0.58333  0.36655  0.08887  1.0000
  H   H1632     1.0  0.86735  0.38845  0.09933  1.0000
  S   S362      1.0  0.47606  0.33998  0.78023  1.0000
  C   C1352     1.0  0.69793  0.37839  0.03471  1.0000
  H   H1633     1.0  0.49485  0.28701  0.70653  1.0000
  C   C1353     1.0  0.84980  0.42339  0.07197  1.0000
  C   C1354     1.0  0.50882  0.40009  0.03229  1.0000
  C   C1355     1.0  0.75840  0.29105  0.06461  1.0000
  C   C1356     1.0  0.87132  0.28959  0.62722  1.0000
  C   C1357     1.0  0.90780  0.26356  0.99423  1.0000
  C   C1358     1.0  0.60593  0.37151  0.07117  1.0000
  C   C1359     1.0  0.62697  0.27734  0.89049  1.0000
  H   H1634     1.0  0.47922  0.44053  0.83797  1.0000
  H   H1635     1.0  0.46863  0.48954  0.78245  1.0000
  C   C1360     1.0  0.51184  0.42453  0.03371  1.0000
  H   H1636     1.0  0.80964  0.40260  0.04652  1.0000
  C   C1361     1.0  0.53034  0.44066  0.04915  1.0000
  C   C1362     1.0  0.54630  0.43266  0.06411  1.0000
  C   C1363     1.0  0.84949  0.28370  0.68274  1.0000
  C   C1364     1.0  0.85682  0.37641  0.08020  1.0000
  H   H1637     1.0  0.65697  0.49843  0.67896  1.0000
  H   H1638     1.0  0.84369  0.43811  0.08803  1.0000
  N   N90       1.0  0.82557  0.39722  0.09988  1.0000
  H   H1639     1.0  0.45726  0.27179  0.99513  1.0000
  C   C1365     1.0  0.80275  0.39737  0.09211  1.0000
  C   C1366     1.0  0.47027  0.26513  0.00183  1.0000
  C   C1367     1.0  0.93388  0.42156  0.65419  1.0000
  H   H1640     1.0  0.46504  0.41584  0.60474  1.0000
  C   C1368     1.0  0.54313  0.37804  0.60435  1.0000
  C   C1369     1.0  0.74249  0.50002  0.09004  1.0000
  C   C1370     1.0  0.91518  0.41884  0.63536  1.0000
  H   H1641     1.0  0.93486  0.26236  0.74327  1.0000
  C   C1371     1.0  0.94921  0.33350  0.05260  1.0000
  S   S363      1.0  0.53938  0.47245  0.35733  1.0000
  C   C1372     1.0  0.62470  0.44545  0.24390  1.0000
  H   H1642     1.0  0.91712  0.41128  0.59943  1.0000
  H   H1643     1.0  0.52089  0.40819  0.31015  1.0000
  C   C1373     1.0  0.87893  0.28069  0.49254  1.0000
  H   H1644     1.0  0.45554  0.43605  0.54108  1.0000
  C   C1374     1.0  0.52108  0.38480  0.25322  1.0000
  S   S364      1.0  0.68043  0.48047  0.45951  1.0000
  H   H1645     1.0  0.57359  0.27320  0.35951  1.0000
  C   C1375     1.0  0.57887  0.37309  0.50143  1.0000
  H   H1646     1.0  0.70748  0.47733  0.24497  1.0000
  H   H1647     1.0  0.93275  0.42168  0.34228  1.0000
  C   C1376     1.0  0.48611  0.40090  0.23845  1.0000
  H   H1648     1.0  0.51560  0.48957  0.49890  1.0000
  C   C1377     1.0  0.59002  0.33388  0.13982  1.0000
  S   S365      1.0  0.62031  0.48283  0.52296  1.0000
  Fe  Fe181     1.0  0.88526  0.32606  0.29011  1.0000
  C   C1378     1.0  0.74836  0.31189  0.19316  1.0000
  H   H1649     1.0  0.94241  0.50355  0.11070  1.0000
  N   N91       1.0  0.68382  0.39803  0.43334  1.0000
  H   H1650     1.0  0.89906  0.43485  0.12547  1.0000
  C   C1379     1.0  0.88938  0.41828  0.33688  1.0000
  H   H1651     1.0  0.48469  0.34914  0.49197  1.0000
  C   C1380     1.0  0.53348  0.35571  0.58843  1.0000
  H   H1652     1.0  0.77748  0.49993  0.12685  1.0000
  S   S366      1.0  0.74010  0.37038  0.23263  1.0000
  H   H1653     1.0  0.73281  0.35390  0.34397  1.0000
  Fe  Fe182     1.0  0.45461  0.48466  0.13594  1.0000
  H   H1654     1.0  0.56384  0.42186  0.13519  1.0000
  H   H1655     1.0  0.53480  0.44429  0.16391  1.0000
  H   H1656     1.0  0.92658  0.44708  0.36673  1.0000
  C   C1381     1.0  0.51261  0.37725  0.21462  1.0000
  H   H1657     1.0  0.64812  0.44061  0.16244  1.0000
  H   H1658     1.0  0.59459  0.45235  0.10835  1.0000
  H   H1659     1.0  0.55329  0.42173  0.45368  1.0000
  H   H1660     1.0  0.50861  0.50400  0.32146  1.0000
  C   C1382     1.0  0.50262  0.36022  0.49816  1.0000
  C   C1383     1.0  0.60376  0.37440  0.15992  1.0000
  C   C1384     1.0  0.91917  0.50973  0.25036  1.0000
  S   S367      1.0  0.62130  0.42155  0.46761  1.0000
  S   S368      1.0  0.83914  0.30915  0.32075  1.0000
  C   C1385     1.0  0.82996  0.41406  0.26817  1.0000
  H   H1661     1.0  0.79528  0.37281  0.18477  1.0000
  H   H1662     1.0  0.51194  0.37724  0.39616  1.0000
  Fe  Fe183     1.0  0.69726  0.35096  0.24346  1.0000
  C   C1386     1.0  0.49605  0.40966  0.27449  1.0000
  H   H1663     1.0  0.47877  0.50655  0.28459  1.0000
  Fe  Fe184     1.0  0.63399  0.32256  0.32452  1.0000
  Fe  Fe185     1.0  0.66657  0.51015  0.48200  1.0000
  S   S369      1.0  0.89532  0.31084  0.21392  1.0000
  S   S370      1.0  0.62470  0.32549  0.25470  1.0000
  H   H1664     1.0  0.61766  0.39542  0.14410  1.0000
  S   S371      1.0  0.55456  0.50159  0.23342  1.0000
  C   C1387     1.0  0.74677  0.40183  0.23379  1.0000
  N   N92       1.0  0.73954  0.28661  0.12605  1.0000
  H   H1665     1.0  0.49324  0.39349  0.57074  1.0000
  C   C1388     1.0  0.75260  0.26341  0.30927  1.0000
  H   H1666     1.0  0.63273  0.39084  0.30516  1.0000
  H   H1667     1.0  0.53112  0.45643  0.49440  1.0000
  C   C1389     1.0  0.86724  0.27435  0.59079  1.0000
  C   C1390     1.0  0.47306  0.41446  0.56160  1.0000
  C   C1391     1.0  0.79452  0.30410  0.17010  1.0000
  H   H1668     1.0  0.53458  0.37857  0.25901  1.0000
  N   N93       1.0  0.51839  0.38737  0.46471  1.0000
  S   S372      1.0  0.65569  0.28992  0.14928  1.0000
  H   H1669     1.0  0.66332  0.41765  0.48613  1.0000
  H   H1670     1.0  0.55941  0.39459  0.44973  1.0000
  H   H1671     1.0  0.65717  0.26201  0.23689  1.0000
  H   H1672     1.0  0.69301  0.40481  0.34696  1.0000
  Fe  Fe186     1.0  0.52209  0.28169  0.26527  1.0000
  H   H1673     1.0  0.93304  0.41387  0.25581  1.0000
  H   H1674     1.0  0.83229  0.44968  0.23849  1.0000
  Fe  Fe187     1.0  0.59509  0.49967  0.19605  1.0000
  C   C1392     1.0  0.58821  0.39581  0.51611  1.0000
  H   H1675     1.0  0.79790  0.32484  0.23047  1.0000
  C   C1393     1.0  0.54508  0.29280  0.47632  1.0000
  H   H1676     1.0  0.91962  0.42826  0.22471  1.0000
  H   H1677     1.0  0.94311  0.38194  0.43530  1.0000
  H   H1678     1.0  0.91483  0.26318  0.48218  1.0000
  H   H1679     1.0  0.70867  0.28855  0.10878  1.0000
  H   H1680     1.0  0.69745  0.36794  0.36413  1.0000
  H   H1681     1.0  0.60844  0.41189  0.36914  1.0000
  S   S373      1.0  0.66579  0.36372  0.29511  1.0000
  H   H1682     1.0  0.59239  0.37118  0.46125  1.0000
  S   S374      1.0  0.89420  0.32087  0.35970  1.0000
  C   C1394     1.0  0.70561  0.38981  0.42111  1.0000
  H   H1683     1.0  0.65715  0.49214  0.24647  1.0000
  S   S375      1.0  0.47165  0.31097  0.32777  1.0000
  H   H1684     1.0  0.86973  0.29404  0.49847  1.0000
  Fe  Fe188     1.0  0.58076  0.47195  0.30888  1.0000
  H   H1685     1.0  0.50037  0.28022  0.51795  1.0000
  C   C1395     1.0  0.86789  0.40590  0.20471  1.0000
  H   H1686     1.0  0.74378  0.27328  0.33818  1.0000
  H   H1687     1.0  0.83010  0.39000  0.17156  1.0000
  C   C1396     1.0  0.65592  0.37538  0.45456  1.0000
  Fe  Fe189     1.0  0.49615  0.30295  0.36130  1.0000
  H   H1688     1.0  0.90565  0.34094  0.44334  1.0000
  S   S376      1.0  0.48219  0.49493  0.17401  1.0000
  C   C1397     1.0  0.64200  0.41430  0.22953  1.0000
  H   H1689     1.0  0.58297  0.26331  0.27528  1.0000
  Fe  Fe190     1.0  0.65897  0.31493  0.20708  1.0000
  H   H1690     1.0  0.73163  0.31814  0.11296  1.0000
  C   C1398     1.0  0.55198  0.46016  0.12504  1.0000
  H   H1691     1.0  0.71927  0.40191  0.20395  1.0000
  Fe  Fe191     1.0  0.84989  0.29686  0.24121  1.0000
  C   C1399     1.0  0.47741  0.42372  0.47070  1.0000
  C   C1400     1.0  0.76330  0.32121  0.22068  1.0000
  H   H1692     1.0  0.47337  0.43277  0.44267  1.0000
  C   C1401     1.0  0.93061  0.36510  0.55557  1.0000
  H   H1693     1.0  0.77547  0.40780  0.26395  1.0000
  H   H1694     1.0  0.72139  0.42658  0.56350  1.0000
  H   H1695     1.0  0.59044  0.32545  0.17619  1.0000
  H   H1696     1.0  0.58159  0.37113  0.17984  1.0000
  H   H1697     1.0  0.50043  0.41012  0.40731  1.0000
  H   H1698     1.0  0.71243  0.43200  0.36304  1.0000
  H   H1699     1.0  0.88884  0.40017  0.35200  1.0000
  H   H1700     1.0  0.56690  0.47380  0.13588  1.0000
  H   H1701     1.0  0.69991  0.43089  0.46183  1.0000
  C   C1402     1.0  0.46745  0.42567  0.52594  1.0000
  H   H1702     1.0  0.91713  0.36345  0.53864  1.0000
  H   H1703     1.0  0.62319  0.46103  0.22621  1.0000
  N   N94       1.0  0.88968  0.28011  0.53147  1.0000
  H   H1704     1.0  0.67482  0.40103  0.51733  1.0000
  C   C1403     1.0  0.57493  0.48359  0.45663  1.0000
  S   S377      1.0  0.69286  0.35573  0.16819  1.0000
  C   C1404     1.0  0.52332  0.30976  0.43974  1.0000
  S   S378      1.0  0.49909  0.28706  0.22454  1.0000
  S   S379      1.0  0.88312  0.47417  0.12719  1.0000
  H   H1705     1.0  0.88860  0.44736  0.25562  1.0000
  H   H1706     1.0  0.78342  0.37841  0.11392  1.0000
  S   S380      1.0  0.66725  0.50714  0.56257  1.0000
  C   C1405     1.0  0.61347  0.43746  0.30223  1.0000
  C   C1406     1.0  0.94249  0.37791  0.39808  1.0000
  H   H1707     1.0  0.73043  0.31519  0.20532  1.0000
  H   H1708     1.0  0.90996  0.32107  0.51510  1.0000
  H   H1709     1.0  0.81194  0.30046  0.16256  1.0000
  H   H1710     1.0  0.54315  0.27946  0.50798  1.0000
  C   C1407     1.0  0.66670  0.49924  0.33897  1.0000
  C   C1408     1.0  0.91527  0.30506  0.51150  1.0000
  H   H1711     1.0  0.54420  0.33581  0.52527  1.0000
  C   C1409     1.0  0.84240  0.43766  0.22914  1.0000
  Fe  Fe192     1.0  0.51082  0.32491  0.24250  1.0000
  H   H1712     1.0  0.54248  0.40789  0.37604  1.0000
  C   C1410     1.0  0.57404  0.32616  0.38773  1.0000
  S   S381      1.0  0.59669  0.45272  0.34736  1.0000
  C   C1411     1.0  0.54646  0.47646  0.47907  1.0000
  H   H1713     1.0  0.73080  0.48859  0.13493  1.0000
  H   H1714     1.0  0.88877  0.48719  0.22874  1.0000
  H   H1715     1.0  0.70325  0.29214  0.17564  1.0000
  S   S382      1.0  0.55300  0.26714  0.22344  1.0000
  S   S383      1.0  0.66607  0.30920  0.27901  1.0000
  C   C1412     1.0  0.59496  0.50945  0.43603  1.0000
  C   C1413     1.0  0.88018  0.42938  0.16573  1.0000
  C   C1414     1.0  0.72012  0.29701  0.13103  1.0000
  H   H1716     1.0  0.72568  0.44495  0.21255  1.0000
  H   H1717     1.0  0.78345  0.45160  0.26875  1.0000
  C   C1415     1.0  0.48911  0.40165  0.54180  1.0000
  S   S384      1.0  0.49305  0.30844  0.44328  1.0000
  C   C1416     1.0  0.63913  0.43406  0.20763  1.0000
  H   H1718     1.0  0.55193  0.33964  0.36099  1.0000
  H   H1719     1.0  0.63301  0.32771  0.11341  1.0000
  H   H1720     1.0  0.60647  0.36712  0.19382  1.0000
  C   C1417     1.0  0.54991  0.32649  0.39314  1.0000
  H   H1721     1.0  0.56797  0.33026  0.15569  1.0000
  C   C1418     1.0  0.52091  0.29328  0.48201  1.0000
  H   H1722     1.0  0.79251  0.28084  0.30513  1.0000
  H   H1723     1.0  0.54253  0.47075  0.11424  1.0000
  C   C1419     1.0  0.90191  0.46428  0.26131  1.0000
  Fe  Fe193     1.0  0.46182  0.27251  0.31232  1.0000
  Fe  Fe194     1.0  0.65927  0.36597  0.22186  1.0000
  S   S385      1.0  0.89609  0.36419  0.24199  1.0000
  C   C1420     1.0  0.91890  0.46341  0.28331  1.0000
  H   H1724     1.0  0.68457  0.46391  0.32020  1.0000
  Fe  Fe195     1.0  0.85047  0.34638  0.26869  1.0000
  S   S386      1.0  0.85702  0.33256  0.19176  1.0000
  C   C1421     1.0  0.74736  0.37372  0.39522  1.0000
  C   C1422     1.0  0.70971  0.37399  0.38444  1.0000
  H   H1725     1.0  0.49402  0.35784  0.54421  1.0000
  H   H1726     1.0  0.79602  0.41133  0.11120  1.0000
  H   H1727     1.0  0.76334  0.36760  0.38507  1.0000
  C   C1423     1.0  0.93980  0.36835  0.30212  1.0000
  H   H1728     1.0  0.47313  0.40761  0.23186  1.0000
  C   C1424     1.0  0.54303  0.40073  0.47158  1.0000
  S   S387      1.0  0.66043  0.40073  0.18255  1.0000
  S   S388      1.0  0.60103  0.30542  0.41678  1.0000
  S   S389      1.0  0.48354  0.26322  0.35199  1.0000
  C   C1425     1.0  0.52935  0.38792  0.40409  1.0000
  C   C1426     1.0  0.93666  0.48701  0.28674  1.0000
  C   C1427     1.0  0.57156  0.30883  0.42845  1.0000
  S   S390      1.0  0.82579  0.36779  0.30226  1.0000
  H   H1729     1.0  0.87362  0.28929  0.11878  1.0000
  C   C1428     1.0  0.73285  0.41245  0.21918  1.0000
  C   C1429     1.0  0.75605  0.29812  0.15319  1.0000
  S   S391      1.0  0.70889  0.46778  0.55237  1.0000
  S   S392      1.0  0.49047  0.43357  0.30377  1.0000
  H   H1730     1.0  0.93908  0.36460  0.26475  1.0000
  C   C1430     1.0  0.73658  0.43693  0.22379  1.0000
  C   C1431     1.0  0.93657  0.50974  0.27070  1.0000
  C   C1432     1.0  0.77917  0.29394  0.14372  1.0000
  N   N95       1.0  0.91877  0.43905  0.29877  1.0000
  C   C1433     1.0  0.51319  0.40138  0.28240  1.0000
  N   N96       1.0  0.61051  0.36158  0.11441  1.0000
  C   C1434     1.0  0.92022  0.34990  0.35437  1.0000
  H   H1731     1.0  0.57772  0.41567  0.57966  1.0000
  H   H1732     1.0  0.87681  0.41299  0.31575  1.0000
  C   C1435     1.0  0.67695  0.50936  0.22108  1.0000
  H   H1733     1.0  0.63876  0.38081  0.46736  1.0000
  H   H1734     1.0  0.80992  0.40623  0.17949  1.0000
  S   S393      1.0  0.53653  0.32083  0.27745  1.0000
  C   C1436     1.0  0.78016  0.26764  0.29061  1.0000
  C   C1437     1.0  0.78663  0.31776  0.20845  1.0000
  C   C1438     1.0  0.93185  0.43173  0.24655  1.0000
  C   C1439     1.0  0.63062  0.40610  0.28791  1.0000
  H   H1735     1.0  0.87793  0.42383  0.37476  1.0000
  C   C1440     1.0  0.68851  0.47618  0.28231  1.0000
  C   C1441     1.0  0.75491  0.45109  0.24145  1.0000
  H   H1736     1.0  0.89593  0.28713  0.44713  1.0000
  H   H1737     1.0  0.67010  0.46561  0.27736  1.0000
  C   C1442     1.0  0.73010  0.36594  0.37223  1.0000
  H   H1738     1.0  0.66223  0.48761  0.37828  1.0000
  S   S394      1.0  0.63166  0.44501  0.58920  1.0000
  C   C1443     1.0  0.69155  0.41476  0.38058  1.0000
  C   C1444     1.0  0.86748  0.44526  0.17774  1.0000
  S   S395      1.0  0.52436  0.35807  0.17582  1.0000
  C   C1445     1.0  0.93465  0.44060  0.32813  1.0000
  C   C1446     1.0  0.57057  0.39812  0.56815  1.0000
  H   H1739     1.0  0.93118  0.30915  0.46622  1.0000
  C   C1447     1.0  0.49996  0.39961  0.48547  1.0000
  H   H1740     1.0  0.59426  0.32282  0.10852  1.0000
  Fe  Fe196     1.0  0.90201  0.34747  0.16822  1.0000
  H   H1741     1.0  0.72247  0.40977  0.47153  1.0000
  H   H1742     1.0  0.51642  0.35088  0.48538  1.0000
  H   H1743     1.0  0.87742  0.39344  0.19421  1.0000
  H   H1744     1.0  0.78511  0.28213  0.11727  1.0000
  S   S396      1.0  0.83350  0.49894  0.12127  1.0000
  H   H1745     1.0  0.81027  0.40799  0.30746  1.0000
  H   H1746     1.0  0.94597  0.41788  0.14098  1.0000
  C   C1448     1.0  0.72368  0.39752  0.44377  1.0000
  C   C1449     1.0  0.90197  0.48707  0.24545  1.0000
  C   C1450     1.0  0.92138  0.35478  0.40255  1.0000
  H   H1747     1.0  0.53720  0.39710  0.51658  1.0000
  H   H1748     1.0  0.64751  0.48921  0.33620  1.0000
  S   S397      1.0  0.76095  0.48218  0.24447  1.0000
  H   H1749     1.0  0.75643  0.33086  0.25245  1.0000
  H   H1750     1.0  0.67560  0.42132  0.38793  1.0000
  H   H1751     1.0  0.65019  0.36136  0.49192  1.0000
  C   C1451     1.0  0.61667  0.41791  0.32417  1.0000
  C   C1452     1.0  0.74419  0.38951  0.43081  1.0000
  Fe  Fe197     1.0  0.86183  0.49877  0.15244  1.0000
  H   H1752     1.0  0.92604  0.30543  0.53557  1.0000
  C   C1453     1.0  0.49488  0.38500  0.20754  1.0000
  H   H1753     1.0  0.59453  0.33921  0.35174  1.0000
  C   C1454     1.0  0.49323  0.41071  0.45064  1.0000
  H   H1754     1.0  0.54316  0.37858  0.39016  1.0000
  S   S398      1.0  0.83399  0.49999  0.23923  1.0000
  Fe  Fe198     1.0  0.53317  0.46157  0.28640  1.0000
  Fe  Fe199     1.0  0.80773  0.50366  0.20509  1.0000
  S   S399      1.0  0.57279  0.45804  0.24147  1.0000
  C   C1455     1.0  0.81484  0.39135  0.16142  1.0000
  H   H1755     1.0  0.65526  0.36517  0.42208  1.0000
  H   H1756     1.0  0.58161  0.46899  0.45480  1.0000
  C   C1456     1.0  0.55156  0.35307  0.53760  1.0000
  H   H1757     1.0  0.48813  0.37885  0.17801  1.0000
  Fe  Fe200     1.0  0.67690  0.47488  0.54379  1.0000
  C   C1457     1.0  0.76943  0.44080  0.25459  1.0000
  C   C1458     1.0  0.84257  0.39808  0.25572  1.0000
  C   C1459     1.0  0.76515  0.41608  0.25132  1.0000
  H   H1758     1.0  0.46643  0.29731  0.56121  1.0000
  H   H1759     1.0  0.75776  0.39559  0.44846  1.0000
  Fe  Fe201     1.0  0.63434  0.45277  0.50624  1.0000
  C   C1460     1.0  0.68044  0.41248  0.47652  1.0000
  H   H1760     1.0  0.71210  0.50074  0.33688  1.0000
  C   C1461     1.0  0.53780  0.49513  0.48129  1.0000
  N   N97       1.0  0.69253  0.50202  0.28842  1.0000
  H   H1761     1.0  0.72188  0.45186  0.10677  1.0000
  H   H1762     1.0  0.86255  0.26157  0.49842  1.0000
  H   H1763     1.0  0.72051  0.41117  0.10093  1.0000
  H   H1764     1.0  0.69816  0.72584  0.69645  1.0000
  S   S400      1.0  0.87070  0.56038  0.00710  1.0000
  S   S401      1.0  0.66383  0.72215  0.64492  1.0000
  H   H1765     1.0  0.94361  0.69916  0.88065  1.0000
  C   C1462     1.0  0.54853  0.55266  0.86598  1.0000
  H   H1766     1.0  0.92209  0.59234  0.74796  1.0000
  H   H1767     1.0  0.64716  0.56472  0.79732  1.0000
  Fe  Fe202     1.0  0.48428  0.53875  0.06035  1.0000
  Fe  Fe203     1.0  0.67332  0.64448  0.87493  1.0000
  H   H1768     1.0  0.61899  0.64240  0.84124  1.0000
  H   H1769     1.0  0.71111  0.70199  0.05604  1.0000
  C   C1463     1.0  0.93153  0.63181  0.83235  1.0000
  H   H1770     1.0  0.91328  0.70392  0.61625  1.0000
  C   C1464     1.0  0.64495  0.55482  0.76519  1.0000
  H   H1771     1.0  0.60430  0.61524  0.81882  1.0000
  N   N98       1.0  0.77616  0.61920  0.88147  1.0000
  C   C1465     1.0  0.56160  0.54145  0.88154  1.0000
  C   C1466     1.0  0.89997  0.70719  0.60211  1.0000
  N   N99       1.0  0.88071  0.71535  0.64365  1.0000
  H   H1772     1.0  0.64330  0.59872  0.68554  1.0000
  C   C1467     1.0  0.55336  0.71034  0.04120  1.0000
  C   C1468     1.0  0.81812  0.61137  0.65119  1.0000
  H   H1773     1.0  0.59676  0.57937  0.72634  1.0000
  C   C1469     1.0  0.55173  0.65881  0.60736  1.0000
  H   H1774     1.0  0.55099  0.57430  0.79745  1.0000
  H   H1775     1.0  0.73684  0.61663  0.94448  1.0000
  C   C1470     1.0  0.71343  0.72112  0.05149  1.0000
  C   C1471     1.0  0.68864  0.72314  0.08118  1.0000
  H   H1776     1.0  0.64409  0.74954  0.91791  1.0000
  H   H1777     1.0  0.62887  0.68625  0.79305  1.0000
  C   C1472     1.0  0.62853  0.54940  0.69971  1.0000
  Fe  Fe204     1.0  0.55922  0.72544  0.74849  1.0000
  S   S402      1.0  0.79863  0.67593  0.98918  1.0000
  H   H1778     1.0  0.51497  0.73286  0.01490  1.0000
  H   H1779     1.0  0.81657  0.60589  0.08996  1.0000
  H   H1780     1.0  0.48109  0.58351  0.79351  1.0000
  C   C1473     1.0  0.91617  0.62123  0.71244  1.0000
  C   C1474     1.0  0.81514  0.59626  0.01672  1.0000
  H   H1781     1.0  0.52299  0.61737  0.79535  1.0000
  S   S403      1.0  0.65441  0.61540  0.83767  1.0000
  S   S404      1.0  0.55441  0.73661  0.82794  1.0000
  C   C1475     1.0  0.56634  0.75480  0.00966  1.0000
  C   C1476     1.0  0.46577  0.56424  0.82103  1.0000
  H   H1782     1.0  0.59183  0.67115  0.82248  1.0000
  N   N100      1.0  0.76676  0.74200  0.98441  1.0000
  S   S405      1.0  0.51356  0.55353  0.09319  1.0000
  H   H1783     1.0  0.51293  0.63166  0.68220  1.0000
  C   C1477     1.0  0.93299  0.51764  0.89612  1.0000
  H   H1784     1.0  0.56529  0.71430  0.06363  1.0000
  Fe  Fe205     1.0  0.72204  0.69469  0.85403  1.0000
  C   C1478     1.0  0.91457  0.66770  0.80658  1.0000
  C   C1479     1.0  0.60067  0.58478  0.92514  1.0000
  H   H1785     1.0  0.76451  0.74252  0.90863  1.0000
  C   C1480     1.0  0.60015  0.62937  0.70424  1.0000
  C   C1481     1.0  0.79760  0.55844  0.68508  1.0000
  H   H1786     1.0  0.51506  0.75796  0.69905  1.0000
  C   C1482     1.0  0.60828  0.57891  0.07135  1.0000
  C   C1483     1.0  0.80039  0.56970  0.63545  1.0000
  C   C1484     1.0  0.84068  0.58602  0.05384  1.0000
  H   H1787     1.0  0.53736  0.60255  0.70908  1.0000
  H   H1788     1.0  0.62975  0.59405  0.05784  1.0000
  H   H1789     1.0  0.63307  0.53378  0.78495  1.0000
  S   S406      1.0  0.55963  0.51811  0.04548  1.0000
  H   H1790     1.0  0.73301  0.73350  0.72641  1.0000
  H   H1791     1.0  0.94867  0.64236  0.78766  1.0000
  H   H1792     1.0  0.65691  0.55095  0.99402  1.0000
  H   H1793     1.0  0.47119  0.69484  0.74114  1.0000
  H   H1794     1.0  0.64960  0.67020  0.68960  1.0000
  N   N101      1.0  0.54234  0.72869  0.04106  1.0000
  C   C1485     1.0  0.83888  0.74145  0.77533  1.0000
  S   S407      1.0  0.59202  0.74940  0.65958  1.0000
  C   C1486     1.0  0.58591  0.54487  0.98708  1.0000
  H   H1795     1.0  0.66656  0.55898  0.73189  1.0000
  H   H1796     1.0  0.91639  0.72458  0.68517  1.0000
  C   C1487     1.0  0.77917  0.63509  0.83325  1.0000
  C   C1488     1.0  0.78493  0.51722  0.99898  1.0000
  H   H1797     1.0  0.65612  0.57285  0.88828  1.0000
  C   C1489     1.0  0.67150  0.75049  0.80634  1.0000
  H   H1798     1.0  0.87291  0.61858  0.62668  1.0000
  H   H1799     1.0  0.55829  0.56032  0.99251  1.0000
  C   C1490     1.0  0.89646  0.62815  0.71261  1.0000
  C   C1491     1.0  0.69651  0.73407  0.73143  1.0000
  H   H1800     1.0  0.86091  0.75502  0.74759  1.0000
  S   S408      1.0  0.91008  0.71597  0.98469  1.0000
  N   N102      1.0  0.61259  0.65074  0.77290  1.0000
  H   H1801     1.0  0.90231  0.68428  0.75817  1.0000
  C   C1492     1.0  0.78988  0.72566  0.80237  1.0000
  Fe  Fe206     1.0  0.54065  0.69553  0.86425  1.0000
  C   C1493     1.0  0.93525  0.69511  0.85293  1.0000
  H   H1802     1.0  0.61474  0.68683  0.74799  1.0000
  H   H1803     1.0  0.65971  0.73625  0.74575  1.0000
  C   C1494     1.0  0.56088  0.52165  0.66519  1.0000
  H   H1804     1.0  0.88103  0.66158  0.03731  1.0000
  S   S409      1.0  0.54957  0.68562  0.78237  1.0000
  C   C1495     1.0  0.45250  0.74079  0.63717  1.0000
  H   H1805     1.0  0.68440  0.59832  0.96304  1.0000
  Fe  Fe207     1.0  0.85866  0.54152  0.09385  1.0000
  H   H1806     1.0  0.76033  0.59308  0.81007  1.0000
  C   C1496     1.0  0.61354  0.54835  0.95718  1.0000
  C   C1497     1.0  0.92058  0.71081  0.79620  1.0000
  H   H1807     1.0  0.93850  0.63347  0.68358  1.0000
  C   C1498     1.0  0.87797  0.58154  0.78457  1.0000
  H   H1808     1.0  0.80915  0.51614  0.05872  1.0000
  Fe  Fe208     1.0  0.51777  0.51786  0.08535  1.0000
  H   H1809     1.0  0.81904  0.61164  0.72810  1.0000
  C   C1499     1.0  0.67564  0.74044  0.96252  1.0000
  H   H1810     1.0  0.89732  0.64808  0.94937  1.0000
  H   H1811     1.0  0.56158  0.53156  0.63025  1.0000
  C   C1500     1.0  0.91184  0.68742  0.78410  1.0000
  H   H1812     1.0  0.60245  0.58394  0.04097  1.0000
  H   H1813     1.0  0.73643  0.53377  0.97951  1.0000
  S   S410      1.0  0.46688  0.52714  0.71113  1.0000
  H   H1814     1.0  0.48706  0.65494  0.68247  1.0000
  H   H1815     1.0  0.73692  0.54732  0.82509  1.0000
  C   C1501     1.0  0.75567  0.57353  0.93492  1.0000
  C   C1502     1.0  0.54672  0.52419  0.71950  1.0000
  H   H1816     1.0  0.91873  0.55534  0.90986  1.0000
  H   H1817     1.0  0.84732  0.58679  0.08442  1.0000
  C   C1503     1.0  0.67242  0.58746  0.09704  1.0000
  H   H1818     1.0  0.79507  0.55799  0.60959  1.0000
  S   S411      1.0  0.79267  0.60882  0.02145  1.0000
  C   C1504     1.0  0.50906  0.66273  0.64995  1.0000
  H   H1819     1.0  0.88570  0.74812  0.08955  1.0000
  C   C1505     1.0  0.62817  0.58817  0.89480  1.0000
  C   C1506     1.0  0.84514  0.73533  0.09706  1.0000
  C   C1507     1.0  0.92104  0.69541  0.00291  1.0000
  H   H1820     1.0  0.88312  0.62658  0.91632  1.0000
  C   C1508     1.0  0.90905  0.54097  0.89140  1.0000
  C   C1509     1.0  0.86255  0.69525  0.69867  1.0000
  H   H1821     1.0  0.61801  0.72643  0.82080  1.0000
  H   H1822     1.0  0.58270  0.62871  0.86063  1.0000
  C   C1510     1.0  0.63043  0.73472  0.03610  1.0000
  S   S412      1.0  0.55219  0.68106  0.92131  1.0000
  C   C1511     1.0  0.52403  0.71985  0.01628  1.0000
  H   H1823     1.0  0.78389  0.71564  0.96848  1.0000
  C   C1512     1.0  0.81096  0.59622  0.61814  1.0000
  H   H1824     1.0  0.83606  0.57631  0.81331  1.0000
  S   S413      1.0  0.90735  0.65641  0.66591  1.0000
  H   H1825     1.0  0.78874  0.65580  0.83075  1.0000
  H   H1826     1.0  0.45721  0.51746  0.91363  1.0000
  H   H1827     1.0  0.76097  0.57988  0.96615  1.0000
  S   S414      1.0  0.51484  0.71427  0.77181  1.0000
  C   C1513     1.0  0.81841  0.74316  0.76627  1.0000
  C   C1514     1.0  0.86766  0.61202  0.74932  1.0000
  S   S415      1.0  0.83455  0.64477  0.62743  1.0000
  H   H1828     1.0  0.46476  0.64148  0.02242  1.0000
  Fe  Fe209     1.0  0.50457  0.67520  0.81217  1.0000
  Fe  Fe210     1.0  0.69274  0.65163  0.95997  1.0000
  H   H1829     1.0  0.68827  0.73301  0.93344  1.0000
  H   H1830     1.0  0.79617  0.69029  0.89172  1.0000
  S   S416      1.0  0.70295  0.69285  0.94606  1.0000
  H   H1831     1.0  0.52792  0.55016  0.89709  1.0000
  H   H1832     1.0  0.46398  0.70224  0.68790  1.0000
  C   C1515     1.0  0.46317  0.61567  0.08277  1.0000
  S   S417      1.0  0.85699  0.71904  0.82781  1.0000
  C   C1516     1.0  0.84978  0.57467  0.01062  1.0000
  C   C1517     1.0  0.58842  0.54497  0.84193  1.0000
  C   C1518     1.0  0.52364  0.64942  0.64969  1.0000
  H   H1833     1.0  0.72408  0.51733  0.91001  1.0000
  H   H1834     1.0  0.56783  0.71101  0.99726  1.0000
  H   H1835     1.0  0.84975  0.56649  0.93541  1.0000
  H   H1836     1.0  0.52360  0.59484  0.02049  1.0000
  S   S418      1.0  0.71488  0.65422  0.86770  1.0000
  C   C1519     1.0  0.67692  0.58790  0.00518  1.0000
  H   H1837     1.0  0.75908  0.61662  0.97111  1.0000
  S   S419      1.0  0.83443  0.51144  0.74719  1.0000
  C   C1520     1.0  0.62037  0.73260  0.85632  1.0000
  C   C1521     1.0  0.71636  0.73871  0.74767  1.0000
  C   C1522     1.0  0.64313  0.76032  0.03606  1.0000
  Fe  Fe211     1.0  0.51382  0.54619  0.67328  1.0000
  C   C1523     1.0  0.81394  0.59994  0.70221  1.0000
  H   H1838     1.0  0.93635  0.61785  0.84848  1.0000
  C   C1524     1.0  0.64228  0.65762  0.73071  1.0000
  Fe  Fe212     1.0  0.47626  0.51413  0.63288  1.0000
  H   H1839     1.0  0.51372  0.64615  0.89216  1.0000
  Fe  Fe213     1.0  0.86881  0.69619  0.98798  1.0000
  H   H1840     1.0  0.64492  0.64040  0.72325  1.0000
  C   C1525     1.0  0.91249  0.65272  0.03744  1.0000
  C   C1526     1.0  0.50371  0.59375  0.97185  1.0000
  H   H1841     1.0  0.60810  0.72257  0.06500  1.0000
  H   H1842     1.0  0.45787  0.71758  0.74292  1.0000
  C   C1527     1.0  0.90690  0.59794  0.74869  1.0000
  C   C1528     1.0  0.53627  0.63280  0.97733  1.0000
  C   C1529     1.0  0.50131  0.60847  0.93516  1.0000
  C   C1530     1.0  0.56402  0.63261  0.78661  1.0000
  H   H1843     1.0  0.87490  0.69085  0.71412  1.0000
  H   H1844     1.0  0.79923  0.75167  0.89700  1.0000
  C   C1531     1.0  0.68751  0.75478  0.61945  1.0000
  H   H1845     1.0  0.58659  0.61026  0.65064  1.0000
  C   C1532     1.0  0.82464  0.58531  0.97296  1.0000
  C   C1533     1.0  0.51579  0.63520  0.92066  1.0000
  S   S420      1.0  0.68198  0.68509  0.85403  1.0000
  H   H1846     1.0  0.89859  0.63230  0.05434  1.0000
  C   C1534     1.0  0.82356  0.59706  0.05659  1.0000
  H   H1847     1.0  0.55002  0.64212  0.99326  1.0000
  C   C1535     1.0  0.54448  0.62045  0.77012  1.0000
  H   H1848     1.0  0.84854  0.70107  0.73185  1.0000
  H   H1849     1.0  0.84880  0.69779  0.62147  1.0000
  C   C1536     1.0  0.73466  0.53779  0.90385  1.0000
  H   H1850     1.0  0.92345  0.54852  0.84465  1.0000
  C   C1537     1.0  0.90262  0.66921  0.02756  1.0000
  S   S421      1.0  0.78672  0.52564  0.70313  1.0000
  H   H1851     1.0  0.91177  0.61971  0.83281  1.0000
  H   H1852     1.0  0.79323  0.63333  0.79184  1.0000
  C   C1538     1.0  0.61195  0.67473  0.78458  1.0000
  Fe  Fe214     1.0  0.50905  0.72285  0.85345  1.0000
  H   H1853     1.0  0.65117  0.60265  0.74130  1.0000
  H   H1854     1.0  0.89720  0.52357  0.99312  1.0000
  H   H1855     1.0  0.85855  0.57152  0.62930  1.0000
  H   H1856     1.0  0.81810  0.62351  0.83394  1.0000
  S   S422      1.0  0.79580  0.72022  0.09742  1.0000
  H   H1857     1.0  0.53573  0.71837  0.97275  1.0000
  H   H1858     1.0  0.75477  0.70660  0.03840  1.0000
  Fe  Fe215     1.0  0.81545  0.65102  0.00735  1.0000
  S   S423      1.0  0.82668  0.67119  0.06600  1.0000
  N   N103      1.0  0.63106  0.56355  0.74131  1.0000
  H   H1859     1.0  0.77764  0.75016  0.04827  1.0000
  H   H1860     1.0  0.75989  0.69334  0.87657  1.0000
  C   C1539     1.0  0.94054  0.66255  0.02422  1.0000
  S   S424      1.0  0.49494  0.68275  0.89632  1.0000
  Fe  Fe216     1.0  0.47419  0.56267  0.66103  1.0000
  C   C1540     1.0  0.83092  0.72230  0.82041  1.0000
  H   H1861     1.0  0.91766  0.72580  0.78021  1.0000
  S   S425      1.0  0.52820  0.54194  0.73361  1.0000
  H   H1862     1.0  0.90175  0.61986  0.94628  1.0000
  C   C1541     1.0  0.58816  0.56959  0.76973  1.0000
  C   C1542     1.0  0.60272  0.55949  0.78467  1.0000
  C   C1543     1.0  0.76330  0.71564  0.99319  1.0000
  H   H1863     1.0  0.60187  0.73573  0.88189  1.0000
  C   C1544     1.0  0.58035  0.61675  0.68850  1.0000
  C   C1545     1.0  0.94883  0.70528  0.99102  1.0000
  S   S426      1.0  0.65047  0.63874  0.96853  1.0000
  C   C1546     1.0  0.80477  0.62753  0.87249  1.0000
  S   S427      1.0  0.86636  0.55189  0.82750  1.0000
  C   C1547     1.0  0.55261  0.61239  0.72127  1.0000
  C   C1548     1.0  0.89763  0.73992  0.64991  1.0000
  H   H1864     1.0  0.61630  0.52840  0.71975  1.0000
  H   H1865     1.0  0.74929  0.70321  0.97901  1.0000
  S   S428      1.0  0.52051  0.58321  0.62985  1.0000
  S   S429      1.0  0.85894  0.67352  0.93119  1.0000
  C   C1549     1.0  0.77940  0.75284  0.92295  1.0000
  C   C1550     1.0  0.64671  0.72481  0.99915  1.0000
  C   C1551     1.0  0.45632  0.69908  0.73396  1.0000
  H   H1866     1.0  0.55101  0.53020  0.92492  1.0000
  C   C1552     1.0  0.75915  0.62466  0.93373  1.0000
  C   C1553     1.0  0.59252  0.63780  0.75393  1.0000
  H   H1867     1.0  0.55675  0.63809  0.82515  1.0000
  H   H1868     1.0  0.67200  0.59507  0.68021  1.0000
  Fe  Fe217     1.0  0.81339  0.69816  0.04168  1.0000
  H   H1869     1.0  0.59749  0.53626  0.85754  1.0000
  C   C1554     1.0  0.74003  0.74324  0.01660  1.0000
  C   C1555     1.0  0.57956  0.56307  0.97080  1.0000
  H   H1870     1.0  0.50590  0.70039  0.04133  1.0000
  C   C1556     1.0  0.74184  0.55473  0.85614  1.0000
  H   H1871     1.0  0.78463  0.53582  0.99916  1.0000
  C   C1557     1.0  0.66132  0.56109  0.02275  1.0000
  S   S430      1.0  0.48125  0.74090  0.89291  1.0000
  H   H1872     1.0  0.84893  0.67678  0.69552  1.0000
  H   H1873     1.0  0.61753  0.55442  0.68119  1.0000
  C   C1558     1.0  0.52244  0.68554  0.60805  1.0000
  C   C1559     1.0  0.60425  0.63357  0.82567  1.0000
  H   H1874     1.0  0.80746  0.52174  0.97360  1.0000
  S   S431      1.0  0.47915  0.64073  0.79500  1.0000
  H   H1875     1.0  0.53607  0.69027  0.06244  1.0000
  C   C1560     1.0  0.91494  0.74126  0.67272  1.0000
  H   H1876     1.0  0.81855  0.58503  0.94149  1.0000
  H   H1877     1.0  0.47296  0.74391  0.62918  1.0000
  C   C1561     1.0  0.69286  0.75606  0.82014  1.0000
  H   H1878     1.0  0.59550  0.59884  0.91356  1.0000
  C   C1562     1.0  0.52424  0.72782  0.10048  1.0000
  C   C1563     1.0  0.92696  0.67111  0.84078  1.0000
  H   H1879     1.0  0.80415  0.61751  0.90854  1.0000
  C   C1564     1.0  0.53341  0.64747  0.94141  1.0000
  H   H1880     1.0  0.75826  0.62978  0.83763  1.0000
  H   H1881     1.0  0.49262  0.56073  0.84906  1.0000
  C   C1565     1.0  0.56173  0.56657  0.81009  1.0000
  Fe  Fe218     1.0  0.84283  0.69960  0.91603  1.0000
  H   H1882     1.0  0.89489  0.59405  0.64331  1.0000
  C   C1566     1.0  0.67445  0.73993  0.76015  1.0000
  C   C1567     1.0  0.90149  0.63535  0.92232  1.0000
  C   C1568     1.0  0.76246  0.59137  0.88773  1.0000
  H   H1883     1.0  0.84690  0.72293  0.65355  1.0000
  H   H1884     1.0  0.88952  0.51987  0.83170  1.0000
  H   H1885     1.0  0.94864  0.66868  0.91240  1.0000
  H   H1886     1.0  0.93833  0.73256  0.84138  1.0000
  C   C1569     1.0  0.47220  0.55150  0.85237  1.0000
  C   C1570     1.0  0.64990  0.54758  0.07849  1.0000
  H   H1887     1.0  0.80196  0.56500  0.75716  1.0000
  C   C1571     1.0  0.93214  0.71459  0.83073  1.0000
  C   C1572     1.0  0.86188  0.71673  0.62397  1.0000
  H   H1888     1.0  0.53587  0.51381  0.80610  1.0000
  S   S432      1.0  0.85601  0.72390  0.96666  1.0000
  Fe  Fe219     1.0  0.66225  0.68025  0.94745  1.0000
  H   H1889     1.0  0.90634  0.64973  0.79757  1.0000
  S   S433      1.0  0.76432  0.72748  0.79040  1.0000
  S   S434      1.0  0.69936  0.63465  0.02355  1.0000
  C   C1573     1.0  0.68212  0.60111  0.04271  1.0000
  H   H1890     1.0  0.88859  0.54055  0.90261  1.0000
  H   H1891     1.0  0.94482  0.53314  0.90958  1.0000
  H   H1892     1.0  0.85256  0.61755  0.74982  1.0000
  H   H1893     1.0  0.65702  0.66812  0.74524  1.0000
  C   C1574     1.0  0.52133  0.60596  0.99272  1.0000
  S   S435      1.0  0.63046  0.69345  0.99645  1.0000
  C   C1575     1.0  0.85838  0.58866  0.78504  1.0000
  H   H1894     1.0  0.48801  0.59928  0.91828  1.0000
  H   H1895     1.0  0.80690  0.75599  0.98008  1.0000
  H   H1896     1.0  0.76713  0.64548  0.92936  1.0000
  H   H1897     1.0  0.61821  0.71624  0.88305  1.0000
  N   N104      1.0  0.92823  0.64975  0.86760  1.0000
  H   H1898     1.0  0.61861  0.53442  0.97000  1.0000
  H   H1899     1.0  0.50970  0.69451  0.61017  1.0000
  C   C1576     1.0  0.80421  0.57355  0.71868  1.0000
  C   C1577     1.0  0.78681  0.75714  0.00186  1.0000
  C   C1578     1.0  0.84225  0.57480  0.96954  1.0000
  C   C1579     1.0  0.74175  0.54715  0.94294  1.0000
  C   C1580     1.0  0.75549  0.58115  0.84795  1.0000
  S   S436      1.0  0.48424  0.56026  0.99095  1.0000
  H   H1900     1.0  0.60983  0.56098  0.06638  1.0000
  C   C1581     1.0  0.63471  0.57004  0.91102  1.0000
  S   S437      1.0  0.79054  0.52620  0.84499  1.0000
  C   C1582     1.0  0.65008  0.59117  0.71098  1.0000
  H   H1901     1.0  0.64952  0.55349  0.66371  1.0000
  C   C1583     1.0  0.78188  0.70674  0.84807  1.0000
  N   N105      1.0  0.64752  0.75590  0.83687  1.0000
  Fe  Fe220     1.0  0.82898  0.52254  0.82669  1.0000
  H   H1902     1.0  0.81577  0.64840  0.86775  1.0000
  C   C1584     1.0  0.80239  0.70512  0.85709  1.0000
  H   H1903     1.0  0.62127  0.63226  0.67669  1.0000
  H   H1904     1.0  0.73002  0.75340  0.80454  1.0000
  H   H1905     1.0  0.58174  0.75696  0.06848  1.0000
  C   C1585     1.0  0.46114  0.60794  0.63643  1.0000
  C   C1586     1.0  0.71464  0.74987  0.79167  1.0000
  C   C1587     1.0  0.78692  0.51248  0.08408  1.0000
  C   C1588     1.0  0.54684  0.51202  0.76403  1.0000
  C   C1589     1.0  0.68959  0.74703  0.07757  1.0000
  H   H1906     1.0  0.84296  0.71675  0.09302  1.0000
  H   H1907     1.0  0.78801  0.53137  0.08881  1.0000
  H   H1908     1.0  0.94618  0.52220  0.84928  1.0000
  H   H1909     1.0  0.45203  0.70427  0.82837  1.0000
  C   C1590     1.0  0.45222  0.52698  0.88842  1.0000
  H   H1910     1.0  0.67028  0.74851  0.09990  1.0000
  H   H1911     1.0  0.82470  0.75798  0.73124  1.0000
  N   N106      1.0  0.90486  0.51531  0.91320  1.0000
  C   C1591     1.0  0.86932  0.75308  0.09566  1.0000
  H   H1912     1.0  0.74473  0.51953  0.09070  1.0000
  H   H1913     1.0  0.56304  0.64836  0.60685  1.0000
  H   H1914     1.0  0.47805  0.63072  0.08974  1.0000
  C   C1592     1.0  0.45569  0.62168  0.04486  1.0000
  Fe  Fe221     1.0  0.79401  0.51195  0.76947  1.0000
  Fe  Fe222     1.0  0.66552  0.65461  0.54284  1.0000
  H   H1915     1.0  0.85019  0.75449  0.24588  1.0000
  S   S438      1.0  0.89227  0.69509  0.48351  1.0000
  C   C1593     1.0  0.83117  0.63181  0.18952  1.0000
  C   C1594     1.0  0.91714  0.57450  0.27053  1.0000
  Fe  Fe223     1.0  0.71815  0.70377  0.46204  1.0000
  H   H1916     1.0  0.56471  0.53537  0.14235  1.0000
  C   C1595     1.0  0.80922  0.58058  0.37029  1.0000
  H   H1917     1.0  0.66849  0.70604  0.10659  1.0000
  C   C1596     1.0  0.92425  0.62008  0.40618  1.0000
  H   H1918     1.0  0.82141  0.75511  0.47929  1.0000
  H   H1919     1.0  0.53903  0.58362  0.31444  1.0000
  H   H1920     1.0  0.90246  0.56853  0.31568  1.0000
  H   H1921     1.0  0.48015  0.59475  0.37647  1.0000
  C   C1597     1.0  0.56103  0.55228  0.14687  1.0000
  H   H1922     1.0  0.45190  0.75627  0.42856  1.0000
  H   H1923     1.0  0.92470  0.64937  0.14893  1.0000
  H   H1924     1.0  0.58368  0.56933  0.39223  1.0000
  C   C1598     1.0  0.69759  0.51754  0.23715  1.0000
  H   H1925     1.0  0.90335  0.63286  0.29754  1.0000
  H   H1926     1.0  0.93305  0.67465  0.45366  1.0000
  C   C1599     1.0  0.65130  0.55479  0.51693  1.0000
  H   H1927     1.0  0.91587  0.61933  0.37842  1.0000
  H   H1928     1.0  0.87405  0.72992  0.58066  1.0000
  H   H1929     1.0  0.94676  0.66841  0.22870  1.0000
  H   H1930     1.0  0.80118  0.64530  0.23245  1.0000
  H   H1931     1.0  0.50689  0.56417  0.43970  1.0000
  H   H1932     1.0  0.76828  0.53472  0.38187  1.0000
  H   H1933     1.0  0.59998  0.55448  0.16786  1.0000
  H   H1934     1.0  0.72233  0.75019  0.55765  1.0000
  H   H1935     1.0  0.60731  0.56117  0.33841  1.0000
  S   S439      1.0  0.50219  0.67751  0.49008  1.0000
  H   H1936     1.0  0.62802  0.62522  0.10216  1.0000
  H   H1937     1.0  0.91427  0.72177  0.56016  1.0000
  H   H1938     1.0  0.65216  0.58272  0.37342  1.0000
  H   H1939     1.0  0.86556  0.75281  0.35760  1.0000
  H   H1940     1.0  0.56086  0.75111  0.49102  1.0000
  C   C1600     1.0  0.70610  0.54605  0.13876  1.0000
  H   H1941     1.0  0.79890  0.54701  0.31330  1.0000
  C   C1601     1.0  0.87240  0.57892  0.58230  1.0000
  Fe  Fe224     1.0  0.47096  0.68180  0.47303  1.0000
  H   H1942     1.0  0.47399  0.61835  0.41137  1.0000
  S   S440      1.0  0.47939  0.54801  0.58581  1.0000
  H   H1943     1.0  0.54987  0.53481  0.46327  1.0000
  C   C1602     1.0  0.46756  0.59754  0.41784  1.0000
  C   C1603     1.0  0.80355  0.59546  0.29538  1.0000
  H   H1944     1.0  0.87069  0.62718  0.30315  1.0000
  H   H1945     1.0  0.54453  0.54791  0.19160  1.0000
  C   C1604     1.0  0.94588  0.58225  0.24972  1.0000
  H   H1946     1.0  0.58402  0.74059  0.56620  1.0000
  C   C1605     1.0  0.57599  0.62056  0.45717  1.0000
  Fe  Fe225     1.0  0.56236  0.51258  0.30280  1.0000
  S   S441      1.0  0.87567  0.75085  0.45265  1.0000
  C   C1606     1.0  0.86992  0.75432  0.31354  1.0000
  H   H1947     1.0  0.92013  0.62856  0.20515  1.0000
  C   C1607     1.0  0.71608  0.51332  0.29949  1.0000
  H   H1948     1.0  0.61848  0.58812  0.15547  1.0000
  C   C1608     1.0  0.60865  0.64877  0.48194  1.0000
  H   H1949     1.0  0.71347  0.73087  0.32233  1.0000
  C   C1609     1.0  0.55118  0.69576  0.56443  1.0000
  S   S442      1.0  0.47674  0.72055  0.44327  1.0000
  C   C1610     1.0  0.78059  0.54998  0.34118  1.0000
  C   C1611     1.0  0.55737  0.59872  0.15024  1.0000
  H   H1950     1.0  0.88389  0.60450  0.48076  1.0000
  C   C1612     1.0  0.77112  0.65728  0.40063  1.0000
  H   H1951     1.0  0.92092  0.75011  0.46558  1.0000
  C   C1613     1.0  0.50138  0.60441  0.44633  1.0000
  S   S443      1.0  0.64089  0.70049  0.43308  1.0000
  H   H1952     1.0  0.59266  0.70863  0.45331  1.0000
  H   H1953     1.0  0.52501  0.75026  0.33345  1.0000
  H   H1954     1.0  0.60895  0.68217  0.37767  1.0000
  C   C1614     1.0  0.52675  0.54391  0.31810  1.0000
  H   H1955     1.0  0.61651  0.58873  0.45113  1.0000
  H   H1956     1.0  0.49355  0.51950  0.44853  1.0000
  Fe  Fe226     1.0  0.84998  0.66025  0.53601  1.0000
  H   H1957     1.0  0.85798  0.70674  0.18260  1.0000
  H   H1958     1.0  0.67664  0.59761  0.12595  1.0000
  C   C1615     1.0  0.52196  0.75451  0.25902  1.0000
  H   H1959     1.0  0.45751  0.72893  0.56170  1.0000
  H   H1960     1.0  0.50506  0.70888  0.12464  1.0000
  S   S444      1.0  0.64499  0.61252  0.58254  1.0000
  C   C1616     1.0  0.45944  0.64365  0.59430  1.0000
  C   C1617     1.0  0.89211  0.64248  0.29023  1.0000
  H   H1961     1.0  0.60184  0.75749  0.49274  1.0000
  C   C1618     1.0  0.67617  0.56713  0.46408  1.0000
  S   S445      1.0  0.55168  0.58978  0.46581  1.0000
  H   H1962     1.0  0.88808  0.68867  0.59632  1.0000
  H   H1963     1.0  0.81357  0.60489  0.57930  1.0000
  H   H1964     1.0  0.58011  0.56587  0.48598  1.0000
  H   H1965     1.0  0.55906  0.70040  0.46103  1.0000
  H   H1966     1.0  0.92697  0.74488  0.36035  1.0000
  Fe  Fe227     1.0  0.85926  0.54266  0.20361  1.0000
  H   H1967     1.0  0.89034  0.65496  0.31912  1.0000
  C   C1619     1.0  0.73468  0.75520  0.15944  1.0000
  C   C1620     1.0  0.60330  0.66607  0.40900  1.0000
  H   H1968     1.0  0.69407  0.62873  0.46933  1.0000
  H   H1969     1.0  0.63925  0.53423  0.53084  1.0000
  H   H1970     1.0  0.64138  0.55358  0.41900  1.0000
  C   C1621     1.0  0.60479  0.64581  0.11554  1.0000
  H   H1971     1.0  0.89000  0.62521  0.20232  1.0000
  H   H1972     1.0  0.58265  0.60828  0.52198  1.0000
  H   H1973     1.0  0.71905  0.53209  0.30837  1.0000
  N   N107      1.0  0.60743  0.55663  0.41632  1.0000
  C   C1622     1.0  0.79427  0.66402  0.40792  1.0000
  C   C1623     1.0  0.57878  0.64477  0.13201  1.0000
  C   C1624     1.0  0.79471  0.61380  0.28887  1.0000
  C   C1625     1.0  0.50106  0.63801  0.54645  1.0000
  C   C1626     1.0  0.52551  0.56669  0.30896  1.0000
  C   C1627     1.0  0.46487  0.56043  0.46586  1.0000
  C   C1628     1.0  0.48509  0.55158  0.45344  1.0000
  H   H1974     1.0  0.92667  0.62131  0.59247  1.0000
  Fe  Fe228     1.0  0.83683  0.66028  0.44195  1.0000
  H   H1975     1.0  0.74782  0.57275  0.38219  1.0000
  C   C1629     1.0  0.80832  0.63155  0.23652  1.0000
  C   C1630     1.0  0.94927  0.74875  0.34168  1.0000
  H   H1976     1.0  0.73960  0.54892  0.21062  1.0000
  C   C1631     1.0  0.82433  0.74180  0.10237  1.0000
  H   H1977     1.0  0.82559  0.69396  0.41784  1.0000
  H   H1978     1.0  0.57717  0.66231  0.13025  1.0000
  H   H1979     1.0  0.89091  0.75523  0.28727  1.0000
  N   N108      1.0  0.58733  0.57592  0.13009  1.0000
  C   C1632     1.0  0.60465  0.56999  0.37405  1.0000
  H   H1980     1.0  0.90182  0.70873  0.10651  1.0000
  H   H1981     1.0  0.77845  0.73127  0.21521  1.0000
  C   C1633     1.0  0.50896  0.52201  0.31152  1.0000
  Fe  Fe229     1.0  0.87001  0.71090  0.45774  1.0000
  C   C1634     1.0  0.58373  0.59917  0.13271  1.0000
  C   C1635     1.0  0.76154  0.72825  0.25870  1.0000
  H   H1982     1.0  0.91922  0.52739  0.23779  1.0000
  H   H1983     1.0  0.66516  0.51648  0.16095  1.0000
  H   H1984     1.0  0.61860  0.65119  0.50661  1.0000
  H   H1985     1.0  0.55277  0.55372  0.11890  1.0000
  H   H1986     1.0  0.62027  0.59067  0.35639  1.0000
  H   H1987     1.0  0.87480  0.62460  0.56021  1.0000
  S   S446      1.0  0.80621  0.64202  0.41324  1.0000
  N   N109      1.0  0.90755  0.65749  0.23014  1.0000
  C   C1636     1.0  0.85572  0.68290  0.24797  1.0000
  H   H1988     1.0  0.92044  0.58960  0.58398  1.0000
  H   H1989     1.0  0.60373  0.55841  0.49732  1.0000
  C   C1637     1.0  0.60172  0.56787  0.46471  1.0000
  C   C1638     1.0  0.60729  0.62339  0.11611  1.0000
  H   H1990     1.0  0.79911  0.56663  0.41175  1.0000
  C   C1639     1.0  0.90512  0.68493  0.16202  1.0000
  H   H1991     1.0  0.45793  0.58553  0.14012  1.0000
  H   H1992     1.0  0.85375  0.73594  0.31570  1.0000
  N   N110      1.0  0.78934  0.57594  0.34966  1.0000
  H   H1993     1.0  0.82811  0.57879  0.34054  1.0000
  C   C1640     1.0  0.79864  0.70639  0.40853  1.0000
  C   C1641     1.0  0.89332  0.67045  0.21798  1.0000
  H   H1994     1.0  0.75294  0.56071  0.43480  1.0000
  H   H1995     1.0  0.95022  0.52757  0.27365  1.0000
  H   H1996     1.0  0.83560  0.58377  0.24884  1.0000
  H   H1997     1.0  0.53521  0.73114  0.12487  1.0000
  C   C1642     1.0  0.48652  0.65157  0.54795  1.0000
  H   H1998     1.0  0.66873  0.51821  0.34509  1.0000
  H   H1999     1.0  0.91958  0.58372  0.14517  1.0000
  H   H2000     1.0  0.53819  0.58122  0.16427  1.0000
  C   C1643     1.0  0.59754  0.57210  0.16809  1.0000
  S   S447      1.0  0.69976  0.68373  0.55263  1.0000
  C   C1644     1.0  0.84063  0.61442  0.19470  1.0000
  S   S448      1.0  0.68797  0.54867  0.42133  1.0000
  C   C1645     1.0  0.48813  0.61595  0.58990  1.0000
  H   H2001     1.0  0.50573  0.59843  0.47861  1.0000
  H   H2002     1.0  0.73620  0.51570  0.26341  1.0000
  H   H2003     1.0  0.64311  0.55401  0.35165  1.0000
  C   C1646     1.0  0.49175  0.52337  0.29133  1.0000
  H   H2004     1.0  0.74592  0.57273  0.12747  1.0000
  C   C1647     1.0  0.54881  0.73281  0.52506  1.0000
  H   H2005     1.0  0.76677  0.72193  0.28906  1.0000
  N   N111      1.0  0.89710  0.60437  0.56433  1.0000
  C   C1648     1.0  0.58830  0.62431  0.49048  1.0000
  S   S449      1.0  0.63872  0.67429  0.57077  1.0000
  H   H2006     1.0  0.66235  0.75796  0.54180  1.0000
  S   S450      1.0  0.47223  0.54916  0.24920  1.0000
  H   H2007     1.0  0.71056  0.60355  0.40543  1.0000
  H   H2008     1.0  0.58717  0.68818  0.53367  1.0000
  C   C1649     1.0  0.73809  0.74564  0.20161  1.0000
  H   H2009     1.0  0.92433  0.68642  0.12732  1.0000
  C   C1650     1.0  0.91659  0.61268  0.50222  1.0000
  H   H2010     1.0  0.72626  0.72525  0.22096  1.0000
  H   H2011     1.0  0.87926  0.56452  0.56685  1.0000
  C   C1651     1.0  0.81344  0.75844  0.56214  1.0000
  H   H2012     1.0  0.45459  0.58161  0.55136  1.0000
  H   H2013     1.0  0.62217  0.55928  0.59250  1.0000
  H   H2014     1.0  0.84172  0.64567  0.14911  1.0000
  C   C1652     1.0  0.55766  0.52103  0.46061  1.0000
  C   C1653     1.0  0.88692  0.62335  0.58004  1.0000
  H   H2015     1.0  0.53479  0.62041  0.16287  1.0000
  S   S451      1.0  0.76422  0.72235  0.39820  1.0000
  H   H2016     1.0  0.81668  0.60009  0.37624  1.0000
  H   H2017     1.0  0.50749  0.58573  0.28155  1.0000
  H   H2018     1.0  0.60690  0.73151  0.51257  1.0000
  S   S452      1.0  0.83074  0.54632  0.17585  1.0000
  C   C1654     1.0  0.80798  0.68860  0.41166  1.0000
  H   H2019     1.0  0.58254  0.57033  0.21250  1.0000
  C   C1655     1.0  0.68128  0.52329  0.17240  1.0000
  C   C1656     1.0  0.82724  0.59665  0.24683  1.0000
  S   S453      1.0  0.88913  0.54120  0.11881  1.0000
  C   C1657     1.0  0.94643  0.62398  0.47697  1.0000
  S   S454      1.0  0.55205  0.54344  0.33331  1.0000
  C   C1658     1.0  0.91072  0.63953  0.19504  1.0000
  C   C1659     1.0  0.49150  0.54644  0.27966  1.0000
  Fe  Fe230     1.0  0.89668  0.67667  0.41298  1.0000
  S   S455      1.0  0.68594  0.67299  0.45048  1.0000
  C   C1660     1.0  0.93592  0.67697  0.21648  1.0000
  C   C1661     1.0  0.58691  0.52904  0.43706  1.0000
  H   H2020     1.0  0.81798  0.74316  0.57015  1.0000
  H   H2021     1.0  0.54114  0.73775  0.56592  1.0000
  N   N112      1.0  0.75864  0.75185  0.26506  1.0000
  H   H2022     1.0  0.80871  0.72499  0.41368  1.0000
  C   C1662     1.0  0.73288  0.74551  0.31989  1.0000
  C   C1663     1.0  0.76368  0.57603  0.39504  1.0000
  H   H2023     1.0  0.64778  0.55055  0.15776  1.0000
  C   C1664     1.0  0.63729  0.56183  0.38878  1.0000
  C   C1665     1.0  0.86779  0.69683  0.19253  1.0000
  C   C1666     1.0  0.55508  0.62126  0.14981  1.0000
  H   H2024     1.0  0.52213  0.64419  0.51101  1.0000
  H   H2025     1.0  0.72098  0.74222  0.14683  1.0000
  Fe  Fe231     1.0  0.67451  0.70484  0.57303  1.0000
  H   H2026     1.0  0.49920  0.60518  0.58678  1.0000
  Fe  Fe232     1.0  0.46713  0.70536  0.37843  1.0000
  C   C1667     1.0  0.65705  0.59563  0.53542  1.0000
  S   S456      1.0  0.93701  0.67930  0.34568  1.0000
  H   H2027     1.0  0.82349  0.75976  0.33816  1.0000
  H   H2028     1.0  0.76016  0.63819  0.39854  1.0000
  H   H2029     1.0  0.45839  0.61031  0.51572  1.0000
  H   H2030     1.0  0.74172  0.71162  0.26768  1.0000
  S   S457      1.0  0.60473  0.51354  0.26183  1.0000
  C   C1668     1.0  0.61599  0.66976  0.44178  1.0000
  C   C1669     1.0  0.45297  0.58997  0.51676  1.0000
  C   C1670     1.0  0.50765  0.56786  0.29041  1.0000
  Fe  Fe233     1.0  0.52527  0.56662  0.55654  1.0000
  C   C1671     1.0  0.65597  0.56078  0.11518  1.0000
  Fe  Fe234     1.0  0.66173  0.69488  0.47893  1.0000
  C   C1672     1.0  0.72275  0.54087  0.20179  1.0000
  C   C1673     1.0  0.90750  0.57459  0.23283  1.0000
  C   C1674     1.0  0.64167  0.56899  0.55219  1.0000
  C   C1675     1.0  0.59092  0.73825  0.52275  1.0000
  H   H2031     1.0  0.73396  0.73788  0.35601  1.0000
  H   H2032     1.0  0.77739  0.61490  0.32361  1.0000
  H   H2033     1.0  0.76717  0.54638  0.32198  1.0000
  N   N113      1.0  0.47181  0.58763  0.46164  1.0000
  H   H2034     1.0  0.53041  0.72058  0.52121  1.0000
  C   C1676     1.0  0.76161  0.67516  0.39776  1.0000
  C   C1677     1.0  0.56536  0.68164  0.56541  1.0000
  H   H2035     1.0  0.83639  0.68193  0.28142  1.0000
  S   S458      1.0  0.46477  0.66764  0.40396  1.0000
  C   C1678     1.0  0.58361  0.64137  0.41608  1.0000
  H   H2036     1.0  0.58674  0.73290  0.42882  1.0000
  S   S459      1.0  0.87771  0.69524  0.38283  1.0000
  H   H2037     1.0  0.93456  0.69164  0.23969  1.0000
  S   S460      1.0  0.82733  0.67739  0.51496  1.0000
  H   H2038     1.0  0.85759  0.65940  0.30449  1.0000
  S   S461      1.0  0.87180  0.56540  0.25806  1.0000
  S   S462      1.0  0.48914  0.72711  0.28701  1.0000
  C   C1679     1.0  0.90612  0.61149  0.46492  1.0000
  H   H2039     1.0  0.74351  0.66992  0.39285  1.0000
  H   H2040     1.0  0.50593  0.62472  0.44370  1.0000
  H   H2041     1.0  0.57409  0.63845  0.39020  1.0000
  H   H2042     1.0  0.95025  0.68707  0.17053  1.0000
  Fe  Fe235     1.0  0.47629  0.52996  0.17937  1.0000
  H   H2043     1.0  0.85829  0.57937  0.56721  1.0000
  C   C1680     1.0  0.47765  0.52570  0.45851  1.0000
  N   N114      1.0  0.56638  0.72012  0.51985  1.0000
  S   S463      1.0  0.52273  0.53120  0.59709  1.0000
  C   C1681     1.0  0.77559  0.69977  0.40135  1.0000
  C   C1682     1.0  0.89246  0.69787  0.14968  1.0000
  S   S464      1.0  0.62674  0.51455  0.10249  1.0000
  H   H2044     1.0  0.85848  0.61469  0.15811  1.0000
  C   C1683     1.0  0.86815  0.66984  0.26074  1.0000
  C   C1684     1.0  0.92655  0.58246  0.17459  1.0000
  C   C1685     1.0  0.72673  0.55484  0.15352  1.0000
  H   H2045     1.0  0.90481  0.64285  0.56636  1.0000
  C   C1686     1.0  0.69128  0.59388  0.44623  1.0000
  C   C1687     1.0  0.68184  0.60815  0.48222  1.0000
  S   S465      1.0  0.69563  0.72727  0.48325  1.0000
  H   H2046     1.0  0.76884  0.59436  0.40678  1.0000
  H   H2047     1.0  0.51692  0.60439  0.40431  1.0000
  S   S466      1.0  0.85640  0.64039  0.46710  1.0000
  H   H2048     1.0  0.61658  0.51350  0.41958  1.0000
  C   C1688     1.0  0.57670  0.71536  0.46336  1.0000
  C   C1689     1.0  0.91054  0.60226  0.59702  1.0000
  H   H2049     1.0  0.62326  0.66419  0.10077  1.0000
  C   C1690     1.0  0.45190  0.59022  0.11094  1.0000
  H   H2050     1.0  0.95080  0.73223  0.32615  1.0000
  H   H2051     1.0  0.68169  0.76130  0.44368  1.0000
  H   H2052     1.0  0.51705  0.74257  0.10203  1.0000
  H   H2053     1.0  0.70925  0.55701  0.10143  1.0000
  C   C1691     1.0  0.48211  0.90737  0.74342  1.0000
  H   H2054     1.0  0.53943  0.98924  0.96198  1.0000
  H   H2055     1.0  0.66650  0.88540  0.85742  1.0000
  S   S467      1.0  0.81351  0.87687  0.82621  1.0000
  C   C1692     1.0  0.49413  0.76562  0.92027  1.0000
  S   S468      1.0  0.66183  0.91986  0.63283  1.0000
  C   C1693     1.0  0.52302  0.85298  0.76474  1.0000
  C   C1694     1.0  0.92609  0.00154  0.60702  1.0000
  H   H2056     1.0  0.83752  0.91658  0.61058  1.0000
  H   H2057     1.0  0.73345  0.97555  0.88308  1.0000
  H   H2058     1.0  0.45713  0.98935  0.86121  1.0000
  C   C1695     1.0  0.51778  0.99884  0.03647  1.0000
  Fe  Fe236     1.0  0.77728  0.85672  0.81233  1.0000
  C   C1696     1.0  0.46114  0.93178  0.90312  1.0000
  H   H2059     1.0  0.69015  0.99971  0.72603  1.0000
  H   H2060     1.0  0.56007  0.76155  0.93866  1.0000
  H   H2061     1.0  0.87794  0.92628  0.87297  1.0000
  C   C1697     1.0  0.65876  0.87814  0.90175  1.0000
  H   H2062     1.0  0.93531  0.88283  0.83039  1.0000
  H   H2063     1.0  0.53704  0.96234  0.72772  1.0000
  C   C1698     1.0  0.92627  0.98162  0.63727  1.0000
  H   H2064     1.0  0.57396  0.86063  0.00852  1.0000
  H   H2065     1.0  0.94695  0.00689  0.72738  1.0000
  C   C1699     1.0  0.53183  0.79588  0.93099  1.0000
  H   H2066     1.0  0.94759  0.95327  0.66841  1.0000
  C   C1700     1.0  0.82372  0.94846  0.85815  1.0000
  C   C1701     1.0  0.81623  0.83309  0.60958  1.0000
  H   H2067     1.0  0.56405  0.98869  0.08826  1.0000
  C   C1702     1.0  0.71139  0.85482  0.72076  1.0000
  H   H2068     1.0  0.81810  0.87998  0.02740  1.0000
  H   H2069     1.0  0.75916  0.81564  0.67986  1.0000
  H   H2070     1.0  0.72293  0.83095  0.83654  1.0000
  H   H2071     1.0  0.83839  0.80889  0.97377  1.0000
  C   C1703     1.0  0.94946  0.99407  0.96404  1.0000
  H   H2072     1.0  0.90853  0.90505  0.78351  1.0000
  H   H2073     1.0  0.67633  0.82702  0.86219  1.0000
  H   H2074     1.0  0.74732  0.94935  0.60531  1.0000
  N   N115      1.0  0.76642  0.98225  0.90159  1.0000
  C   C1704     1.0  0.58924  0.88032  0.97941  1.0000
  C   C1705     1.0  0.53463  0.82457  0.80099  1.0000
  C   C1706     1.0  0.89436  0.95132  0.61136  1.0000
  H   H2075     1.0  0.54575  0.86558  0.73302  1.0000
  C   C1707     1.0  0.78110  0.97434  0.85171  1.0000
  H   H2076     1.0  0.91521  0.84586  0.75751  1.0000
  Fe  Fe237     1.0  0.50028  0.85211  0.99756  1.0000
  H   H2077     1.0  0.77192  0.95315  0.86078  1.0000
  H   H2078     1.0  0.77998  0.98154  0.81537  1.0000
  H   H2079     1.0  0.49742  0.00466  0.93623  1.0000
  H   H2080     1.0  0.59577  0.90446  0.81371  1.0000
  H   H2081     1.0  0.46205  0.98120  0.98820  1.0000
  C   C1708     1.0  0.55593  0.98818  0.01787  1.0000
  C   C1709     1.0  0.67206  0.77612  0.99872  1.0000
  C   C1710     1.0  0.48136  0.98433  0.94861  1.0000
  H   H2082     1.0  0.91020  0.89955  0.93672  1.0000
  H   H2083     1.0  0.59953  0.82588  0.72361  1.0000
  H   H2084     1.0  0.75562  0.95028  0.96414  1.0000
  H   H2085     1.0  0.58215  0.98147  0.82629  1.0000
  C   C1711     1.0  0.92992  0.78632  0.66442  1.0000
  S   S469      1.0  0.51434  0.89133  0.00884  1.0000
  H   H2086     1.0  0.82686  0.94782  0.02787  1.0000
  N   N116      1.0  0.58188  0.98299  0.66957  1.0000
  H   H2087     1.0  0.55483  0.99195  0.74022  1.0000
  H   H2088     1.0  0.47247  0.81047  0.80825  1.0000
  H   H2089     1.0  0.48246  0.93581  0.87338  1.0000
  H   H2090     1.0  0.46156  0.92301  0.62317  1.0000
  C   C1712     1.0  0.89795  0.89378  0.82814  1.0000
  Fe  Fe238     1.0  0.90409  0.83779  0.08886  1.0000
  S   S470      1.0  0.91582  0.85987  0.60719  1.0000
  H   H2091     1.0  0.63459  0.78324  0.82057  1.0000
  H   H2092     1.0  0.52245  0.94053  0.60379  1.0000
  C   C1713     1.0  0.77720  0.91882  0.63822  1.0000
  H   H2093     1.0  0.69593  0.87427  0.88101  1.0000
  H   H2094     1.0  0.88767  0.97064  0.86512  1.0000
  C   C1714     1.0  0.59295  0.92128  0.81617  1.0000
  H   H2095     1.0  0.49871  0.97839  0.81638  1.0000
  C   C1715     1.0  0.60335  0.86215  0.90217  1.0000
  H   H2096     1.0  0.87597  0.89091  0.85141  1.0000
  Fe  Fe239     1.0  0.94674  0.89557  0.61237  1.0000
  C   C1716     1.0  0.72825  0.98573  0.79128  1.0000
  H   H2097     1.0  0.88636  0.76438  0.61321  1.0000
  C   C1717     1.0  0.47259  0.92462  0.76547  1.0000
  S   S471      1.0  0.90160  0.90155  0.09034  1.0000
  N   N117      1.0  0.91445  0.90620  0.85502  1.0000
  C   C1718     1.0  0.71283  0.00045  0.61139  1.0000
  H   H2098     1.0  0.53041  0.80468  0.81468  1.0000
  H   H2099     1.0  0.59009  0.86641  0.88906  1.0000
  C   C1719     1.0  0.62307  0.86335  0.00146  1.0000
  C   C1720     1.0  0.67570  0.87152  0.91475  1.0000
  H   H2100     1.0  0.90431  0.77209  0.93991  1.0000
  Fe  Fe240     1.0  0.69622  0.90970  0.61513  1.0000
  C   C1721     1.0  0.94033  0.90308  0.82884  1.0000
  C   C1722     1.0  0.69741  0.79834  0.62211  1.0000
  C   C1723     1.0  0.45398  0.95111  0.92201  1.0000
  H   H2101     1.0  0.48068  0.79080  0.84170  1.0000
  H   H2102     1.0  0.79791  0.93722  0.01699  1.0000
  H   H2103     1.0  0.53428  0.76641  0.88991  1.0000
  H   H2104     1.0  0.91292  0.93013  0.98571  1.0000
  C   C1724     1.0  0.55171  0.99121  0.07176  1.0000
  C   C1725     1.0  0.78050  0.01056  0.88651  1.0000
  H   H2105     1.0  0.55949  0.98810  0.63039  1.0000
  N   N118      1.0  0.61405  0.88093  0.92975  1.0000
  C   C1726     1.0  0.67857  0.77209  0.64286  1.0000
  C   C1727     1.0  0.59443  0.77986  0.65452  1.0000
  C   C1728     1.0  0.60761  0.79124  0.00107  1.0000
  C   C1729     1.0  0.89802  0.81999  0.83762  1.0000
  H   H2106     1.0  0.78019  0.92848  0.75613  1.0000
  C   C1730     1.0  0.58319  0.95977  0.65419  1.0000
  H   H2107     1.0  0.82344  0.92390  0.70364  1.0000
  C   C1731     1.0  0.71996  0.83794  0.80421  1.0000
  C   C1732     1.0  0.49982  0.91300  0.68497  1.0000
  H   H2108     1.0  0.47374  0.96090  0.74688  1.0000
  C   C1733     1.0  0.56564  0.91865  0.84472  1.0000
  H   H2109     1.0  0.83637  0.83381  0.60163  1.0000
  H   H2110     1.0  0.64189  0.92135  0.90594  1.0000
  C   C1734     1.0  0.58477  0.76664  0.03001  1.0000
  C   C1735     1.0  0.59750  0.82835  0.64756  1.0000
  C   C1736     1.0  0.52189  0.81485  0.73016  1.0000
  H   H2111     1.0  0.63063  0.82360  0.92832  1.0000
  H   H2112     1.0  0.62077  0.86189  0.86376  1.0000
  H   H2113     1.0  0.60969  0.99109  0.70353  1.0000
  C   C1737     1.0  0.80170  0.91578  0.60718  1.0000
  C   C1738     1.0  0.56267  0.95534  0.97442  1.0000
  S   S472      1.0  0.48848  0.86058  0.93499  1.0000
  Fe  Fe241     1.0  0.78355  0.88549  0.89788  1.0000
  C   C1739     1.0  0.59599  0.99962  0.92320  1.0000
  Fe  Fe242     1.0  0.45420  0.84796  0.75102  1.0000
  C   C1740     1.0  0.56174  0.94035  0.84826  1.0000
  C   C1741     1.0  0.68822  0.76607  0.96210  1.0000
  C   C1742     1.0  0.69243  0.00706  0.84174  1.0000
  Fe  Fe243     1.0  0.79473  0.00273  0.69776  1.0000
  H   H2114     1.0  0.53112  0.83233  0.83829  1.0000
  H   H2115     1.0  0.75087  0.92555  0.71426  1.0000
  C   C1743     1.0  0.53750  0.81839  0.62975  1.0000
  S   S473      1.0  0.69250  0.91160  0.69961  1.0000
  H   H2116     1.0  0.55741  0.83569  0.76782  1.0000
  C   C1744     1.0  0.68121  0.98169  0.84009  1.0000
  H   H2117     1.0  0.64655  0.90805  0.84692  1.0000
  H   H2118     1.0  0.93470  0.00431  0.84152  1.0000
  C   C1745     1.0  0.59775  0.81635  0.69213  1.0000
  H   H2119     1.0  0.71671  0.97582  0.68928  1.0000
  C   C1746     1.0  0.94771  0.84796  0.77348  1.0000
  C   C1747     1.0  0.69913  0.97092  0.81549  1.0000
  C   C1748     1.0  0.64593  0.76421  0.88771  1.0000
  S   S474      1.0  0.62365  0.87704  0.75576  1.0000
  H   H2120     1.0  0.74631  0.00289  0.68364  1.0000
  H   H2121     1.0  0.58406  0.89654  0.62015  1.0000
  C   C1749     1.0  0.58515  0.96467  0.82373  1.0000
  Fe  Fe244     1.0  0.63309  0.87795  0.66738  1.0000
  C   C1750     1.0  0.61247  0.96728  0.79704  1.0000
  H   H2122     1.0  0.60705  0.99838  0.00689  1.0000
  C   C1751     1.0  0.65032  0.77643  0.79822  1.0000
  C   C1752     1.0  0.64014  0.85664  0.01392  1.0000
  H   H2123     1.0  0.89546  0.87420  0.82735  1.0000
  H   H2124     1.0  0.67928  0.85504  0.98054  1.0000
  H   H2125     1.0  0.71603  0.86622  0.06414  1.0000
  C   C1753     1.0  0.90395  0.81051  0.87535  1.0000
  H   H2126     1.0  0.67168  0.79327  0.77790  1.0000
  H   H2127     1.0  0.76908  0.81789  0.60814  1.0000
  C   C1754     1.0  0.92653  0.97002  0.98034  1.0000
  S   S475      1.0  0.51115  0.98268  0.62603  1.0000
  H   H2128     1.0  0.75036  0.99084  0.62459  1.0000
  C   C1755     1.0  0.47747  0.77704  0.94826  1.0000
  S   S476      1.0  0.75044  0.97233  0.75892  1.0000
  C   C1756     1.0  0.69342  0.83539  0.81864  1.0000
  C   C1757     1.0  0.90437  0.96574  0.85652  1.0000
  N   N119      1.0  0.47541  0.97830  0.90297  1.0000
  H   H2129     1.0  0.91196  0.99164  0.73751  1.0000
  H   H2130     1.0  0.58998  0.84244  0.93141  1.0000
  H   H2131     1.0  0.51819  0.86044  0.80257  1.0000
  H   H2132     1.0  0.89883  0.79491  0.97928  1.0000
  Fe  Fe245     1.0  0.73404  0.83168  0.93630  1.0000
  S   S477      1.0  0.66714  0.99765  0.01345  1.0000
  C   C1758     1.0  0.92061  0.93332  0.84906  1.0000
  H   H2133     1.0  0.79265  0.77771  0.99190  1.0000
  C   C1759     1.0  0.75011  0.88961  0.07647  1.0000
  C   C1760     1.0  0.78628  0.92516  0.71482  1.0000
  C   C1761     1.0  0.76658  0.80668  0.64541  1.0000
  S   S478      1.0  0.52770  0.93712  0.88526  1.0000
  C   C1762     1.0  0.50871  0.93620  0.64897  1.0000
  C   C1763     1.0  0.91464  0.78894  0.95232  1.0000
  C   C1764     1.0  0.82715  0.83692  0.95416  1.0000
  C   C1765     1.0  0.82885  0.85183  0.04783  1.0000
  C   C1766     1.0  0.68446  0.99445  0.62966  1.0000
  H   H2134     1.0  0.78274  0.80722  0.71963  1.0000
  C   C1767     1.0  0.80594  0.77140  0.60289  1.0000
  S   S479      1.0  0.89726  0.85592  0.02731  1.0000
  C   C1768     1.0  0.93064  0.76409  0.68018  1.0000
  H   H2135     1.0  0.76668  0.00742  0.06384  1.0000
  H   H2136     1.0  0.69054  0.95137  0.81365  1.0000
  H   H2137     1.0  0.50732  0.77650  0.77838  1.0000
  C   C1769     1.0  0.68930  0.84430  0.77711  1.0000
  H   H2138     1.0  0.75944  0.97917  0.98584  1.0000
  H   H2139     1.0  0.92078  0.78203  0.98027  1.0000
  C   C1770     1.0  0.84382  0.96826  0.75897  1.0000
  H   H2140     1.0  0.71047  0.77781  0.93389  1.0000
  S   S480      1.0  0.82648  0.98908  0.65445  1.0000
  C   C1771     1.0  0.48811  0.79808  0.96685  1.0000
  H   H2141     1.0  0.75480  0.86542  0.66304  1.0000
  Fe  Fe246     1.0  0.48357  0.00061  0.66804  1.0000
  C   C1772     1.0  0.82249  0.86449  0.01600  1.0000
  H   H2142     1.0  0.61709  0.91333  0.88228  1.0000
  C   C1773     1.0  0.61638  0.94558  0.79282  1.0000
  C   C1774     1.0  0.53342  0.82948  0.67449  1.0000
  S   S481      1.0  0.66761  0.86739  0.64467  1.0000
  C   C1775     1.0  0.51533  0.80757  0.95797  1.0000
  H   H2143     1.0  0.76301  0.91706  0.62323  1.0000
  H   H2144     1.0  0.74928  0.78697  0.65806  1.0000
  C   C1776     1.0  0.73541  0.99458  0.66069  1.0000
  H   H2145     1.0  0.72417  0.97671  0.95477  1.0000
  C   C1777     1.0  0.48120  0.94768  0.72947  1.0000
  C   C1778     1.0  0.89770  0.89238  0.91592  1.0000
  S   S482      1.0  0.74911  0.86898  0.87835  1.0000
  H   H2146     1.0  0.75371  0.90680  0.05210  1.0000
  H   H2147     1.0  0.59226  0.94948  0.71787  1.0000
  C   C1779     1.0  0.53792  0.99174  0.00176  1.0000
  S   S483      1.0  0.94122  0.87387  0.07240  1.0000
  H   H2148     1.0  0.57784  0.94903  0.94602  1.0000
  H   H2149     1.0  0.65871  0.97037  0.85784  1.0000
  H   H2150     1.0  0.57676  0.88611  0.96647  1.0000
  C   C1780     1.0  0.46499  0.99537  0.89036  1.0000
  H   H2151     1.0  0.61225  0.97528  0.97061  1.0000
  H   H2152     1.0  0.61237  0.99470  0.89388  1.0000
  H   H2153     1.0  0.45795  0.91986  0.81011  1.0000
  H   H2154     1.0  0.59426  0.91113  0.69373  1.0000
  C   C1781     1.0  0.76787  0.97155  0.94932  1.0000
  H   H2155     1.0  0.54953  0.95503  0.95605  1.0000
  H   H2156     1.0  0.91802  0.95225  0.73120  1.0000
  C   C1782     1.0  0.74253  0.84968  0.74833  1.0000
  C   C1783     1.0  0.73615  0.97054  0.91873  1.0000
  H   H2157     1.0  0.87857  0.89485  0.93875  1.0000
  C   C1784     1.0  0.59548  0.79351  0.92939  1.0000
  C   C1785     1.0  0.73785  0.85713  0.70638  1.0000
  H   H2158     1.0  0.51006  0.85536  0.74818  1.0000
  H   H2159     1.0  0.77284  0.77598  0.70903  1.0000
  C   C1786     1.0  0.57962  0.99858  0.62980  1.0000
  C   C1787     1.0  0.94028  0.96467  0.69678  1.0000
  N   N120      1.0  0.57728  0.98091  0.98015  1.0000
  Fe  Fe247     1.0  0.66076  0.86999  0.73069  1.0000
  C   C1788     1.0  0.51993  0.77787  0.69239  1.0000
  H   H2160     1.0  0.84494  0.96704  0.71902  1.0000
  Fe  Fe248     1.0  0.79459  0.83999  0.89003  1.0000
  C   C1789     1.0  0.57744  0.95079  0.61214  1.0000
  H   H2161     1.0  0.58437  0.00048  0.90198  1.0000
  C   C1790     1.0  0.58960  0.92227  0.67087  1.0000
  H   H2162     1.0  0.78510  0.77339  0.91177  1.0000
  H   H2163     1.0  0.81600  0.91864  0.00802  1.0000
  H   H2164     1.0  0.59610  0.78281  0.73044  1.0000
  C   C1791     1.0  0.55682  0.97515  0.72669  1.0000
  C   C1792     1.0  0.48657  0.81091  0.82438  1.0000
  H   H2165     1.0  0.54832  0.94080  0.01647  1.0000
  C   C1793     1.0  0.80820  0.93037  0.03451  1.0000
  C   C1794     1.0  0.93484  0.00236  0.70525  1.0000
  H   H2166     1.0  0.78968  0.97592  0.93742  1.0000
  C   C1795     1.0  0.82250  0.85754  0.96831  1.0000
  S   S484      1.0  0.65060  0.94916  0.75963  1.0000
  H   H2167     1.0  0.83915  0.97310  0.90275  1.0000
  H   H2168     1.0  0.62702  0.00546  0.62858  1.0000
  H   H2169     1.0  0.65675  0.76527  0.67526  1.0000
  Fe  Fe249     1.0  0.49988  0.89913  0.95108  1.0000
  H   H2170     1.0  0.90544  0.96792  0.99878  1.0000
  H   H2171     1.0  0.65048  0.97940  0.61284  1.0000
  C   C1796     1.0  0.51445  0.00191  0.08860  1.0000
  H   H2172     1.0  0.89068  0.87149  0.92283  1.0000
  C   C1797     1.0  0.90975  0.95622  0.63886  1.0000
  H   H2173     1.0  0.62146  0.79988  0.01737  1.0000
  S   S485      1.0  0.76572  0.84923  0.96250  1.0000
  H   H2174     1.0  0.69317  0.76504  0.85302  1.0000
  H   H2175     1.0  0.87629  0.81289  0.84799  1.0000
  C   C1798     1.0  0.82575  0.94659  0.80607  1.0000
  C   C1799     1.0  0.66637  0.86070  0.97069  1.0000
  S   S486      1.0  0.60183  0.85948  0.64115  1.0000
  H   H2176     1.0  0.63283  0.84793  0.05746  1.0000
  C   C1800     1.0  0.58388  0.91403  0.62945  1.0000
  C   C1801     1.0  0.49950  0.95358  0.67124  1.0000
  H   H2177     1.0  0.75946  0.78489  0.98692  1.0000
  Fe  Fe250     1.0  0.45683  0.84022  0.64106  1.0000
  S   S487      1.0  0.65629  0.84167  0.79596  1.0000
  N   N121      1.0  0.51668  0.82582  0.77891  1.0000
  S   S488      1.0  0.76122  0.81899  0.86945  1.0000
  C   C1802     1.0  0.52121  0.77487  0.91213  1.0000
  H   H2178     1.0  0.58347  0.96467  0.04207  1.0000
  Fe  Fe251     1.0  0.93109  0.89280  0.01893  1.0000
  H   H2179     1.0  0.59577  0.89339  0.00340  1.0000
  H   H2180     1.0  0.63059  0.76785  0.06524  1.0000
  C   C1803     1.0  0.59475  0.79207  0.60928  1.0000
  C   C1804     1.0  0.76975  0.92346  0.69117  1.0000
  H   H2181     1.0  0.93758  0.83953  0.94414  1.0000
  H   H2182     1.0  0.50683  0.89951  0.66757  1.0000
  H   H2183     1.0  0.80383  0.98229  0.83690  1.0000
  H   H2184     1.0  0.67130  0.99737  0.66845  1.0000
  C   C1805     1.0  0.85926  0.99308  0.81511  1.0000
  H   H2185     1.0  0.80483  0.76519  0.64178  1.0000
  H   H2186     1.0  0.81167  0.84520  0.63835  1.0000
  H   H2187     1.0  0.64727  0.77008  0.76354  1.0000
  H   H2188     1.0  0.53962  0.84959  0.66416  1.0000
  H   H2189     1.0  0.47517  0.80692  0.98811  1.0000
  S   S489      1.0  0.52918  0.83476  0.97813  1.0000
  C   C1806     1.0  0.74012  0.76725  0.01336  1.0000
  H   H2190     1.0  0.81257  0.92874  0.80267  1.0000
  C   C1807     1.0  0.63065  0.90696  0.88974  1.0000
  C   C1808     1.0  0.63202  0.87455  0.94477  1.0000
  C   C1809     1.0  0.89914  0.94036  0.86017  1.0000
  S   S490      1.0  0.47937  0.83467  0.68255  1.0000
  H   H2191     1.0  0.90853  0.93977  0.66062  1.0000
  H   H2192     1.0  0.81909  0.86835  0.94225  1.0000
  H   H2193     1.0  0.51728  0.00515  0.83475  1.0000
  S   S491      1.0  0.77671  0.85626  0.73172  1.0000
  H   H2194     1.0  0.83933  0.82181  0.05725  1.0000
  H   H2195     1.0  0.88600  0.79606  0.91385  1.0000
  C   C1810     1.0  0.81852  0.91845  0.63179  1.0000
  C   C1811     1.0  0.59569  0.97971  0.00116  1.0000
  H   H2196     1.0  0.94205  0.80398  0.67034  1.0000
  C   C1812     1.0  0.86024  0.99158  0.76376  1.0000
  C   C1813     1.0  0.91390  0.78591  0.64021  1.0000
  H   H2197     1.0  0.55770  0.96444  0.75945  1.0000
  H   H2198     1.0  0.94358  0.76457  0.69802  1.0000
  H   H2199     1.0  0.63055  0.98613  0.77938  1.0000
  C   C1814     1.0  0.81072  0.92282  0.68502  1.0000
  C   C1815     1.0  0.93078  0.94858  0.97300  1.0000
  C   C1816     1.0  0.93079  0.98472  0.84315  1.0000
  S   S492      1.0  0.79859  0.92268  0.91906  1.0000
  N   N122      1.0  0.94334  0.98766  0.66480  1.0000
  Fe  Fe252     1.0  0.65564  0.91840  0.71938  1.0000
  H   H2200     1.0  0.54762  0.89981  0.86365  1.0000
  N   N123      1.0  0.93938  0.81024  0.90196  1.0000
  H   H2201     1.0  0.59995  0.80399  0.88992  1.0000
  H   H2202     1.0  0.69029  0.81181  0.63932  1.0000
  C   C1817     1.0  0.58883  0.94454  0.68379  1.0000
  C   C1818     1.0  0.89811  0.76318  0.63255  1.0000
  Fe  Fe253     1.0  0.46967  0.87675  0.07890  1.0000
  H   H2203     1.0  0.48153  0.81923  0.86091  1.0000
  C   C1819     1.0  0.84070  0.97162  0.86251  1.0000
  C   C1820     1.0  0.59587  0.81617  0.60628  1.0000
  C   C1821     1.0  0.59577  0.79195  0.69608  1.0000
  C   C1822     1.0  0.94725  0.95316  0.83609  1.0000
  C   C1823     1.0  0.83421  0.82456  0.98507  1.0000
  C   C1824     1.0  0.50240  0.98435  0.85089  1.0000
  S   S493      1.0  0.47076  0.87827  0.78844  1.0000
  H   H2204     1.0  0.72589  0.94927  0.93192  1.0000
  H   H2205     1.0  0.70815  0.86120  0.68818  1.0000
  H   H2206     1.0  0.51379  0.97512  0.85872  1.0000
  H   H2207     1.0  0.88238  0.93182  0.61226  1.0000
  C   C1825     1.0  0.51559  0.78873  0.73757  1.0000
  S   S494      1.0  0.82212  0.82569  0.90050  1.0000
  C   C1826     1.0  0.91986  0.83852  0.78665  1.0000
  H   H2208     1.0  0.48935  0.97191  0.95904  1.0000
  C   C1827     1.0  0.53063  0.79263  0.63867  1.0000
  N   N124      1.0  0.79311  0.80646  0.63390  1.0000
  H   H2209     1.0  0.91383  0.80338  0.62691  1.0000
  C   C1828     1.0  0.78928  0.79628  0.68901  1.0000
  C   C1829     1.0  0.83495  0.83199  0.03208  1.0000
  H   H2210     1.0  0.50487  0.00239  0.02288  1.0000
  H   H2211     1.0  0.80921  0.79771  0.68422  1.0000
  H   H2212     1.0  0.60284  0.85925  0.03699  1.0000
  C   C1830     1.0  0.93221  0.81957  0.86296  1.0000
  S   S495      1.0  0.68759  0.80810  0.99947  1.0000
  H   H2213     1.0  0.71579  0.78755  0.04010  1.0000
  C   C1831     1.0  0.61284  0.80466  0.95101  1.0000
  H   H2214     1.0  0.55301  0.80352  0.92337  1.0000
  H   H2215     1.0  0.94755  0.96571  0.07118  1.0000
  C   C1832     1.0  0.57258  0.76894  0.95796  1.0000
  H   H2216     1.0  0.81691  0.90187  0.09613  1.0000
  S   S496      1.0  0.90475  0.80046  0.09076  1.0000
  S   S497      1.0  0.73106  0.01113  0.02571  1.0000
  H   H2217     1.0  0.66461  0.78267  0.87658  1.0000
  S   S498      1.0  0.45619  0.88754  0.02180  1.0000
  C   C1833     1.0  0.71528  0.76903  0.04379  1.0000
  H   H2218     1.0  0.68656  0.95748  0.10023  1.0000
  C   C1834     1.0  0.72839  0.86648  0.08326  1.0000
  H   H2219     1.0  0.45642  0.76979  0.95517  1.0000
  S   S499      1.0  0.45661  0.83646  0.07285  1.0000
  H   H2220     1.0  0.90804  0.98631  0.09691  1.0000
  N   N125      1.0  0.78875  0.91546  0.09507  1.0000
  C   C1835     1.0  0.60764  0.99991  0.67038  1.0000
  C   C1836     1.0  0.94946  0.98001  0.09571  1.0000
  H   H2221     1.0  0.87199  0.01110  0.81875  1.0000
  H   H2222     1.0  0.62721  0.76715  0.91108  1.0000
  C   C1837     1.0  0.73955  0.01132  0.79167  1.0000
  H   H2223     1.0  0.53425  0.78432  0.60348  1.0000
  C   C1838     1.0  0.87289  0.77751  0.09935  1.0000
  H   H2224     1.0  0.48877  0.96303  0.54820  1.0000
  C   C1839     1.0  0.81543  0.76516  0.51067  1.0000
  H   H2225     1.0  0.47395  0.98128  0.28821  1.0000
  C   C1840     1.0  0.77508  0.93026  0.12630  1.0000
  C   C1841     1.0  0.66165  0.84759  0.50860  1.0000
  H   H2226     1.0  0.76073  0.91998  0.17218  1.0000
  S   S500      1.0  0.70381  0.88659  0.25917  1.0000
  S   S501      1.0  0.45776  0.88453  0.16368  1.0000
  H   H2227     1.0  0.73308  0.82604  0.16482  1.0000
  Fe  Fe254     1.0  0.61427  0.84093  0.25089  1.0000
  S   S502      1.0  0.56379  0.80549  0.46360  1.0000
  S   S503      1.0  0.60567  0.82768  0.18348  1.0000
  H   H2228     1.0  0.63024  0.93395  0.50827  1.0000
  H   H2229     1.0  0.70529  0.82580  0.12043  1.0000
  C   C1842     1.0  0.87421  0.84123  0.44000  1.0000
  H   H2230     1.0  0.50328  0.84470  0.41803  1.0000
  H   H2231     1.0  0.64902  0.86672  0.46567  1.0000
  N   N126      1.0  0.48454  0.79454  0.40990  1.0000
  H   H2232     1.0  0.77348  0.87224  0.28020  1.0000
  S   S504      1.0  0.87281  0.84284  0.16551  1.0000
  H   H2233     1.0  0.60826  0.96779  0.26333  1.0000
  Fe  Fe255     1.0  0.77993  0.84110  0.33998  1.0000
  C   C1843     1.0  0.76585  0.95842  0.56343  1.0000
  H   H2234     1.0  0.87131  0.82209  0.44021  1.0000
  H   H2235     1.0  0.75552  0.79651  0.52086  1.0000
  H   H2236     1.0  0.87966  0.96563  0.33520  1.0000
  H   H2237     1.0  0.88779  0.77380  0.20428  1.0000
  C   C1844     1.0  0.81096  0.95297  0.21808  1.0000
  H   H2238     1.0  0.51592  0.78210  0.39139  1.0000
  C   C1845     1.0  0.92031  0.82900  0.31743  1.0000
  C   C1846     1.0  0.81598  0.98741  0.50231  1.0000
  C   C1847     1.0  0.66998  0.95325  0.42979  1.0000
  H   H2239     1.0  0.68477  0.83206  0.27661  1.0000
  H   H2240     1.0  0.48879  0.92692  0.52771  1.0000
  C   C1848     1.0  0.61727  0.94009  0.38250  1.0000
  C   C1849     1.0  0.53522  0.76943  0.20358  1.0000
  H   H2241     1.0  0.83614  0.95024  0.50696  1.0000
  C   C1850     1.0  0.88984  0.98525  0.39110  1.0000
  H   H2242     1.0  0.77451  0.96035  0.34904  1.0000
  C   C1851     1.0  0.61720  0.95976  0.28092  1.0000
  C   C1852     1.0  0.49587  0.81642  0.55513  1.0000
  H   H2243     1.0  0.63359  0.99868  0.31036  1.0000
  H   H2244     1.0  0.82303  0.93194  0.11137  1.0000
  S   S505      1.0  0.58103  0.84416  0.32656  1.0000
  C   C1853     1.0  0.65053  0.93477  0.48183  1.0000
  C   C1854     1.0  0.68325  0.97903  0.28497  1.0000
  C   C1855     1.0  0.66500  0.81872  0.43104  1.0000
  H   H2245     1.0  0.64675  0.99014  0.17421  1.0000
  H   H2246     1.0  0.50671  0.78602  0.55799  1.0000
  C   C1856     1.0  0.70344  0.93640  0.41186  1.0000
  C   C1857     1.0  0.82736  0.76596  0.10833  1.0000
  H   H2247     1.0  0.93088  0.93019  0.42829  1.0000
  S   S506      1.0  0.81930  0.87627  0.41122  1.0000
  H   H2248     1.0  0.66606  0.80852  0.39942  1.0000
  C   C1858     1.0  0.89197  0.96945  0.35550  1.0000
  Fe  Fe256     1.0  0.82768  0.84935  0.36074  1.0000
  C   C1859     1.0  0.65767  0.83811  0.42802  1.0000
  C   C1860     1.0  0.66395  0.98482  0.15559  1.0000
  H   H2249     1.0  0.89725  0.00601  0.16722  1.0000
  H   H2250     1.0  0.59379  0.78292  0.57691  1.0000
  H   H2251     1.0  0.70504  0.80526  0.29287  1.0000
  H   H2252     1.0  0.92787  0.94901  0.19642  1.0000
  S   S507      1.0  0.85943  0.83822  0.35933  1.0000
  C   C1861     1.0  0.45333  0.95026  0.23541  1.0000
  N   N127      1.0  0.73091  0.93724  0.37407  1.0000
  H   H2253     1.0  0.74561  0.78895  0.10216  1.0000
  H   H2254     1.0  0.70927  0.81449  0.49918  1.0000
  C   C1862     1.0  0.53249  0.85556  0.48064  1.0000
  H   H2255     1.0  0.72674  0.97959  0.49207  1.0000
  C   C1863     1.0  0.56051  0.78448  0.26825  1.0000
  C   C1864     1.0  0.90585  0.99067  0.41688  1.0000
  C   C1865     1.0  0.70689  0.80343  0.46893  1.0000
  S   S508      1.0  0.62832  0.87012  0.36288  1.0000
  H   H2256     1.0  0.77137  0.86538  0.15298  1.0000
  S   S509      1.0  0.81150  0.99573  0.17419  1.0000
  C   C1866     1.0  0.81601  0.93926  0.25130  1.0000
  C   C1867     1.0  0.74018  0.83697  0.28915  1.0000
  C   C1868     1.0  0.73727  0.94107  0.31462  1.0000
  H   H2257     1.0  0.63593  0.76622  0.54651  1.0000
  N   N128      1.0  0.67790  0.79224  0.47887  1.0000
  C   C1869     1.0  0.74259  0.87844  0.27091  1.0000
  H   H2258     1.0  0.57131  0.80307  0.13741  1.0000
  C   C1870     1.0  0.71527  0.76359  0.57544  1.0000
  H   H2259     1.0  0.75204  0.91384  0.35877  1.0000
  C   C1871     1.0  0.53478  0.76191  0.29114  1.0000
  H   H2260     1.0  0.78246  0.80307  0.20459  1.0000
  C   C1872     1.0  0.73404  0.78982  0.55442  1.0000
  H   H2261     1.0  0.78645  0.76168  0.29880  1.0000
  H   H2262     1.0  0.71435  0.89626  0.39185  1.0000
  C   C1873     1.0  0.95047  0.94029  0.31499  1.0000
  C   C1874     1.0  0.53438  0.99539  0.25056  1.0000
  C   C1875     1.0  0.54626  0.86506  0.27621  1.0000
  H   H2263     1.0  0.87985  0.96348  0.16552  1.0000
  Fe  Fe257     1.0  0.90963  0.88058  0.14482  1.0000
  H   H2264     1.0  0.67045  0.93100  0.24484  1.0000
  H   H2265     1.0  0.57222  0.96066  0.58837  1.0000
  C   C1876     1.0  0.55088  0.84494  0.46374  1.0000
  C   C1877     1.0  0.83011  0.95188  0.27825  1.0000
  H   H2266     1.0  0.77547  0.81855  0.13315  1.0000
  H   H2267     1.0  0.63806  0.94601  0.12197  1.0000
  H   H2268     1.0  0.78720  0.92369  0.52729  1.0000
  C   C1878     1.0  0.89877  0.77172  0.47162  1.0000
  S   S510      1.0  0.75297  0.81813  0.30685  1.0000
  H   H2269     1.0  0.89224  0.94374  0.22621  1.0000
  H   H2270     1.0  0.65333  0.84201  0.39531  1.0000
  H   H2271     1.0  0.45894  0.77976  0.37259  1.0000
  H   H2272     1.0  0.92337  0.83264  0.35270  1.0000
  C   C1879     1.0  0.80620  0.91300  0.11755  1.0000
  H   H2273     1.0  0.62255  0.92113  0.18527  1.0000
  H   H2274     1.0  0.69060  0.96507  0.28451  1.0000
  C   C1880     1.0  0.45206  0.00923  0.25616  1.0000
  C   C1881     1.0  0.65807  0.77426  0.53659  1.0000
  C   C1882     1.0  0.78861  0.96306  0.46276  1.0000
  C   C1883     1.0  0.73187  0.91343  0.38982  1.0000
  H   H2275     1.0  0.90764  0.93251  0.16691  1.0000
  C   C1884     1.0  0.70558  0.00355  0.26773  1.0000
  H   H2276     1.0  0.78790  0.95734  0.42666  1.0000
  H   H2277     1.0  0.54647  0.82998  0.58762  1.0000
  H   H2278     1.0  0.49484  0.90026  0.46345  1.0000
  S   S511      1.0  0.92579  0.89810  0.19960  1.0000
  H   H2279     1.0  0.79295  0.98010  0.59301  1.0000
  H   H2280     1.0  0.72643  0.00590  0.25325  1.0000
  C   C1885     1.0  0.91617  0.81182  0.49438  1.0000
  C   C1886     1.0  0.54172  0.81977  0.49098  1.0000
  H   H2281     1.0  0.72998  0.76274  0.32662  1.0000
  C   C1887     1.0  0.93750  0.80782  0.49442  1.0000
  C   C1888     1.0  0.83916  0.97803  0.27195  1.0000
  H   H2282     1.0  0.55086  0.84117  0.22008  1.0000
  C   C1889     1.0  0.78350  0.77034  0.26690  1.0000
  S   S512      1.0  0.73326  0.92704  0.52600  1.0000
  C   C1890     1.0  0.91043  0.99644  0.58016  1.0000
  H   H2283     1.0  0.64951  0.92217  0.36101  1.0000
  H   H2284     1.0  0.71060  0.96923  0.35605  1.0000
  H   H2285     1.0  0.47235  0.80888  0.48363  1.0000
  H   H2286     1.0  0.73102  0.91074  0.43097  1.0000
  H   H2287     1.0  0.80913  0.91902  0.25596  1.0000
  H   H2288     1.0  0.79964  0.81390  0.52810  1.0000
  H   H2289     1.0  0.87594  0.99352  0.39822  1.0000
  H   H2290     1.0  0.72240  0.81667  0.42559  1.0000
  C   C1891     1.0  0.65561  0.85228  0.46714  1.0000
  C   C1892     1.0  0.53113  0.99782  0.10638  1.0000
  H   H2291     1.0  0.83286  0.98981  0.41350  1.0000
  C   C1893     1.0  0.83729  0.93194  0.50754  1.0000
  H   H2292     1.0  0.67306  0.99008  0.10924  1.0000
  H   H2293     1.0  0.84342  0.92924  0.46448  1.0000
  N   N129      1.0  0.80995  0.91024  0.55159  1.0000
  H   H2294     1.0  0.47238  0.97270  0.51692  1.0000
  C   C1894     1.0  0.51888  0.81890  0.30631  1.0000
  H   H2295     1.0  0.87967  0.90836  0.44401  1.0000
  C   C1895     1.0  0.47627  0.90306  0.48023  1.0000
  C   C1896     1.0  0.53269  0.86566  0.33215  1.0000
  C   C1897     1.0  0.75330  0.95883  0.37673  1.0000
  H   H2296     1.0  0.89877  0.95325  0.10804  1.0000
  H   H2297     1.0  0.52523  0.76397  0.17887  1.0000
  S   S513      1.0  0.48200  0.85476  0.54699  1.0000
  S   S514      1.0  0.83760  0.93586  0.31862  1.0000
  Fe  Fe258     1.0  0.91447  0.88676  0.54903  1.0000
  C   C1898     1.0  0.89459  0.97138  0.58229  1.0000
  C   C1899     1.0  0.71549  0.82567  0.28684  1.0000
  S   S515      1.0  0.64621  0.88146  0.22971  1.0000
  H   H2298     1.0  0.51550  0.80143  0.29384  1.0000
  S   S516      1.0  0.94110  0.92162  0.56234  1.0000
  C   C1900     1.0  0.87838  0.88971  0.44283  1.0000
  H   H2299     1.0  0.46591  0.97557  0.58582  1.0000
  C   C1901     1.0  0.91026  0.82082  0.22868  1.0000
  C   C1902     1.0  0.69613  0.95424  0.39544  1.0000
  H   H2300     1.0  0.49908  0.00775  0.11511  1.0000
  H   H2301     1.0  0.78103  0.78703  0.28005  1.0000
  H   H2302     1.0  0.93806  0.98711  0.42378  1.0000
  H   H2303     1.0  0.57212  0.85643  0.42912  1.0000
  C   C1903     1.0  0.94357  0.99897  0.19824  1.0000
  C   C1904     1.0  0.74842  0.78142  0.13432  1.0000
  H   H2304     1.0  0.87531  0.88998  0.36787  1.0000
  C   C1905     1.0  0.50421  0.81879  0.36377  1.0000
  C   C1906     1.0  0.51204  0.84295  0.37543  1.0000
  S   S517      1.0  0.84859  0.00863  0.49359  1.0000
  H   H2305     1.0  0.82019  0.84245  0.56863  1.0000
  C   C1907     1.0  0.89908  0.80553  0.32405  1.0000
  Fe  Fe259     1.0  0.81524  0.89314  0.34364  1.0000
  C   C1908     1.0  0.87156  0.85429  0.40108  1.0000
  C   C1909     1.0  0.57977  0.99949  0.18157  1.0000
  H   H2306     1.0  0.79522  0.90128  0.49289  1.0000
  H   H2307     1.0  0.74920  0.95653  0.42070  1.0000
  H   H2308     1.0  0.69534  0.96289  0.15395  1.0000
  S   S518      1.0  0.87982  0.88798  0.54048  1.0000
  H   H2309     1.0  0.53905  0.88376  0.34234  1.0000
  H   H2310     1.0  0.47597  0.96414  0.20618  1.0000
  Fe  Fe260     1.0  0.61417  0.88341  0.31035  1.0000
  H   H2311     1.0  0.56276  0.88266  0.24311  1.0000
  C   C1910     1.0  0.85168  0.78383  0.10677  1.0000
  H   H2312     1.0  0.85482  0.93434  0.51447  1.0000
  C   C1911     1.0  0.81007  0.78498  0.49946  1.0000
  C   C1912     1.0  0.91206  0.94870  0.18574  1.0000
  C   C1913     1.0  0.65761  0.91790  0.50064  1.0000
  H   H2313     1.0  0.74915  0.99833  0.54455  1.0000
  H   H2314     1.0  0.88616  0.79174  0.36521  1.0000
  C   C1914     1.0  0.51414  0.80555  0.53705  1.0000
  C   C1915     1.0  0.81430  0.98113  0.45544  1.0000
  C   C1916     1.0  0.68385  0.91891  0.46675  1.0000
  C   C1917     1.0  0.46891  0.77356  0.39219  1.0000
  H   H2315     1.0  0.90705  0.81936  0.19324  1.0000
  H   H2316     1.0  0.75322  0.89881  0.26456  1.0000
  H   H2317     1.0  0.85426  0.80266  0.10998  1.0000
  C   C1918     1.0  0.64282  0.95154  0.23851  1.0000
  H   H2318     1.0  0.58776  0.95812  0.37983  1.0000
  C   C1919     1.0  0.68740  0.97889  0.54852  1.0000
  H   H2319     1.0  0.76196  0.93333  0.11119  1.0000
  S   S519      1.0  0.48287  0.99393  0.39974  1.0000
  S   S520      1.0  0.82954  0.86123  0.10652  1.0000
  C   C1920     1.0  0.93613  0.84840  0.26707  1.0000
  C   C1921     1.0  0.86799  0.77318  0.23764  1.0000
  C   C1922     1.0  0.78909  0.90619  0.53379  1.0000
  C   C1923     1.0  0.72238  0.84363  0.11478  1.0000
  C   C1924     1.0  0.65467  0.93659  0.26946  1.0000
  H   H2320     1.0  0.71910  0.92710  0.31211  1.0000
  H   H2321     1.0  0.75437  0.97740  0.36388  1.0000
  C   C1925     1.0  0.67210  0.98394  0.59827  1.0000
  Fe  Fe261     1.0  0.86814  0.86336  0.10284  1.0000
  C   C1926     1.0  0.72756  0.99451  0.56109  1.0000
  C   C1927     1.0  0.93140  0.84416  0.22262  1.0000
  C   C1928     1.0  0.63086  0.94196  0.16784  1.0000
  H   H2322     1.0  0.68844  0.90596  0.48466  1.0000
  C   C1929     1.0  0.47258  0.91829  0.51723  1.0000
  H   H2323     1.0  0.48774  0.77026  0.46460  1.0000
  H   H2324     1.0  0.45225  0.93307  0.25659  1.0000
  H   H2325     1.0  0.79337  0.90345  0.16383  1.0000
  C   C1930     1.0  0.71746  0.86714  0.27037  1.0000
  S   S521      1.0  0.60322  0.91563  0.32236  1.0000
  H   H2326     1.0  0.45218  0.80598  0.44953  1.0000
  H   H2327     1.0  0.65558  0.76805  0.44285  1.0000
  C   C1931     1.0  0.87860  0.85224  0.48089  1.0000
  C   C1932     1.0  0.76015  0.86678  0.13244  1.0000
  H   H2328     1.0  0.51376  0.98414  0.28783  1.0000
  H   H2329     1.0  0.54695  0.96614  0.25205  1.0000
  H   H2330     1.0  0.51489  0.80281  0.43574  1.0000
  C   C1933     1.0  0.76434  0.95168  0.51680  1.0000
  C   C1934     1.0  0.75394  0.86338  0.28022  1.0000
  C   C1935     1.0  0.67059  0.81297  0.47371  1.0000
  H   H2331     1.0  0.85019  0.98779  0.29268  1.0000
  H   H2332     1.0  0.74282  0.96069  0.29460  1.0000
  H   H2333     1.0  0.93026  0.92218  0.33802  1.0000
  H   H2334     1.0  0.66485  0.96695  0.41589  1.0000
  H   H2335     1.0  0.61268  0.94596  0.18916  1.0000
  C   C1936     1.0  0.76666  0.89053  0.10096  1.0000
  S   S522      1.0  0.82663  0.86797  0.28947  1.0000
  C   C1937     1.0  0.91048  0.95924  0.34451  1.0000
  C   C1938     1.0  0.57375  0.79929  0.21270  1.0000
  H   H2336     1.0  0.67787  0.97101  0.52412  1.0000
  H   H2337     1.0  0.52834  0.00026  0.14699  1.0000
  Fe  Fe262     1.0  0.59690  0.83072  0.37519  1.0000
  C   C1939     1.0  0.70393  0.84076  0.27804  1.0000
  H   H2338     1.0  0.68071  0.99695  0.16410  1.0000
  C   C1940     1.0  0.87947  0.87604  0.48373  1.0000
  C   C1941     1.0  0.71490  0.98375  0.53049  1.0000
  H   H2339     1.0  0.60879  0.93594  0.42765  1.0000
  H   H2340     1.0  0.79084  0.94949  0.12209  1.0000
  H   H2341     1.0  0.67109  0.93122  0.15936  1.0000
  H   H2342     1.0  0.87957  0.84164  0.51224  1.0000
  H   H2343     1.0  0.80326  0.77740  0.22503  1.0000
  C   C1942     1.0  0.56119  0.79162  0.18026  1.0000
  H   H2344     1.0  0.53979  0.87491  0.45846  1.0000
  H   H2345     1.0  0.47455  0.80519  0.59048  1.0000
  C   C1943     1.0  0.92545  0.99361  0.17595  1.0000
  C   C1944     1.0  0.91132  0.00860  0.18291  1.0000
  S   S523      1.0  0.95046  0.88869  0.46963  1.0000
  C   C1945     1.0  0.81318  0.88676  0.55338  1.0000
  H   H2346     1.0  0.82946  0.88842  0.56357  1.0000
  S   S524      1.0  0.76854  0.86775  0.38972  1.0000
  C   C1946     1.0  0.79173  0.97600  0.55632  1.0000
  N   N130      1.0  0.86898  0.77673  0.28977  1.0000
  C   C1947     1.0  0.80031  0.79173  0.59274  1.0000
  C   C1948     1.0  0.53943  0.84173  0.26333  1.0000
  H   H2347     1.0  0.75580  0.93854  0.28681  1.0000
  C   C1949     1.0  0.60446  0.95385  0.35307  1.0000
  H   H2348     1.0  0.65919  0.78344  0.57015  1.0000
  Fe  Fe263     1.0  0.77394  0.84855  0.45249  1.0000
  C   C1950     1.0  0.65249  0.99719  0.29946  1.0000
  C   C1951     1.0  0.87537  0.87914  0.40045  1.0000
  H   H2349     1.0  0.59761  0.00464  0.58562  1.0000
  C   C1952     1.0  0.67684  0.77707  0.43791  1.0000
  H   H2350     1.0  0.91469  0.82894  0.50262  1.0000
  C   C1953     1.0  0.89690  0.79381  0.48295  1.0000
  C   C1954     1.0  0.92801  0.96521  0.36829  1.0000
  C   C1955     1.0  0.45123  0.96718  0.31337  1.0000
  C   C1956     1.0  0.55316  0.98519  0.23031  1.0000
  H   H2351     1.0  0.94317  0.79085  0.34083  1.0000
  H   H2352     1.0  0.88252  0.96756  0.56135  1.0000
  C   C1957     1.0  0.65406  0.97275  0.29955  1.0000
  S   S525      1.0  0.60256  0.98620  0.15484  1.0000
  C   C1958     1.0  0.90118  0.96902  0.12872  1.0000
  C   C1959     1.0  0.50495  0.84134  0.52628  1.0000
  H   H2353     1.0  0.81967  0.88231  0.51203  1.0000
  C   C1960     1.0  0.64188  0.93112  0.34165  1.0000
  H   H2354     1.0  0.64278  0.90406  0.54202  1.0000
  N   N131      1.0  0.65385  0.95736  0.17775  1.0000
  S   S526      1.0  0.78208  0.82020  0.40618  1.0000
  Fe  Fe264     1.0  0.65840  0.86573  0.28355  1.0000
  C   C1961     1.0  0.93903  0.78538  0.48452  1.0000
  C   C1962     1.0  0.81944  0.97906  0.21284  1.0000
  H   H2355     1.0  0.59609  0.82558  0.57133  1.0000
  H   H2356     1.0  0.57240  0.92131  0.56930  1.0000
  C   C1963     1.0  0.67774  0.95190  0.14675  1.0000
  C   C1964     1.0  0.89323  0.80079  0.27997  1.0000
  H   H2357     1.0  0.79957  0.94318  0.19828  1.0000
  H   H2358     1.0  0.91121  0.94733  0.31602  1.0000
  N   N132      1.0  0.92195  0.97324  0.14694  1.0000
  C   C1965     1.0  0.46879  0.96303  0.55730  1.0000
  C   C1966     1.0  0.73822  0.84379  0.13926  1.0000
  S   S527      1.0  0.62833  0.82454  0.30019  1.0000
  C   C1967     1.0  0.66914  0.82833  0.51185  1.0000
  H   H2359     1.0  0.88038  0.79691  0.48319  1.0000
  H   H2360     1.0  0.67340  0.82533  0.54513  1.0000
  H   H2361     1.0  0.94307  0.85961  0.18433  1.0000
  H   H2362     1.0  0.86454  0.78797  0.22013  1.0000
  C   C1968     1.0  0.92481  0.98096  0.40556  1.0000
  C   C1969     1.0  0.83380  0.99157  0.23937  1.0000
  H   H2363     1.0  0.57026  0.79026  0.29333  1.0000
  H   H2364     1.0  0.84084  0.77785  0.37222  1.0000
  C   C1970     1.0  0.76927  0.78882  0.19304  1.0000
  C   C1971     1.0  0.50136  0.78692  0.42622  1.0000
  H   H2365     1.0  0.79305  0.86989  0.58535  1.0000
  H   H2366     1.0  0.81206  0.79054  0.45903  1.0000
  H   H2367     1.0  0.69276  0.78903  0.39348  1.0000
  H   H2368     1.0  0.71310  0.78844  0.47334  1.0000
  H   H2369     1.0  0.48259  0.76656  0.36173  1.0000
  H   H2370     1.0  0.84172  0.79412  0.31478  1.0000
  S   S528      1.0  0.74736  0.84006  0.54651  1.0000
  C   C1972     1.0  0.80281  0.79820  0.53957  1.0000
  H   H2371     1.0  0.65963  0.85837  0.53964  1.0000
  C   C1973     1.0  0.76542  0.79812  0.15151  1.0000
  H   H2372     1.0  0.94681  0.80072  0.16853  1.0000
  H   H2373     1.0  0.45876  0.87896  0.43774  1.0000
  H   H2374     1.0  0.76783  0.89025  0.56538  1.0000
  C   C1974     1.0  0.84258  0.77698  0.33054  1.0000
  C   C1975     1.0  0.75597  0.76215  0.21900  1.0000
  H   H2375     1.0  0.90424  0.00324  0.44421  1.0000
  H   H2376     1.0  0.81144  0.77116  0.11215  1.0000
  C   C1976     1.0  0.91954  0.76724  0.47353  1.0000
  C   C1977     1.0  0.72501  0.80721  0.57712  1.0000
  C   C1978     1.0  0.46309  0.79726  0.46085  1.0000
  C   C1979     1.0  0.45587  0.89092  0.46606  1.0000
  C   C1980     1.0  0.57757  0.92813  0.60053  1.0000
