data_image0
_chemical_formula_structural       H4CHSHC3H2FeSH2CHC3HSCH3FeCH2CH5C2SHCH2CH2NHC2H2CH2NHFeC3SHC2HFeS2FeS2FeSFeS3FeSHFeS2FeSFeS3FeS2FeS2FeHFeS5C6H4C2HC2H2C6H2SHC6H4C6H4C6H5C5H4C3H3CHSC3NCHCH5CHC6SC3HC2HC2H2C2HCHCHFeC2H5NC9H19CHCH3NHSCHCH3C2H2NC5H13CH3CHC2HC2H2SH4SCH2NFeSNC4H2CNHCHCHC4FeCHC2HCH2FeC2H2FeHNHC2HCHCH4CH3C2HSFeCHSH3C2HCH5SCHC2HC2HCHSH2C3HC4HCSH2NCH2SFeHSC4H2FeSCSHCSHC2H2CHCSH3CHCSH4FeC2FeH2C2FeHSCSC3H4CH2NCH4CH6NHNH3CSCS2CHCH2CFeH2CSCFeH2CHC6FeHSC2HCFeSH2C2H5SH3FeS2FeS2FeS2FeSCFeSFeS3HFeS2FeSFeS3HC3N2H3C2FeC4HC2HSHCHCHCHFeHC5H2C6H4CH6CFeH5C4HCHC5H2CH4CHC3NSHCHSCNC9H6SH3CH3CHNCH2CHCHCHSH2C2H3CHSHCH2FeH2CHC2H4SHC2HC3NHC3SH3CH4CHC2H2C2HCH2C2H6CH3C3H4C2H2CHC3HSH3NCHS2CSFeSC2SCS2H4FeHCHSCHSH2CHNHCFeCFeHC3SC2H2CFeHC6H7FeC6S2C2SNHCH6NC9H14CH2CSC3HCHC2HCSNHC2H5FeH2C2HCNC9H11FeH3SC3HSHCSC3H2C2H2FeHC2HC2H3C2HCHC2SC2H2CH2CHC4HCHSHCH2CH3CH4CSHNH2C2HFeHFeH7CHCHCH3CHFeSCFeSFeS2FeS3HCS2H2SCHFeHSFeHSC2S2CHNHSHCFeCHCH2FeC6H4C6H3C3HSHCHCHC2H2CHCSH2CSC7SHC7H4CFeNC9HCH5CH6FeCHCH3NC9H13CHCNH3C2FeSHCSC2HCH8SC4SCSCH3SC2H6CHNHC3H3CHC3SC2HNC2H5SHCSHFeCNSH2CHC3SH2CH2FeCHC3H2C3H5C2H2C2H3CHCHSHFeHCHS2H2CSCH2C2NHNC3HCH6C2H3CH2CH2CH2SCH3CHCH3SH2C4HC2HCH5C2HC2H2CHS2FeHSHSCFeHNHCSCSCHS2FeS2FeCHSHSHCFeC2HC3H2C4HCHFeHC7H3SCNC2H2SH2SC2H3CHCH3C4H2CHCH2C2HCHCSH2CNC2FeC6HCH2NFeCFeH6NC9H11C2HCSHFeC4S2HFeNH2CH5CH3C2NHSCHCHCH2CHFeSCHSCSH3CH2SC2H2C2HCHCFeH5CHFeC3H5C4H3CHC3HCH3C2HCH2C2H2C3HCH4SNCH3SH3C3HCHCH2SFeSH5SCFeCSHCH2SCH2C2H4CHCH3FeCSFeS2HFeNC2FeSHSFeS2CHCH2SH2FeH5CSC7H4CH2CSHCH3SC5FeCHSH3CH3CH2CH3CHCH2C2HSCSHC2HCHC5HC2FeCH2CSCHCFeCH3CH4CSFeNC8H5C2H7CHCH2C2NC3H3FeH2FeCHC2FeH2SHNCH2C2H2C2HC2NCFeH2S2CHFeCNCH2CHCSH2CSH2CHC2SHC2SCSH3CNHC3H5SC2H5C2FeH3SH5NHC2SC2SHCHCH6C2HCHC3S2HFeSHC2FeSH2SFeSHFeS2FeSFeS3FeSHFeS2FeSFeS5HCFeS2C6H3C6H3C4H4CHC2HCH3C6H5CH2SH4C3H5CH4C3HCHC2HC4SHCFeSH3CHCHSHC2H2CHSFeNH2CH5CH3C2HNC2HC2SCHCSCHFeC3SHCHCH2C2H2NCFeC2NC3H3CH4CNH3SCHSHNHC8HCH8CH3SH2C3FeC2HCH2C4SCFeC2FeCNC8H11SC2HCHCHC2H3CHNC2H2CHSFeSCH8C3H2C2H3CH3FeH2SC3H4CH6SH2CSH2CH3CHSH2NCFeCSH3C2FeCSH3CH2CH7C2HCHCH2CHFeH2CH2CHCSC3H2SC3H2C2SH3CH3C2HC2H5FeC2H2C3H3C3NCSC3HCH3SCFeC2HCHCSHCNSHFeC3H3S2H2CHCHSFeH2C3H3FeH3CSH2CHSHCH3NHS
_chemical_formula_sum              "H1152 C960 S256 Fe128 N64"
_cell_length_a       50.7241
_cell_length_b       52.1224
_cell_length_c       54.7959
_cell_angle_alpha    79.5327
_cell_angle_beta     77.8265
_cell_angle_gamma    74.8699

_space_group_name_H-M_alt    "P 1"
_space_group_IT_number       1

loop_
  _space_group_symop_operation_xyz
  'x, y, z'

loop_
  _atom_site_type_symbol
  _atom_site_label
  _atom_site_symmetry_multiplicity
  _atom_site_fract_x
  _atom_site_fract_y
  _atom_site_fract_z
  _atom_site_occupancy
  H   H1        1.0  0.47479  0.18669  0.31087  1.0000
  H   H2        1.0  0.10288  0.46778  0.17260  1.0000
  H   H3        1.0  0.45507  0.99556  0.23749  1.0000
  H   H4        1.0  0.16566  0.46480  0.28443  1.0000
  C   C1        1.0  0.17012  0.44251  0.28705  1.0000
  H   H5        1.0  0.37224  0.10090  0.30701  1.0000
  S   S1        1.0  0.47561  0.09709  0.22458  1.0000
  H   H6        1.0  0.42820  0.03868  0.21914  1.0000
  C   C2        1.0  0.48181  0.05998  0.19300  1.0000
  C   C3        1.0  0.44626  0.01174  0.24891  1.0000
  C   C4        1.0  0.06563  0.46828  0.16090  1.0000
  H   H7        1.0  0.47392  0.16346  0.19547  1.0000
  H   H8        1.0  0.11593  0.43675  0.30285  1.0000
  Fe  Fe1       1.0  0.07160  0.48279  0.28156  1.0000
  S   S2        1.0  0.11173  0.47004  0.25561  1.0000
  H   H9        1.0  0.02682  0.47379  0.14831  1.0000
  H   H10       1.0  0.40923  0.07593  0.24378  1.0000
  C   C5        1.0  0.16030  0.40221  0.31192  1.0000
  H   H11       1.0  0.48509  0.03047  0.16911  1.0000
  C   C6        1.0  0.48742  0.06478  0.21547  1.0000
  C   C7        1.0  0.42467  0.05480  0.27808  1.0000
  C   C8        1.0  0.08614  0.48051  0.16365  1.0000
  H   H12       1.0  0.16250  0.43716  0.27143  1.0000
  S   S3        1.0  0.48022  0.13681  0.27677  1.0000
  C   C9        1.0  0.99683  0.48359  0.21308  1.0000
  H   H13       1.0  0.47290  0.24317  0.13975  1.0000
  H   H14       1.0  0.44631  0.09629  0.27627  1.0000
  H   H15       1.0  0.37521  0.09128  0.27673  1.0000
  Fe  Fe2       1.0  0.48794  0.10697  0.31100  1.0000
  C   C10       1.0  0.42040  0.05732  0.25287  1.0000
  H   H16       1.0  0.06705  0.44714  0.16759  1.0000
  H   H17       1.0  0.15105  0.39818  0.29669  1.0000
  C   C11       1.0  0.49003  0.20254  0.15539  1.0000
  H   H18       1.0  0.19303  0.43483  0.28437  1.0000
  H   H19       1.0  0.16482  0.47548  0.22725  1.0000
  H   H20       1.0  0.18258  0.39165  0.30878  1.0000
  H   H21       1.0  0.48613  0.13386  0.16228  1.0000
  H   H22       1.0  0.47089  0.07626  0.18093  1.0000
  C   C12       1.0  0.43103  0.03607  0.23860  1.0000
  C   C13       1.0  0.48684  0.22409  0.13600  1.0000
  S   S4        1.0  0.04837  0.45510  0.30864  1.0000
  H   H23       1.0  0.47792  0.20608  0.17368  1.0000
  C   C14       1.0  0.04294  0.48323  0.15001  1.0000
  H   H24       1.0  0.46356  0.98981  0.28115  1.0000
  H   H25       1.0  0.12193  0.46596  0.31102  1.0000
  C   C15       1.0  0.44056  0.02974  0.28797  1.0000
  H   H26       1.0  0.01672  0.47110  0.24570  1.0000
  H   H27       1.0  0.41674  0.10892  0.26130  1.0000
  N   N1        1.0  0.15666  0.43142  0.31205  1.0000
  H   H28       1.0  0.37336  0.06672  0.30422  1.0000
  C   C16       1.0  0.42331  0.10130  0.27990  1.0000
  C   C17       1.0  0.45112  0.00862  0.27348  1.0000
  H   H29       1.0  0.01610  0.48315  0.20006  1.0000
  H   H30       1.0  0.44540  0.02598  0.30674  1.0000
  C   C18       1.0  0.99718  0.47715  0.23898  1.0000
  H   H31       1.0  0.48970  0.45944  0.99814  1.0000
  H   H32       1.0  0.46464  0.25912  0.30681  1.0000
  N   N2        1.0  0.41269  0.07752  0.29291  1.0000
  H   H33       1.0  0.41630  0.11831  0.29125  1.0000
  Fe  Fe3       1.0  0.01027  0.48344  0.29641  1.0000
  C   C19       1.0  0.38206  0.08440  0.29530  1.0000
  C   C20       1.0  0.12649  0.44376  0.31537  1.0000
  C   C21       1.0  0.49005  0.03400  0.18619  1.0000
  S   S5        1.0  0.45544  0.10654  0.34570  1.0000
  H   H34       1.0  0.41927  0.12917  0.38816  1.0000
  C   C22       1.0  0.35911  0.25833  0.57851  1.0000
  C   C23       1.0  0.19412  0.42452  0.36754  1.0000
  H   H35       1.0  0.42735  0.15338  0.41974  1.0000
  Fe  Fe4       1.0  0.22060  0.31396  0.41950  1.0000
  S   S6        1.0  0.17483  0.31975  0.43249  1.0000
  S   S7        1.0  0.24801  0.27380  0.41262  1.0000
  Fe  Fe5       1.0  0.21958  0.37221  0.41921  1.0000
  S   S8        1.0  0.17362  0.38367  0.43176  1.0000
  S   S9        1.0  0.24680  0.40133  0.41263  1.0000
  Fe  Fe6       1.0  0.18029  0.34559  0.45862  1.0000
  S   S10       1.0  0.16063  0.34463  0.49932  1.0000
  Fe  Fe7       1.0  0.17216  0.35699  0.40441  1.0000
  S   S11       1.0  0.14106  0.36360  0.37895  1.0000
  S   S12       1.0  0.22650  0.33629  0.44846  1.0000
  S   S13       1.0  0.21770  0.34905  0.38911  1.0000
  Fe  Fe8       1.0  0.33736  0.43444  0.54827  1.0000
  S   S14       1.0  0.36513  0.39326  0.54839  1.0000
  H   H36       1.0  0.36938  0.32730  0.34584  1.0000
  Fe  Fe9       1.0  0.29366  0.42003  0.52720  1.0000
  S   S15       1.0  0.31742  0.37755  0.52501  1.0000
  S   S16       1.0  0.25087  0.43315  0.51734  1.0000
  Fe  Fe10      1.0  0.32615  0.37878  0.56307  1.0000
  S   S17       1.0  0.32803  0.34074  0.59019  1.0000
  Fe  Fe11      1.0  0.35455  0.39491  0.51049  1.0000
  S   S18       1.0  0.38746  0.37653  0.48017  1.0000
  S   S19       1.0  0.29903  0.41992  0.56692  1.0000
  S   S20       1.0  0.33007  0.43758  0.50864  1.0000
  Fe  Fe12      1.0  0.39012  0.24447  0.43696  1.0000
  S   S21       1.0  0.39497  0.20143  0.43314  1.0000
  S   S22       1.0  0.37066  0.27985  0.41144  1.0000
  Fe  Fe13      1.0  0.41449  0.23147  0.48488  1.0000
  S   S23       1.0  0.42217  0.18696  0.48554  1.0000
  S   S24       1.0  0.41913  0.25198  0.51590  1.0000
  Fe  Fe14      1.0  0.43673  0.19548  0.44390  1.0000
  H   H37       1.0  0.15510  0.48115  0.32295  1.0000
  Fe  Fe15      1.0  0.38005  0.19629  0.47483  1.0000
  S   S25       1.0  0.34698  0.17426  0.49332  1.0000
  S   S26       1.0  0.43312  0.23936  0.44414  1.0000
  S   S27       1.0  0.37110  0.24007  0.47765  1.0000
  S   S28       1.0  0.24410  0.25281  0.58709  1.0000
  S   S29       1.0  0.19324  0.22814  0.55726  1.0000
  C   C24       1.0  0.33713  0.18074  0.52463  1.0000
  C   C25       1.0  0.31168  0.17686  0.53866  1.0000
  C   C26       1.0  0.30294  0.18420  0.56304  1.0000
  C   C27       1.0  0.32018  0.19443  0.57370  1.0000
  C   C28       1.0  0.34597  0.19742  0.55989  1.0000
  C   C29       1.0  0.35416  0.19113  0.53527  1.0000
  H   H38       1.0  0.29865  0.16853  0.53052  1.0000
  H   H39       1.0  0.28313  0.18153  0.57369  1.0000
  H   H40       1.0  0.35958  0.20491  0.56799  1.0000
  H   H41       1.0  0.37386  0.19409  0.52463  1.0000
  C   C30       1.0  0.29531  0.33382  0.60180  1.0000
  C   C31       1.0  0.37535  0.47618  0.59613  1.0000
  H   H42       1.0  0.03578  0.03726  0.63473  1.0000
  C   C32       1.0  0.29339  0.30712  0.60838  1.0000
  C   C33       1.0  0.07196  0.36625  0.42906  1.0000
  H   H43       1.0  0.45987  0.43245  0.57682  1.0000
  H   H44       1.0  0.31179  0.29126  0.60689  1.0000
  C   C34       1.0  0.39776  0.34208  0.49039  1.0000
  C   C35       1.0  0.38737  0.33152  0.51476  1.0000
  C   C36       1.0  0.39468  0.30395  0.52267  1.0000
  C   C37       1.0  0.41193  0.28665  0.50614  1.0000
  C   C38       1.0  0.42256  0.29716  0.48176  1.0000
  C   C39       1.0  0.41583  0.32493  0.47401  1.0000
  H   H45       1.0  0.37352  0.34447  0.52760  1.0000
  H   H46       1.0  0.38609  0.29605  0.54131  1.0000
  S   S30       1.0  0.05774  0.13456  0.62693  1.0000
  H   H47       1.0  0.33799  0.22760  0.62993  1.0000
  C   C40       1.0  0.24696  0.41199  0.44120  1.0000
  C   C41       1.0  0.22567  0.40949  0.46171  1.0000
  C   C42       1.0  0.22643  0.41728  0.48469  1.0000
  C   C43       1.0  0.24931  0.42591  0.48773  1.0000
  C   C44       1.0  0.27063  0.42844  0.46724  1.0000
  C   C45       1.0  0.26889  0.42240  0.44375  1.0000
  H   H48       1.0  0.20840  0.40193  0.45981  1.0000
  H   H49       1.0  0.20964  0.41591  0.50039  1.0000
  H   H50       1.0  0.28798  0.43579  0.46937  1.0000
  H   H51       1.0  0.28457  0.42567  0.42762  1.0000
  C   C46       1.0  0.28251  0.27551  0.41002  1.0000
  C   C47       1.0  0.30349  0.25199  0.41097  1.0000
  C   C48       1.0  0.33068  0.25322  0.41141  1.0000
  C   C49       1.0  0.33703  0.27803  0.41010  1.0000
  C   C50       1.0  0.31622  0.30157  0.40825  1.0000
  C   C51       1.0  0.28895  0.30032  0.40846  1.0000
  H   H52       1.0  0.29864  0.23276  0.41196  1.0000
  H   H53       1.0  0.34669  0.23496  0.41261  1.0000
  H   H54       1.0  0.32093  0.32076  0.40724  1.0000
  H   H55       1.0  0.27296  0.31861  0.40736  1.0000
  C   C52       1.0  0.16999  0.31214  0.51511  1.0000
  C   C53       1.0  0.17451  0.30856  0.53991  1.0000
  C   C54       1.0  0.18179  0.28274  0.55287  1.0000
  C   C55       1.0  0.18410  0.26038  0.54114  1.0000
  C   C56       1.0  0.17958  0.26387  0.51632  1.0000
  C   C57       1.0  0.17301  0.28976  0.50315  1.0000
  H   H56       1.0  0.17283  0.32576  0.54903  1.0000
  H   H57       1.0  0.18535  0.28022  0.57202  1.0000
  H   H58       1.0  0.18172  0.24654  0.50712  1.0000
  H   H59       1.0  0.16974  0.29235  0.48392  1.0000
  H   H60       1.0  0.41310  0.26347  0.60323  1.0000
  C   C58       1.0  0.07295  0.42106  0.36676  1.0000
  C   C59       1.0  0.09329  0.39702  0.36713  1.0000
  C   C60       1.0  0.11609  0.39394  0.37888  1.0000
  C   C61       1.0  0.11851  0.41488  0.39034  1.0000
  C   C62       1.0  0.16595  0.46485  0.33504  1.0000
  H   H61       1.0  0.05535  0.42336  0.35769  1.0000
  H   H62       1.0  0.09137  0.38083  0.35823  1.0000
  H   H63       1.0  0.13636  0.41289  0.39890  1.0000
  H   H64       1.0  0.02937  0.08658  0.63083  1.0000
  C   C63       1.0  0.31269  0.37270  0.36919  1.0000
  C   C64       1.0  0.35899  0.46145  0.58960  1.0000
  C   C65       1.0  0.34987  0.44118  0.60719  1.0000
  H   H65       1.0  0.10826  0.24214  0.59450  1.0000
  H   H66       1.0  0.33717  0.42980  0.60226  1.0000
  H   H67       1.0  0.40430  0.43295  0.54356  1.0000
  C   C66       1.0  0.46185  0.12142  0.36943  1.0000
  H   H68       1.0  0.41101  0.05480  0.33017  1.0000
  S   S31       1.0  0.46173  0.41564  0.63513  1.0000
  C   C67       1.0  0.47067  0.14985  0.40468  1.0000
  C   C68       1.0  0.44433  0.14575  0.40550  1.0000
  C   C69       1.0  0.43988  0.13164  0.38784  1.0000
  N   N3        1.0  0.43740  0.40977  0.56310  1.0000
  C   C70       1.0  0.13768  0.14424  0.59060  1.0000
  H   H69       1.0  0.06216  0.26933  0.61177  1.0000
  C   C71       1.0  0.18713  0.14461  0.60516  1.0000
  H   H70       1.0  0.08864  0.35747  0.41407  1.0000
  H   H71       1.0  0.05407  0.35693  0.43119  1.0000
  H   H72       1.0  0.09987  0.39731  0.44110  1.0000
  H   H73       1.0  0.39665  0.48096  0.62455  1.0000
  H   H74       1.0  0.41035  0.08936  0.32938  1.0000
  C   C72       1.0  0.44339  0.38551  0.55052  1.0000
  H   H75       1.0  0.09905  0.34324  0.49898  1.0000
  C   C73       1.0  0.10235  0.26631  0.63509  1.0000
  C   C74       1.0  0.30435  0.31967  0.47827  1.0000
  C   C75       1.0  0.39977  0.26632  0.58878  1.0000
  C   C76       1.0  0.27113  0.35433  0.60367  1.0000
  C   C77       1.0  0.45132  0.25218  0.32343  1.0000
  C   C78       1.0  0.16933  0.12928  0.62141  1.0000
  S   S32       1.0  0.05153  0.47295  0.37553  1.0000
  C   C79       1.0  0.19126  0.45128  0.36988  1.0000
  C   C80       1.0  0.13537  0.35013  0.59049  1.0000
  C   C81       1.0  0.40632  0.26137  0.35029  1.0000
  H   H76       1.0  0.09925  0.31758  0.56653  1.0000
  C   C82       1.0  0.45987  0.22749  0.33884  1.0000
  C   C83       1.0  0.09343  0.31257  0.45082  1.0000
  H   H77       1.0  0.35039  0.41971  0.64475  1.0000
  C   C84       1.0  0.01519  0.05016  0.63560  1.0000
  C   C85       1.0  0.11735  0.25999  0.59145  1.0000
  H   H78       1.0  0.14972  0.17143  0.55808  1.0000
  H   H79       1.0  0.27246  0.37506  0.59876  1.0000
  C   C86       1.0  0.99210  0.03895  0.64039  1.0000
  C   C87       1.0  0.48854  0.12402  0.36967  1.0000
  H   H80       1.0  0.33985  0.29489  0.52665  1.0000
  C   C88       1.0  0.37456  0.44955  0.63738  1.0000
  H   H81       1.0  0.11452  0.37434  0.46593  1.0000
  C   C89       1.0  0.16854  0.43774  0.33211  1.0000
  H   H82       1.0  0.45864  0.35756  0.58208  1.0000
  Fe  Fe16      1.0  0.47982  0.45165  0.62281  1.0000
  C   C90       1.0  0.14011  0.33254  0.61232  1.0000
  C   C91       1.0  0.24896  0.36321  0.54379  1.0000
  H   H83       1.0  0.25517  0.37873  0.52847  1.0000
  H   H84       1.0  0.22918  0.37283  0.55528  1.0000
  H   H85       1.0  0.26504  0.35757  0.55596  1.0000
  H   H86       1.0  0.25236  0.31308  0.56788  1.0000
  H   H87       1.0  0.21738  0.32828  0.56583  1.0000
  N   N4        1.0  0.26951  0.24608  0.49520  1.0000
  C   C92       1.0  0.26807  0.25018  0.52160  1.0000
  C   C93       1.0  0.29882  0.24281  0.48261  1.0000
  C   C94       1.0  0.25277  0.27077  0.48274  1.0000
  C   C95       1.0  0.25933  0.22253  0.49307  1.0000
  C   C96       1.0  0.25796  0.21683  0.46907  1.0000
  C   C97       1.0  0.25054  0.20474  0.51433  1.0000
  C   C98       1.0  0.24826  0.19488  0.46650  1.0000
  C   C99       1.0  0.24081  0.18285  0.51159  1.0000
  C   C100      1.0  0.23969  0.17791  0.48773  1.0000
  H   H88       1.0  0.28139  0.23287  0.53181  1.0000
  H   H89       1.0  0.27573  0.26805  0.52255  1.0000
  H   H90       1.0  0.24638  0.25307  0.53204  1.0000
  H   H91       1.0  0.30178  0.24007  0.46253  1.0000
  H   H92       1.0  0.31214  0.22487  0.49188  1.0000
  H   H93       1.0  0.30707  0.26043  0.48313  1.0000
  H   H94       1.0  0.23034  0.27285  0.49028  1.0000
  H   H95       1.0  0.25858  0.28905  0.48530  1.0000
  H   H96       1.0  0.25560  0.27092  0.46212  1.0000
  H   H97       1.0  0.26445  0.22932  0.45203  1.0000
  H   H98       1.0  0.25093  0.20723  0.53337  1.0000
  H   H99       1.0  0.24751  0.19105  0.44789  1.0000
  H   H100      1.0  0.23414  0.16968  0.52814  1.0000
  H   H101      1.0  0.23226  0.16085  0.48570  1.0000
  H   H102      1.0  0.26654  0.27992  0.62084  1.0000
  H   H103      1.0  0.41882  0.28763  0.31736  1.0000
  H   H104      1.0  0.30726  0.32132  0.45793  1.0000
  H   H105      1.0  0.20645  0.14585  0.60961  1.0000
  H   H106      1.0  0.11834  0.14427  0.58509  1.0000
  C   C101      1.0  0.10760  0.30117  0.49885  1.0000
  H   H107      1.0  0.43800  0.43974  0.53011  1.0000
  C   C102      1.0  0.10958  0.28030  0.48543  1.0000
  H   H108      1.0  0.05971  0.30317  0.61668  1.0000
  H   H109      1.0  0.39846  0.40320  0.58469  1.0000
  H   H110      1.0  0.44212  0.06732  0.31845  1.0000
  N   N5        1.0  0.37689  0.25218  0.59807  1.0000
  H   H111      1.0  0.09091  0.25004  0.63998  1.0000
  S   S33       1.0  0.44698  0.47892  0.64654  1.0000
  C   C103      1.0  0.10257  0.28599  0.46146  1.0000
  H   H112      1.0  0.11631  0.43881  0.33503  1.0000
  C   C104      1.0  0.42416  0.43467  0.54800  1.0000
  H   H113      1.0  0.42729  0.38962  0.60109  1.0000
  H   H114      1.0  0.41329  0.25893  0.57139  1.0000
  H   H115      1.0  0.08881  0.31546  0.43202  1.0000
  C   C105      1.0  0.10580  0.37565  0.44861  1.0000
  C   C106      1.0  0.05926  0.37730  0.47117  1.0000
  H   H116      1.0  0.47869  0.41591  0.55025  1.0000
  H   H117      1.0  0.06614  0.37913  0.48859  1.0000
  N   N6        1.0  0.35797  0.36632  0.41871  1.0000
  C   C107      1.0  0.33658  0.38345  0.43568  1.0000
  C   C108      1.0  0.36627  0.33957  0.43348  1.0000
  C   C109      1.0  0.38228  0.37854  0.41108  1.0000
  C   C110      1.0  0.34830  0.36337  0.39591  1.0000
  C   C111      1.0  0.32176  0.37714  0.39011  1.0000
  H   H118      1.0  0.31756  0.37546  0.44204  1.0000
  H   H119      1.0  0.34402  0.38462  0.45308  1.0000
  H   H120      1.0  0.33100  0.40449  0.42648  1.0000
  H   H121      1.0  0.35029  0.32790  0.43587  1.0000
  H   H122      1.0  0.36925  0.34109  0.45262  1.0000
  H   H123      1.0  0.38607  0.32721  0.42447  1.0000
  H   H124      1.0  0.40002  0.36586  0.39977  1.0000
  H   H125      1.0  0.37696  0.39854  0.39965  1.0000
  H   H126      1.0  0.38994  0.38143  0.42777  1.0000
  H   H127      1.0  0.30725  0.39103  0.40172  1.0000
  H   H128      1.0  0.29198  0.38288  0.36570  1.0000
  H   H129      1.0  0.47143  0.17372  0.34362  1.0000
  H   H130      1.0  0.37432  0.21046  0.60430  1.0000
  C   C112      1.0  0.42491  0.26882  0.32923  1.0000
  H   H131      1.0  0.34656  0.29839  0.48036  1.0000
  H   H132      1.0  0.20004  0.45628  0.38434  1.0000
  H   H133      1.0  0.41335  0.42456  0.59719  1.0000
  C   C113      1.0  0.32635  0.30660  0.49085  1.0000
  H   H134      1.0  0.13362  0.19927  0.60858  1.0000
  C   C114      1.0  0.44497  0.36314  0.51427  1.0000
  C   C115      1.0  0.24510  0.34793  0.61160  1.0000
  H   H135      1.0  0.42416  0.33301  0.45520  1.0000
  C   C116      1.0  0.35953  0.26029  0.62203  1.0000
  C   C117      1.0  0.18284  0.41765  0.34911  1.0000
  H   H136      1.0  0.20214  0.07993  0.62660  1.0000
  H   H137      1.0  0.44499  0.20185  0.37251  1.0000
  S   S34       1.0  0.07719  0.20059  0.63100  1.0000
  H   H138      1.0  0.12386  0.25651  0.63826  1.0000
  H   H139      1.0  0.17490  0.19589  0.62676  1.0000
  H   H140      1.0  0.06939  0.29326  0.58554  1.0000
  H   H141      1.0  0.20514  0.40901  0.38022  1.0000
  S   S35       1.0  0.18483  0.24903  0.62348  1.0000
  C   C118      1.0  0.36545  0.34574  0.37896  1.0000
  H   H142      1.0  0.38576  0.33436  0.38233  1.0000
  H   H143      1.0  0.26286  0.34177  0.48069  1.0000
  N   N7        1.0  0.10150  0.27963  0.60876  1.0000
  Fe  Fe17      1.0  0.21135  0.23029  0.59045  1.0000
  S   S36       1.0  0.30968  0.20417  0.60392  1.0000
  N   N8        1.0  0.17637  0.11298  0.64529  1.0000
  C   C119      1.0  0.32250  0.30452  0.51698  1.0000
  C   C120      1.0  0.41839  0.40649  0.58748  1.0000
  C   C121      1.0  0.23773  0.31990  0.55434  1.0000
  C   C122      1.0  0.24339  0.32104  0.61760  1.0000
  H   H144      1.0  0.13935  0.25273  0.59420  1.0000
  H   H145      1.0  0.18537  0.39646  0.34882  1.0000
  C   C123      1.0  0.35622  0.34150  0.35803  1.0000
  N   N9        1.0  0.24639  0.33994  0.53329  1.0000
  H   H146      1.0  0.20337  0.35713  0.52999  1.0000
  C   C124      1.0  0.17710  0.47144  0.35371  1.0000
  H   H147      1.0  0.05081  0.39825  0.46277  1.0000
  C   C125      1.0  0.27853  0.33093  0.49174  1.0000
  H   H148      1.0  0.39181  0.28821  0.58335  1.0000
  C   C126      1.0  0.07542  0.44208  0.37810  1.0000
  C   C127      1.0  0.44022  0.22042  0.35998  1.0000
  C   C128      1.0  0.32982  0.35482  0.35325  1.0000
  C   C129      1.0  0.09800  0.43887  0.39021  1.0000
  Fe  Fe18      1.0  0.26347  0.21793  0.61293  1.0000
  C   C130      1.0  0.41393  0.23720  0.36553  1.0000
  H   H149      1.0  0.35005  0.28029  0.57491  1.0000
  C   C131      1.0  0.18003  0.15951  0.58258  1.0000
  C   C132      1.0  0.15531  0.15945  0.57538  1.0000
  H   H150      1.0  0.14977  0.39276  0.32988  1.0000
  C   C133      1.0  0.22368  0.34926  0.51823  1.0000
  H   H151      1.0  0.22723  0.36609  0.50336  1.0000
  H   H152      1.0  0.23574  0.30197  0.54724  1.0000
  Fe  Fe19      1.0  0.20878  0.21386  0.64615  1.0000
  C   C134      1.0  0.09108  0.33436  0.46408  1.0000
  C   C135      1.0  0.10971  0.32155  0.58017  1.0000
  H   H153      1.0  0.16665  0.07811  0.63663  1.0000
  H   H154      1.0  0.04184  0.36696  0.47672  1.0000
  Fe  Fe20      1.0  0.21950  0.26831  0.62252  1.0000
  H   H155      1.0  0.10011  0.45527  0.39868  1.0000
  N   N10       1.0  0.08208  0.36279  0.45329  1.0000
  H   H156      1.0  0.12288  0.36583  0.43453  1.0000
  C   C136      1.0  0.27358  0.32835  0.51849  1.0000
  C   C137      1.0  0.12942  0.30958  0.61843  1.0000
  H   H157      1.0  0.29511  0.31417  0.55083  1.0000
  C   C138      1.0  0.26760  0.30071  0.61622  1.0000
  H   H158      1.0  0.32246  0.35107  0.33734  1.0000
  C   C139      1.0  0.29662  0.31533  0.53068  1.0000
  H   H159      1.0  0.11762  0.35779  0.55687  1.0000
  H   H160      1.0  0.37204  0.29792  0.62096  1.0000
  H   H161      1.0  0.11386  0.29673  0.51719  1.0000
  H   H162      1.0  0.19358  0.17159  0.57079  1.0000
  C   C140      1.0  0.38350  0.46995  0.61983  1.0000
  H   H163      1.0  0.22114  0.33278  0.50922  1.0000
  H   H164      1.0  0.11777  0.26867  0.57132  1.0000
  H   H165      1.0  0.45845  0.32017  0.51886  1.0000
  C   C141      1.0  0.01154  0.07806  0.63341  1.0000
  C   C142      1.0  0.38978  0.22294  0.60096  1.0000
  H   H166      1.0  0.41885  0.45239  0.55833  1.0000
  S   S37       1.0  0.23304  0.19355  0.61288  1.0000
  Fe  Fe21      1.0  0.04377  0.48424  0.33574  1.0000
  C   C143      1.0  0.11329  0.30369  0.60276  1.0000
  H   H167      1.0  0.11709  0.25970  0.49342  1.0000
  S   S38       1.0  0.21127  0.31242  0.62418  1.0000
  H   H168      1.0  0.43623  0.28391  0.46900  1.0000
  H   H169      1.0  0.40433  0.21688  0.58356  1.0000
  H   H170      1.0  0.22637  0.36374  0.61259  1.0000
  C   C144      1.0  0.07197  0.28683  0.60550  1.0000
  C   C145      1.0  0.12025  0.34462  0.57439  1.0000
  H   H171      1.0  0.13442  0.29662  0.63539  1.0000
  C   C146      1.0  0.13197  0.19737  0.62877  1.0000
  H   H172      1.0  0.44140  0.36440  0.49522  1.0000
  H   H173      1.0  0.14404  0.36770  0.58577  1.0000
  H   H174      1.0  0.34148  0.24825  0.58426  1.0000
  H   H175      1.0  0.38593  0.27429  0.35500  1.0000
  H   H176      1.0  0.37102  0.25173  0.56027  1.0000
  S   S39       1.0  0.47600  0.17081  0.42395  1.0000
  C   C147      1.0  0.43911  0.38649  0.52550  1.0000
  H   H177      1.0  0.15258  0.33649  0.62447  1.0000
  C   C148      1.0  0.14466  0.12911  0.61311  1.0000
  C   C149      1.0  0.09884  0.32780  0.48830  1.0000
  H   H178      1.0  0.46739  0.31711  0.56215  1.0000
  C   C150      1.0  0.45431  0.35983  0.56322  1.0000
  C   C151      1.0  0.45960  0.33655  0.55193  1.0000
  H   H179      1.0  0.43082  0.40496  0.51424  1.0000
  C   C152      1.0  0.35733  0.43550  0.63121  1.0000
  H   H180      1.0  0.40150  0.21708  0.61691  1.0000
  S   S40       1.0  0.35190  0.46749  0.55883  1.0000
  H   H181      1.0  0.06508  0.38784  0.42156  1.0000
  H   H182      1.0  0.21970  0.11364  0.64021  1.0000
  C   C153      1.0  0.10663  0.19649  0.64443  1.0000
  C   C154      1.0  0.34013  0.24540  0.63599  1.0000
  C   C155      1.0  0.46356  0.41385  0.56802  1.0000
  H   H183      1.0  0.13051  0.11722  0.62389  1.0000
  C   C156      1.0  0.15540  0.19548  0.63912  1.0000
  C   C157      1.0  0.35921  0.28444  0.63087  1.0000
  C   C158      1.0  0.45476  0.33821  0.52754  1.0000
  C   C159      1.0  0.18394  0.08426  0.64189  1.0000
  H   H184      1.0  0.10461  0.26969  0.45087  1.0000
  C   C160      1.0  0.48459  0.18363  0.32787  1.0000
  S   S41       1.0  0.99620  0.00420  0.64825  1.0000
  H   H185      1.0  0.39933  0.23158  0.38189  1.0000
  H   H186      1.0  0.47363  0.39705  0.58109  1.0000
  N   N11       1.0  0.48766  0.20938  0.33345  1.0000
  C   C161      1.0  0.41935  0.07181  0.31880  1.0000
  H   H187      1.0  0.49029  0.19370  0.37252  1.0000
  H   H188      1.0  0.09258  0.28070  0.64893  1.0000
  S   S42       1.0  0.24132  0.23502  0.64859  1.0000
  Fe  Fe22      1.0  0.05793  0.16639  0.64936  1.0000
  H   H189      1.0  0.14405  0.13913  0.66755  1.0000
  S   S43       1.0  0.07790  0.13767  0.67949  1.0000
  C   C162      1.0  0.47256  0.43710  0.79900  1.0000
  C   C163      1.0  0.00413  0.04373  0.83180  1.0000
  C   C164      1.0  0.22422  0.98879  0.83924  1.0000
  C   C165      1.0  0.09273  0.11431  0.80267  1.0000
  H   H190      1.0  0.08157  0.01183  0.72356  1.0000
  H   H191      1.0  0.46251  0.44774  0.73852  1.0000
  Fe  Fe23      1.0  0.03439  0.13786  0.69851  1.0000
  S   S44       1.0  0.02457  0.13374  0.74044  1.0000
  C   C166      1.0  0.32211  0.27769  0.66553  1.0000
  S   S45       1.0  0.03196  0.10334  0.68096  1.0000
  H   H192      1.0  0.08089  0.16228  0.77565  1.0000
  C   C167      1.0  0.15363  0.19295  0.66520  1.0000
  S   S46       1.0  0.18300  0.19231  0.67747  1.0000
  H   H193      1.0  0.05572  0.05309  0.73309  1.0000
  C   C168      1.0  0.03488  0.05038  0.73964  1.0000
  C   C169      1.0  0.11974  0.11633  0.76054  1.0000
  H   H194      1.0  0.19573  0.14094  0.65527  1.0000
  H   H195      1.0  0.11614  0.15788  0.74177  1.0000
  C   C170      1.0  0.16068  0.02616  0.69865  1.0000
  H   H196      1.0  0.07110  0.15132  0.74990  1.0000
  C   C171      1.0  0.07782  0.09962  0.76976  1.0000
  S   S47       1.0  0.01434  0.16949  0.67021  1.0000
  H   H197      1.0  0.11068  0.05725  0.74232  1.0000
  H   H198      1.0  0.01090  0.00910  0.69395  1.0000
  H   H199      1.0  0.22544  0.99546  0.81918  1.0000
  C   C172      1.0  0.12831  0.19175  0.68104  1.0000
  H   H200      1.0  0.17997  0.00386  0.84738  1.0000
  C   C173      1.0  0.12924  0.13797  0.74439  1.0000
  S   S48       1.0  0.38622  0.44043  0.66637  1.0000
  H   H201      1.0  0.08500  0.19328  0.68279  1.0000
  H   H202      1.0  0.12673  0.19024  0.70121  1.0000
  H   H203      1.0  0.06508  0.02274  0.67211  1.0000
  H   H204      1.0  0.44759  0.46840  0.76279  1.0000
  Fe  Fe24      1.0  0.07648  0.02916  0.81688  1.0000
  C   C174      1.0  0.13905  0.09115  0.76230  1.0000
  C   C175      1.0  0.45694  0.44723  0.75934  1.0000
  Fe  Fe25      1.0  0.12911  0.00911  0.78138  1.0000
  H   H205      1.0  0.05164  0.14769  0.78087  1.0000
  H   H206      1.0  0.10346  0.12816  0.80775  1.0000
  C   C176      1.0  0.10965  0.06359  0.70260  1.0000
  C   C177      1.0  0.12317  0.05595  0.67912  1.0000
  Fe  Fe26      1.0  0.48725  0.40591  0.66575  1.0000
  H   H207      1.0  0.09011  0.07830  0.70417  1.0000
  S   S49       1.0  0.16170  0.01911  0.74911  1.0000
  C   C178      1.0  0.19860  0.99366  0.85507  1.0000
  S   S50       1.0  0.08436  0.01778  0.77801  1.0000
  C   C179      1.0  0.05199  0.03410  0.68749  1.0000
  C   C180      1.0  0.15641  0.13442  0.73105  1.0000
  C   C181      1.0  0.99188  0.09171  0.83252  1.0000
  H   H208      1.0  0.30674  0.24257  0.66725  1.0000
  H   H209      1.0  0.03368  0.04744  0.67999  1.0000
  H   H210      1.0  0.10388  0.09341  0.80857  1.0000
  H   H211      1.0  0.07853  0.10099  0.74913  1.0000
  C   C182      1.0  0.16606  0.08778  0.74870  1.0000
  H   H212      1.0  0.01963  0.02521  0.83000  1.0000
  H   H213      1.0  0.02669  0.07822  0.76657  1.0000
  N   N12       1.0  0.09134  0.11936  0.77540  1.0000
  C   C183      1.0  0.14686  0.03330  0.72221  1.0000
  H   H214      1.0  0.15893  0.03095  0.65907  1.0000
  H   H215      1.0  0.15752  0.10702  0.68462  1.0000
  H   H216      1.0  0.18901  0.07105  0.65949  1.0000
  H   H217      1.0  0.17644  0.98734  0.89269  1.0000
  C   C184      1.0  0.12125  0.05180  0.72418  1.0000
  H   H218      1.0  0.08726  0.07867  0.77709  1.0000
  H   H219      1.0  0.07161  0.11686  0.81441  1.0000
  H   H220      1.0  0.46622  0.40141  0.74516  1.0000
  H   H221      1.0  0.06233  0.98706  0.73830  1.0000
  H   H222      1.0  0.13340  0.07373  0.77414  1.0000
  H   H223      1.0  0.18041  0.01169  0.69711  1.0000
  N   N13       1.0  0.04315  0.01608  0.71022  1.0000
  H   H224      1.0  0.99805  0.11032  0.83130  1.0000
  N   N14       1.0  0.48163  0.43542  0.77166  1.0000
  H   H225      1.0  0.30736  0.28470  0.68171  1.0000
  H   H226      1.0  0.16336  0.15126  0.71903  1.0000
  H   H227      1.0  0.18025  0.06818  0.75021  1.0000
  C   C185      1.0  0.02485  0.03223  0.72960  1.0000
  S   S51       1.0  0.07398  0.98794  0.83665  1.0000
  C   C186      1.0  0.01216  0.06776  0.83023  1.0000
  S   S52       1.0  0.12144  0.02396  0.81867  1.0000
  S   S53       1.0  0.04736  0.06831  0.82548  1.0000
  C   C187      1.0  0.17478  0.10940  0.73324  1.0000
  H   H228      1.0  0.13501  0.10930  0.66350  1.0000
  C   C188      1.0  0.10476  0.19350  0.67062  1.0000
  H   H229      1.0  0.05561  0.10297  0.77887  1.0000
  H   H230      1.0  0.06455  0.04697  0.69127  1.0000
  C   C189      1.0  0.07315  0.14643  0.77017  1.0000
  Fe  Fe27      1.0  0.47389  0.46311  0.67606  1.0000
  H   H231      1.0  0.44031  0.43608  0.76657  1.0000
  H   H232      1.0  0.19585  0.10679  0.72299  1.0000
  C   C190      1.0  0.01843  0.06496  0.75872  1.0000
  S   S54       1.0  0.45472  0.42851  0.69343  1.0000
  C   C191      1.0  0.14854  0.03704  0.67719  1.0000
  Fe  Fe28      1.0  0.07381  0.10596  0.65905  1.0000
  H   H233      1.0  0.34022  0.31185  0.65809  1.0000
  H   H234      1.0  0.46236  0.45804  0.80267  1.0000
  C   C192      1.0  0.48429  0.39267  0.75388  1.0000
  H   H235      1.0  0.45762  0.42430  0.80750  1.0000
  C   C193      1.0  0.02959  0.99777  0.70211  1.0000
  C   C194      1.0  0.15225  0.11740  0.66606  1.0000
  C   C195      1.0  0.06817  0.99949  0.72014  1.0000
  C   C196      1.0  0.99702  0.03032  0.73931  1.0000
  C   C197      1.0  0.32183  0.25398  0.65741  1.0000
  C   C198      1.0  0.19990  0.11920  0.65347  1.0000
  Fe  Fe29      1.0  0.43078  0.44181  0.66139  1.0000
  H   H236      1.0  0.20369  0.10785  0.67215  1.0000
  S   S55       1.0  0.48950  0.48634  0.69800  1.0000
  C   C199      1.0  0.99143  0.06229  0.76807  1.0000
  C   C200      1.0  0.99177  0.15171  0.75271  1.0000
  H   H237      1.0  0.48976  0.35573  0.73893  1.0000
  C   C201      1.0  0.34076  0.29287  0.65230  1.0000
  Fe  Fe30      1.0  0.01589  0.13471  0.65054  1.0000
  S   S56       1.0  0.10891  0.07030  0.65199  1.0000
  H   H238      1.0  0.49017  0.43046  0.80951  1.0000
  H   H239      1.0  0.35873  0.72199  0.03380  1.0000
  C   C202      1.0  0.18835  0.68148  0.01877  1.0000
  C   C203      1.0  0.32510  0.89068  0.08947  1.0000
  H   H240      1.0  0.10020  0.55216  0.12511  1.0000
  H   H241      1.0  0.24563  0.80172  0.04928  1.0000
  H   H242      1.0  0.16832  0.69651  0.02212  1.0000
  H   H243      1.0  0.22737  0.71931  0.03201  1.0000
  H   H244      1.0  0.35128  0.77370  0.14153  1.0000
  S   S57       1.0  0.07025  0.50957  0.30960  1.0000
  H   H245      1.0  0.37624  0.89865  0.07704  1.0000
  H   H246      1.0  0.26422  0.81687  0.00498  1.0000
  H   H247      1.0  0.36933  0.74947  0.04195  1.0000
  Fe  Fe31      1.0  0.43456  0.77358  0.06110  1.0000
  S   S58       1.0  0.42673  0.79295  0.02252  1.0000
  S   S59       1.0  0.43663  0.72946  0.07119  1.0000
  Fe  Fe32      1.0  0.39843  0.82644  0.04225  1.0000
  S   S60       1.0  0.35417  0.84256  0.03679  1.0000
  S   S61       1.0  0.40380  0.80554  0.08091  1.0000
  Fe  Fe33      1.0  0.34784  0.62289  0.04772  1.0000
  S   S62       1.0  0.31963  0.62848  0.08493  1.0000
  S   S63       1.0  0.38335  0.58696  0.04232  1.0000
  Fe  Fe34      1.0  0.31256  0.67036  0.01952  1.0000
  S   S64       1.0  0.28138  0.68056  0.05384  1.0000
  C   C204      1.0  0.11643  0.53578  0.13284  1.0000
  Fe  Fe35      1.0  0.31861  0.67222  0.07256  1.0000
  S   S65       1.0  0.31925  0.70122  0.09795  1.0000
  Fe  Fe36      1.0  0.28504  0.63627  0.06300  1.0000
  S   S66       1.0  0.24820  0.61786  0.07284  1.0000
  S   S67       1.0  0.34970  0.66604  0.03704  1.0000
  S   S68       1.0  0.31320  0.62673  0.02698  1.0000
  H   H248      1.0  0.37627  0.86644  0.06966  1.0000
  Fe  Fe37      1.0  0.07084  0.64994  0.19678  1.0000
  S   S69       1.0  0.06735  0.66472  0.15615  1.0000
  S   S70       1.0  0.04259  0.66705  0.23022  1.0000
  Fe  Fe38      1.0  0.07607  0.62091  0.15270  1.0000
  S   S71       1.0  0.05746  0.60014  0.13047  1.0000
  Fe  Fe39      1.0  0.11370  0.65809  0.15052  1.0000
  S   S72       1.0  0.13825  0.68714  0.12755  1.0000
  S   S73       1.0  0.07572  0.60659  0.19386  1.0000
  S   S74       1.0  0.11650  0.64718  0.19156  1.0000
  H   H249      1.0  0.05760  0.62998  0.27991  1.0000
  C   C205      1.0  0.01395  0.55828  0.22064  1.0000
  C   C206      1.0  0.26689  0.79321  0.04129  1.0000
  C   C207      1.0  0.24286  0.58435  0.14592  1.0000
  N   N15       1.0  0.99280  0.57684  0.20682  1.0000
  N   N16       1.0  0.34841  0.87746  0.10332  1.0000
  H   H250      1.0  0.08716  0.63197  0.30699  1.0000
  H   H251      1.0  0.27431  0.61716  0.13414  1.0000
  H   H252      1.0  0.21594  0.69215  0.05277  1.0000
  C   C208      1.0  0.23803  0.67191  0.01177  1.0000
  C   C209      1.0  0.34988  0.85277  0.00530  1.0000
  Fe  Fe40      1.0  0.12121  0.60497  0.18509  1.0000
  C   C210      1.0  0.00936  0.59396  0.12058  1.0000
  C   C211      1.0  0.37037  0.86241  0.98741  1.0000
  C   C212      1.0  0.46035  0.92736  0.09585  1.0000
  C   C213      1.0  0.36667  0.80845  0.14161  1.0000
  H   H253      1.0  0.17391  0.74151  0.00747  1.0000
  C   C214      1.0  0.44789  0.91930  0.07891  1.0000
  C   C215      1.0  0.32243  0.77064  0.02006  1.0000
  H   H254      1.0  0.34431  0.91552  0.11602  1.0000
  S   S75       1.0  0.47040  0.79164  0.06012  1.0000
  H   H255      1.0  0.01426  0.66642  0.18971  1.0000
  C   C216      1.0  0.11658  0.54666  0.22928  1.0000
  H   H256      1.0  0.33831  0.72894  0.99468  1.0000
  C   C217      1.0  0.02176  0.61048  0.12968  1.0000
  H   H257      1.0  0.36535  0.79295  0.01290  1.0000
  C   C218      1.0  0.25680  0.76046  0.99059  1.0000
  H   H258      1.0  0.21552  0.57461  0.19193  1.0000
  Fe  Fe41      1.0  0.03070  0.53281  0.29712  1.0000
  H   H259      1.0  0.04983  0.72639  0.23506  1.0000
  C   C219      1.0  0.21755  0.63914  0.08555  1.0000
  C   C220      1.0  0.21829  0.66109  0.09653  1.0000
  C   C221      1.0  0.19360  0.67680  0.10824  1.0000
  C   C222      1.0  0.16827  0.67021  0.10942  1.0000
  C   C223      1.0  0.16745  0.64894  0.09751  1.0000
  H   H260      1.0  0.23791  0.66556  0.09661  1.0000
  H   H261      1.0  0.19426  0.69330  0.11740  1.0000
  C   C224      1.0  0.40422  0.72119  0.08038  1.0000
  C   C225      1.0  0.40162  0.69615  0.07666  1.0000
  C   C226      1.0  0.37564  0.68967  0.08265  1.0000
  C   C227      1.0  0.35224  0.70806  0.09272  1.0000
  C   C228      1.0  0.35496  0.73273  0.09730  1.0000
  C   C229      1.0  0.38087  0.73940  0.09091  1.0000
  H   H262      1.0  0.41966  0.68191  0.06875  1.0000
  H   H263      1.0  0.37383  0.67031  0.07965  1.0000
  H   H264      1.0  0.33690  0.74694  0.10516  1.0000
  H   H265      1.0  0.38279  0.75856  0.09416  1.0000
  C   C230      1.0  0.16117  0.51787  0.21550  1.0000
  H   H266      1.0  0.28769  0.65949  0.12870  1.0000
  H   H267      1.0  0.10850  0.55321  0.17739  1.0000
  H   H268      1.0  0.04342  0.72947  0.28057  1.0000
  H   H269      1.0  0.19112  0.72025  0.04197  1.0000
  H   H270      1.0  0.99392  0.67506  0.26840  1.0000
  H   H271      1.0  0.02195  0.57612  0.11287  1.0000
  C   C231      1.0  0.27361  0.73461  0.99528  1.0000
  Fe  Fe42      1.0  0.43867  0.82590  0.07633  1.0000
  H   H272      1.0  0.07566  0.55769  0.16840  1.0000
  H   H273      1.0  0.24210  0.76955  0.00576  1.0000
  H   H274      1.0  0.30936  0.84448  0.01207  1.0000
  H   H275      1.0  0.19559  0.62089  0.13503  1.0000
  H   H276      1.0  0.48699  0.76518  0.00867  1.0000
  C   C232      1.0  0.12417  0.49842  0.24109  1.0000
  C   C233      1.0  0.36607  0.78069  0.99800  1.0000
  C   C234      1.0  0.18979  0.73787  0.99110  1.0000
  C   C235      1.0  0.14358  0.54350  0.21569  1.0000
  H   H277      1.0  0.19147  0.61647  0.07701  1.0000
  C   C236      1.0  0.99345  0.56634  0.18327  1.0000
  H   H278      1.0  0.27218  0.72393  0.01408  1.0000
  C   C237      1.0  0.99915  0.66928  0.20668  1.0000
  C   C238      1.0  0.46712  0.90972  0.11728  1.0000
  C   C239      1.0  0.42170  0.61739  0.02132  1.0000
  C   C240      1.0  0.41635  0.59176  0.02779  1.0000
  C   C241      1.0  0.43759  0.56929  0.02217  1.0000
  H   H279      1.0  0.40563  0.63473  0.02617  1.0000
  H   H280      1.0  0.43350  0.54945  0.02713  1.0000
  C   C242      1.0  0.30465  0.79059  0.00584  1.0000
  H   H281      1.0  0.31905  0.84287  0.09264  1.0000
  H   H282      1.0  0.18213  0.51539  0.20510  1.0000
  H   H283      1.0  0.03569  0.66243  0.28457  1.0000
  H   H284      1.0  0.38050  0.62156  0.99065  1.0000
  C   C243      1.0  0.33196  0.83450  0.10682  1.0000
  H   H285      1.0  0.08516  0.53270  0.19424  1.0000
  C   C244      1.0  0.03922  0.64078  0.29227  1.0000
  C   C245      1.0  0.36771  0.73971  0.02606  1.0000
  C   C246      1.0  0.21168  0.70701  0.03599  1.0000
  N   N17       1.0  0.35117  0.75900  0.00831  1.0000
  S   S76       1.0  0.15531  0.57104  0.19771  1.0000
  H   H286      1.0  0.17932  0.62135  0.16727  1.0000
  C   C247      1.0  0.19209  0.63338  0.08560  1.0000
  H   H287      1.0  0.14573  0.51459  0.16902  1.0000
  S   S77       1.0  0.02052  0.57706  0.28574  1.0000
  C   C248      1.0  0.35035  0.74462  0.98760  1.0000
  N   N18       1.0  0.22392  0.60503  0.16094  1.0000
  C   C249      1.0  0.22227  0.59389  0.18795  1.0000
  C   C250      1.0  0.19604  0.60978  0.15416  1.0000
  C   C251      1.0  0.23303  0.63053  0.15665  1.0000
  C   C252      1.0  0.25950  0.63331  0.14285  1.0000
  C   C253      1.0  0.21551  0.65345  0.16701  1.0000
  C   C254      1.0  0.26751  0.65765  0.13943  1.0000
  C   C255      1.0  0.22364  0.67773  0.16324  1.0000
  C   C256      1.0  0.24959  0.67983  0.14943  1.0000
  C   C257      1.0  0.32525  0.85180  0.99821  1.0000
  H   H288      1.0  0.44258  0.93292  0.06232  1.0000
  H   H289      1.0  0.24269  0.59024  0.19401  1.0000
  H   H290      1.0  0.18990  0.59075  0.15434  1.0000
  H   H291      1.0  0.19520  0.65286  0.17789  1.0000
  H   H292      1.0  0.20964  0.69509  0.17088  1.0000
  H   H293      1.0  0.25590  0.69867  0.14635  1.0000
  S   S78       1.0  0.03413  0.50827  0.26681  1.0000
  H   H294      1.0  0.01376  0.56542  0.17048  1.0000
  H   H295      1.0  0.32890  0.89165  0.13879  1.0000
  H   H296      1.0  0.05791  0.54419  0.13819  1.0000
  C   C258      1.0  0.09317  0.54226  0.17520  1.0000
  H   H297      1.0  0.08599  0.52676  0.25243  1.0000
  H   H298      1.0  0.38055  0.84438  0.13673  1.0000
  H   H299      1.0  0.38941  0.73170  0.01676  1.0000
  C   C259      1.0  0.46405  0.57235  0.01017  1.0000
  H   H300      1.0  0.38094  0.79799  0.15435  1.0000
  N   N19       1.0  0.10578  0.52201  0.15776  1.0000
  C   C260      1.0  0.02914  0.73105  0.24605  1.0000
  H   H301      1.0  0.26373  0.57793  0.15143  1.0000
  H   H302      1.0  0.27542  0.76629  0.07494  1.0000
  C   C261      1.0  0.08452  0.50828  0.15524  1.0000
  H   H303      1.0  0.01184  0.56384  0.23977  1.0000
  C   C262      1.0  0.44813  0.62051  0.00890  1.0000
  H   H304      1.0  0.23902  0.65962  0.99685  1.0000
  C   C263      1.0  0.36600  0.83524  0.13160  1.0000
  H   H305      1.0  0.14784  0.64421  0.09784  1.0000
  S   S79       1.0  0.46816  0.95914  0.08889  1.0000
  H   H306      1.0  0.32478  0.91221  0.08272  1.0000
  H   H307      1.0  0.18882  0.66607  0.03581  1.0000
  C   C264      1.0  0.10692  0.52414  0.24208  1.0000
  C   C265      1.0  0.37461  0.87789  0.08540  1.0000
  H   H308      1.0  0.12479  0.52145  0.11876  1.0000
  H   H309      1.0  0.02177  0.60104  0.18800  1.0000
  H   H310      1.0  0.39302  0.86858  0.09460  1.0000
  C   C266      1.0  0.46177  0.88397  0.12150  1.0000
  H   H311      1.0  0.23491  0.56584  0.14865  1.0000
  S   S80       1.0  0.43094  0.84957  0.03896  1.0000
  H   H312      1.0  0.32693  0.88151  0.07214  1.0000
  C   C267      1.0  0.06087  0.52294  0.14458  1.0000
  H   H313      1.0  0.24519  0.59187  0.12536  1.0000
  H   H314      1.0  0.20689  0.60767  0.20022  1.0000
  Fe  Fe43      1.0  0.46012  0.81378  0.02306  1.0000
  H   H315      1.0  0.32076  0.79664  0.11056  1.0000
  H   H316      1.0  0.36591  0.88823  0.13186  1.0000
  C   C268      1.0  0.44303  0.89344  0.08288  1.0000
  H   H317      1.0  0.02164  0.63320  0.28956  1.0000
  C   C269      1.0  0.35009  0.79471  0.13432  1.0000
  C   C270      1.0  0.45007  0.87565  0.10413  1.0000
  H   H318      1.0  0.46714  0.87032  0.13804  1.0000
  H   H319      1.0  0.30475  0.88957  0.10160  1.0000
  H   H320      1.0  0.13319  0.54551  0.13396  1.0000
  H   H321      1.0  0.12380  0.49390  0.18729  1.0000
  S   S81       1.0  0.44472  0.84290  0.10933  1.0000
  H   H322      1.0  0.00929  0.73280  0.21469  1.0000
  C   C271      1.0  0.34673  0.89382  0.12341  1.0000
  C   C272      1.0  0.04042  0.51055  0.14210  1.0000
  H   H323      1.0  0.01487  0.64695  0.14577  1.0000
  C   C273      1.0  0.46933  0.59793  0.00353  1.0000
  C   C274      1.0  0.33288  0.80767  0.11689  1.0000
  C   C275      1.0  0.34821  0.84930  0.11423  1.0000
  N   N20       1.0  0.21249  0.69385  0.01387  1.0000
  H   H324      1.0  0.32271  0.74683  0.05747  1.0000
  C   C276      1.0  0.00537  0.63391  0.13899  1.0000
  C   C277      1.0  0.31100  0.76218  0.04532  1.0000
  C   C278      1.0  0.28363  0.77333  0.05567  1.0000
  S   S82       1.0  0.12223  0.61544  0.14357  1.0000
  H   H325      1.0  0.43401  0.88735  0.06939  1.0000
  H   H326      1.0  0.10316  0.56645  0.23010  1.0000
  H   H327      1.0  0.03540  0.55867  0.21077  1.0000
  C   C279      1.0  0.27741  0.80185  0.01642  1.0000
  H   H328      1.0  0.01236  0.53711  0.22278  1.0000
  H   H329      1.0  0.47645  0.91589  0.13058  1.0000
  H   H330      1.0  0.02228  0.52219  0.13426  1.0000
  H   H331      1.0  0.45224  0.64034  0.00407  1.0000
  C   C280      1.0  0.00757  0.67015  0.22917  1.0000
  H   H332      1.0  0.23909  0.65763  0.02952  1.0000
  C   C281      1.0  0.21111  0.71398  0.99102  1.0000
  C   C282      1.0  0.02546  0.73248  0.27172  1.0000
  H   H333      1.0  0.25702  0.67994  0.00768  1.0000
  H   H334      1.0  0.38935  0.86335  0.99288  1.0000
  C   C283      1.0  0.12999  0.50363  0.16779  1.0000
  C   C284      1.0  0.00619  0.73479  0.23454  1.0000
  H   H335      1.0  0.18802  0.67151  0.00254  1.0000
  C   C285      1.0  0.00086  0.60297  0.19989  1.0000
  H   H336      1.0  0.06834  0.66522  0.31213  1.0000
  H   H337      1.0  0.99693  0.73807  0.30593  1.0000
  C   C286      1.0  0.99878  0.73742  0.28602  1.0000
  C   C287      1.0  0.15139  0.49532  0.22798  1.0000
  H   H338      1.0  0.38832  0.77247  0.99058  1.0000
  H   H339      1.0  0.00121  0.61164  0.21695  1.0000
  H   H340      1.0  0.48029  0.55491  0.00576  1.0000
  H   H341      1.0  0.31159  0.79750  0.98630  1.0000
  H   H342      1.0  0.14061  0.48782  0.15552  1.0000
  H   H343      1.0  0.44422  0.60431  0.62392  1.0000
  C   C288      1.0  0.99693  0.68315  0.36562  1.0000
  H   H344      1.0  0.04942  0.60315  0.34850  1.0000
  H   H345      1.0  0.17474  0.49227  0.35571  1.0000
  H   H346      1.0  0.40640  0.53368  0.61924  1.0000
  C   C289      1.0  0.04627  0.60748  0.32853  1.0000
  C   C290      1.0  0.02047  0.67007  0.35019  1.0000
  C   C291      1.0  0.01850  0.65204  0.33436  1.0000
  H   H347      1.0  0.07473  0.63914  0.33854  1.0000
  H   H348      1.0  0.06403  0.59485  0.31705  1.0000
  H   H349      1.0  0.38232  0.49195  0.58258  1.0000
  H   H350      1.0  0.02776  0.60025  0.32783  1.0000
  C   C292      1.0  0.45632  0.59339  0.63895  1.0000
  C   C293      1.0  0.47672  0.66018  0.64647  1.0000
  H   H351      1.0  0.03994  0.67414  0.35131  1.0000
  H   H352      1.0  0.46925  0.60676  0.64124  1.0000
  C   C294      1.0  0.40446  0.54195  0.63651  1.0000
  H   H353      1.0  0.45049  0.69720  0.63246  1.0000
  C   C295      1.0  0.06939  0.64364  0.31929  1.0000
  C   C296      1.0  0.45612  0.68379  0.64905  1.0000
  C   C297      1.0  0.42169  0.55850  0.63793  1.0000
  H   H354      1.0  0.99548  0.56595  0.33758  1.0000
  S   S83       1.0  0.00370  0.51024  0.32590  1.0000
  H   H355      1.0  0.47111  0.57520  0.63218  1.0000
  H   H356      1.0  0.43644  0.56227  0.62115  1.0000
  H   H357      1.0  0.99870  0.69660  0.37787  1.0000
  N   N21       1.0  0.04301  0.63643  0.31895  1.0000
  C   C298      1.0  0.99160  0.64853  0.33468  1.0000
  H   H358      1.0  0.47632  0.63583  0.70833  1.0000
  S   S84       1.0  0.42873  0.73062  0.95893  1.0000
  S   S85       1.0  0.40584  0.64328  0.84691  1.0000
  C   C299      1.0  0.42113  0.83422  0.91128  1.0000
  S   S86       1.0  0.39623  0.63459  0.77797  1.0000
  Fe  Fe44      1.0  0.41738  0.59167  0.77340  1.0000
  S   S87       1.0  0.39644  0.56242  0.76427  1.0000
  C   C300      1.0  0.41977  0.56934  0.66047  1.0000
  C   C301      1.0  0.28427  0.92502  0.87219  1.0000
  S   S88       1.0  0.13901  0.95965  0.86884  1.0000
  C   C302      1.0  0.99725  0.95488  0.76057  1.0000
  S   S89       1.0  0.31220  0.81595  0.92941  1.0000
  S   S90       1.0  0.07041  0.94627  0.78290  1.0000
  H   H359      1.0  0.25290  0.92717  0.91773  1.0000
  H   H360      1.0  0.48034  0.55349  0.94895  1.0000
  H   H361      1.0  0.42613  0.63962  0.92928  1.0000
  H   H362      1.0  0.47042  0.76085  0.93215  1.0000
  Fe  Fe45      1.0  0.46752  0.69861  0.95141  1.0000
  H   H363      1.0  0.34063  0.75826  0.97217  1.0000
  C   C303      1.0  0.03526  0.95691  0.78022  1.0000
  H   H364      1.0  0.30259  0.91193  0.88001  1.0000
  S   S91       1.0  0.35289  0.77274  0.87585  1.0000
  C   C304      1.0  0.02507  0.94583  0.76370  1.0000
  H   H365      1.0  0.02348  0.98275  0.71801  1.0000
  S   S92       1.0  0.27453  0.81448  0.88755  1.0000
  H   H366      1.0  0.03882  0.93058  0.75298  1.0000
  H   H367      1.0  0.46275  0.61556  0.83368  1.0000
  C   C305      1.0  0.40609  0.82432  0.87567  1.0000
  H   H368      1.0  0.42698  0.70847  0.67509  1.0000
  N   N22       1.0  0.46111  0.80373  0.93026  1.0000
  H   H369      1.0  0.41813  0.84788  0.92480  1.0000
  C   C306      1.0  0.42180  0.53841  0.74834  1.0000
  Fe  Fe46      1.0  0.27545  0.85776  0.87534  1.0000
  C   C307      1.0  0.41452  0.52265  0.73386  1.0000
  Fe  Fe47      1.0  0.43500  0.64358  0.75342  1.0000
  H   H370      1.0  0.39289  0.52381  0.73400  1.0000
  C   C308      1.0  0.17211  0.93881  0.86140  1.0000
  C   C309      1.0  0.43516  0.66311  0.87280  1.0000
  C   C310      1.0  0.43614  0.64525  0.85624  1.0000
  S   S93       1.0  0.45463  0.60120  0.74644  1.0000
  C   C311      1.0  0.18725  0.94093  0.83695  1.0000
  C   C312      1.0  0.45990  0.66673  0.87773  1.0000
  H   H371      1.0  0.17896  0.95592  0.82241  1.0000
  H   H372      1.0  0.41541  0.67458  0.88129  1.0000
  C   C313      1.0  0.19668  0.98432  0.88070  1.0000
  Fe  Fe48      1.0  0.41998  0.62792  0.80963  1.0000
  H   H373      1.0  0.29119  0.92965  0.85159  1.0000
  C   C314      1.0  0.41069  0.74274  0.93364  1.0000
  C   C315      1.0  0.41164  0.72662  0.91550  1.0000
  C   C316      1.0  0.39455  0.73606  0.89706  1.0000
  C   C317      1.0  0.37673  0.76164  0.89676  1.0000
  C   C318      1.0  0.37742  0.77820  0.91381  1.0000
  C   C319      1.0  0.39392  0.76869  0.93243  1.0000
  H   H374      1.0  0.42463  0.70659  0.91633  1.0000
  H   H375      1.0  0.39450  0.72326  0.88365  1.0000
  H   H376      1.0  0.30003  0.97128  0.85894  1.0000
  H   H377      1.0  0.39381  0.78175  0.94562  1.0000
  H   H378      1.0  0.36589  0.79872  0.91224  1.0000
  H   H379      1.0  0.37120  0.67949  0.97479  1.0000
  H   H380      1.0  0.26857  0.91299  0.87451  1.0000
  Fe  Fe49      1.0  0.31972  0.80810  0.88932  1.0000
  C   C320      1.0  0.37213  0.65615  0.93258  1.0000
  C   C321      1.0  0.36250  0.68408  0.92495  1.0000
  C   C322      1.0  0.36724  0.63832  0.91820  1.0000
  C   C323      1.0  0.34926  0.69335  0.90399  1.0000
  C   C324      1.0  0.35383  0.64782  0.89740  1.0000
  C   C325      1.0  0.34493  0.67526  0.89028  1.0000
  S   S94       1.0  0.45695  0.64072  0.78529  1.0000
  S   S95       1.0  0.33517  0.88305  0.92466  1.0000
  C   C326      1.0  0.21359  0.92400  0.83136  1.0000
  C   C327      1.0  0.48640  0.63389  0.85048  1.0000
  S   S96       1.0  0.25706  0.88270  0.84225  1.0000
  N   N23       1.0  0.27240  0.94938  0.88481  1.0000
  H   H381      1.0  0.45537  0.54772  0.76037  1.0000
  C   C328      1.0  0.43526  0.50638  0.71826  1.0000
  H   H382      1.0  0.15471  0.90344  0.75911  1.0000
  H   H383      1.0  0.36459  0.69923  0.93501  1.0000
  H   H384      1.0  0.37390  0.61686  0.92284  1.0000
  H   H385      1.0  0.34227  0.71475  0.89844  1.0000
  H   H386      1.0  0.35093  0.63381  0.88634  1.0000
  H   H387      1.0  0.33478  0.68248  0.87400  1.0000
  N   N24       1.0  0.39480  0.72476  0.81377  1.0000
  C   C329      1.0  0.41514  0.70178  0.80293  1.0000
  C   C330      1.0  0.41052  0.73979  0.82364  1.0000
  C   C331      1.0  0.37579  0.71370  0.83510  1.0000
  C   C332      1.0  0.37840  0.74288  0.79540  1.0000
  C   C333      1.0  0.35887  0.76641  0.80262  1.0000
  C   C334      1.0  0.38079  0.73769  0.77030  1.0000
  C   C335      1.0  0.34300  0.78380  0.78573  1.0000
  C   C336      1.0  0.36481  0.75525  0.75356  1.0000
  C   C337      1.0  0.34599  0.77825  0.76124  1.0000
  H   H388      1.0  0.40463  0.68833  0.79684  1.0000
  H   H389      1.0  0.43005  0.70859  0.78659  1.0000
  H   H390      1.0  0.42769  0.68899  0.81697  1.0000
  H   H391      1.0  0.42399  0.74960  0.80801  1.0000
  H   H392      1.0  0.42396  0.72638  0.83674  1.0000
  H   H393      1.0  0.39671  0.75563  0.83462  1.0000
  H   H394      1.0  0.38735  0.69989  0.84930  1.0000
  H   H395      1.0  0.36084  0.72960  0.84530  1.0000
  H   H396      1.0  0.36370  0.70210  0.82850  1.0000
  H   H397      1.0  0.35557  0.77147  0.82150  1.0000
  H   H398      1.0  0.39477  0.72017  0.76302  1.0000
  H   H399      1.0  0.32822  0.80162  0.79176  1.0000
  H   H400      1.0  0.36705  0.75086  0.73451  1.0000
  H   H401      1.0  0.33363  0.79175  0.74819  1.0000
  C   C338      1.0  0.46177  0.63030  0.84555  1.0000
  H   H402      1.0  0.17182  0.91814  0.89923  1.0000
  H   H403      1.0  0.40368  0.67979  0.95348  1.0000
  C   C339      1.0  0.38271  0.54581  0.67966  1.0000
  S   S97       1.0  0.47035  0.65896  0.93966  1.0000
  C   C340      1.0  0.26766  0.94055  0.91243  1.0000
  C   C341      1.0  0.32110  0.86026  0.97323  1.0000
  C   C342      1.0  0.29215  0.72277  0.97545  1.0000
  H   H404      1.0  0.20875  0.77035  0.93285  1.0000
  C   C343      1.0  0.48550  0.65222  0.86644  1.0000
  H   H405      1.0  0.46816  0.55268  0.67672  1.0000
  C   C344      1.0  0.45897  0.56801  0.87224  1.0000
  C   C345      1.0  0.29481  0.73706  0.95132  1.0000
  H   H406      1.0  0.24773  0.69341  0.96636  1.0000
  C   C346      1.0  0.47703  0.82473  0.92633  1.0000
  S   S98       1.0  0.24083  0.80787  0.96015  1.0000
  N   N25       1.0  0.38694  0.64547  0.95421  1.0000
  H   H407      1.0  0.45973  0.77474  0.89180  1.0000
  C   C347      1.0  0.47040  0.52038  0.73301  1.0000
  C   C348      1.0  0.45574  0.57260  0.68180  1.0000
  H   H408      1.0  0.39735  0.56957  0.69916  1.0000
  H   H409      1.0  0.38105  0.88039  0.94904  1.0000
  H   H410      1.0  0.40900  0.60935  0.69089  1.0000
  H   H411      1.0  0.43058  0.82226  0.96008  1.0000
  H   H412      1.0  0.30203  0.85940  0.96788  1.0000
  Fe  Fe50      1.0  0.26731  0.82553  0.92663  1.0000
  H   H413      1.0  0.41315  0.60989  0.93923  1.0000
  H   H414      1.0  0.44342  0.56903  0.70090  1.0000
  C   C349      1.0  0.24688  0.96480  0.87507  1.0000
  C   C350      1.0  0.24804  0.97460  0.84901  1.0000
  H   H415      1.0  0.36926  0.61063  0.96643  1.0000
  C   C351      1.0  0.22933  0.73073  0.94749  1.0000
  N   N26       1.0  0.11978  0.89000  0.84518  1.0000
  C   C352      1.0  0.10142  0.91729  0.84491  1.0000
  C   C353      1.0  0.10340  0.87102  0.84294  1.0000
  C   C354      1.0  0.12877  0.88246  0.87015  1.0000
  C   C355      1.0  0.14312  0.88966  0.82370  1.0000
  C   C356      1.0  0.13784  0.89694  0.79862  1.0000
  C   C357      1.0  0.17141  0.88206  0.82678  1.0000
  C   C358      1.0  0.15941  0.89711  0.77801  1.0000
  C   C359      1.0  0.19285  0.88193  0.80599  1.0000
  C   C360      1.0  0.18687  0.88964  0.78168  1.0000
  H   H416      1.0  0.09127  0.92362  0.82803  1.0000
  H   H417      1.0  0.08442  0.91890  0.86153  1.0000
  H   H418      1.0  0.11339  0.93229  0.84509  1.0000
  H   H419      1.0  0.08619  0.87003  0.85924  1.0000
  H   H420      1.0  0.11676  0.85044  0.84189  1.0000
  H   H421      1.0  0.09356  0.87704  0.82579  1.0000
  H   H422      1.0  0.11080  0.88313  0.88590  1.0000
  H   H423      1.0  0.14203  0.86176  0.87213  1.0000
  H   H424      1.0  0.14037  0.89671  0.87325  1.0000
  H   H425      1.0  0.11690  0.90307  0.79475  1.0000
  H   H426      1.0  0.17768  0.87664  0.84504  1.0000
  Fe  Fe51      1.0  0.31067  0.85864  0.91306  1.0000
  H   H427      1.0  0.21427  0.87640  0.80884  1.0000
  H   H428      1.0  0.20356  0.89009  0.76570  1.0000
  H   H429      1.0  0.45932  0.68124  0.88969  1.0000
  S   S99       1.0  0.43278  0.68034  0.72467  1.0000
  C   C361      1.0  0.22466  0.90456  0.85006  1.0000
  C   C362      1.0  0.39971  0.56248  0.68127  1.0000
  C   C363      1.0  0.39127  0.66674  0.96671  1.0000
  H   H430      1.0  0.21772  0.88731  0.88900  1.0000
  S   S100      1.0  0.32146  0.85035  0.87307  1.0000
  H   H431      1.0  0.25961  0.95792  0.92324  1.0000
  C   C364      1.0  0.18344  0.91978  0.88026  1.0000
  S   S101      1.0  0.43698  0.58419  0.80783  1.0000
  C   C365      1.0  0.42681  0.80075  0.87521  1.0000
  C   C366      1.0  0.40326  0.84101  0.89368  1.0000
  C   C367      1.0  0.44972  0.53645  0.74853  1.0000
  H   H432      1.0  0.47978  0.54239  0.79149  1.0000
  H   H433      1.0  0.28718  0.92877  0.91912  1.0000
  C   C368      1.0  0.41459  0.62850  0.94551  1.0000
  C   C369      1.0  0.23063  0.71074  0.96831  1.0000
  H   H434      1.0  0.22525  0.92578  0.81241  1.0000
  H   H435      1.0  0.42726  0.62194  0.96083  1.0000
  Fe  Fe52      1.0  0.47266  0.59717  0.78139  1.0000
  H   H436      1.0  0.48557  0.49362  0.80422  1.0000
  C   C370      1.0  0.20883  0.75440  0.94860  1.0000
  C   C371      1.0  0.44989  0.67270  0.69461  1.0000
  H   H437      1.0  0.42844  0.78747  0.86159  1.0000
  C   C372      1.0  0.01747  0.97657  0.79407  1.0000
  C   C373      1.0  0.18897  0.75788  0.97029  1.0000
  H   H438      1.0  0.36779  0.54059  0.69593  1.0000
  H   H439      1.0  0.39177  0.82935  0.86244  1.0000
  H   H440      1.0  0.28127  0.77384  0.92811  1.0000
  C   C374      1.0  0.34110  0.87083  0.95553  1.0000
  C   C375      1.0  0.44482  0.80275  0.95617  1.0000
  H   H441      1.0  0.42961  0.49484  0.70646  1.0000
  C   C376      1.0  0.20956  0.90250  0.87455  1.0000
  H   H442      1.0  0.46382  0.53855  0.84776  1.0000
  C   C377      1.0  0.46317  0.50566  0.71762  1.0000
  C   C378      1.0  0.27894  0.76310  0.94686  1.0000
  S   S102      1.0  0.26472  0.86941  0.91443  1.0000
  C   C379      1.0  0.42073  0.61221  0.67141  1.0000
  C   C380      1.0  0.29321  0.96595  0.87946  1.0000
  H   H443      1.0  0.17327  0.77650  0.97115  1.0000
  H   H444      1.0  0.47352  0.59987  0.93115  1.0000
  C   C381      1.0  0.44288  0.69018  0.67313  1.0000
  H   H445      1.0  0.38688  0.85917  0.89423  1.0000
  H   H446      1.0  0.31230  0.95512  0.88734  1.0000
  C   C382      1.0  0.36569  0.87200  0.96264  1.0000
  H   H447      1.0  0.30918  0.72805  0.93598  1.0000
  C   C383      1.0  0.37094  0.62876  0.97339  1.0000
  C   C384      1.0  0.47014  0.57612  0.89004  1.0000
  C   C385      1.0  0.44230  0.81023  0.91154  1.0000
  C   C386      1.0  0.47046  0.64913  0.69195  1.0000
  H   H448      1.0  0.28468  0.98499  0.88784  1.0000
  C   C387      1.0  0.44466  0.79362  0.89287  1.0000
  H   H449      1.0  0.45909  0.59490  0.89674  1.0000
  S   S103      1.0  0.13157  0.96623  0.79778  1.0000
  H   H450      1.0  0.26732  0.97086  0.83587  1.0000
  C   C388      1.0  0.47221  0.54444  0.86197  1.0000
  H   H451      1.0  0.34948  0.64032  0.97925  1.0000
  H   H452      1.0  0.37224  0.52219  0.65630  1.0000
  C   C389      1.0  0.48390  0.64287  0.66797  1.0000
  H   H453      1.0  0.48835  0.82713  0.90662  1.0000
  H   H454      1.0  0.45858  0.79726  0.97055  1.0000
  H   H455      1.0  0.21712  0.96303  0.91062  1.0000
  C   C390      1.0  0.25978  0.77484  0.96637  1.0000
  H   H456      1.0  0.43236  0.78736  0.95980  1.0000
  H   H457      1.0  0.24506  0.72833  0.93073  1.0000
  H   H458      1.0  0.44020  0.58042  0.86596  1.0000
  H   H459      1.0  0.46352  0.84455  0.93036  1.0000
  C   C391      1.0  0.48131  0.77747  0.92870  1.0000
  S   S104      1.0  0.31195  0.68996  0.97982  1.0000
  H   H460      1.0  0.47050  0.58441  0.68360  1.0000
  N   N27       1.0  0.43789  0.58659  0.66290  1.0000
  H   H461      1.0  0.40558  0.62243  0.65868  1.0000
  H   H462      1.0  0.43363  0.62642  0.67174  1.0000
  C   C392      1.0  0.22035  0.97009  0.89070  1.0000
  C   C393      1.0  0.38515  0.53548  0.65736  1.0000
  H   H463      1.0  0.37147  0.73448  0.97895  1.0000
  Fe  Fe53      1.0  0.08593  0.97600  0.79774  1.0000
  H   H464      1.0  0.08146  0.98566  0.70680  1.0000
  Fe  Fe54      1.0  0.11987  0.98161  0.83509  1.0000
  H   H465      1.0  0.02523  0.98524  0.80680  1.0000
  H   H466      1.0  0.04348  0.98635  0.68711  1.0000
  H   H467      1.0  0.35720  0.79454  0.98228  1.0000
  H   H468      1.0  0.40268  0.65821  0.98267  1.0000
  H   H469      1.0  0.68056  0.38522  0.00784  1.0000
  H   H470      1.0  0.61906  0.99513  0.27894  1.0000
  H   H471      1.0  0.59616  0.47934  0.07809  1.0000
  C   C394      1.0  0.56072  0.24695  0.10271  1.0000
  H   H472      1.0  0.60685  0.14786  0.19241  1.0000
  C   C395      1.0  0.71550  0.29818  0.00088  1.0000
  H   H473      1.0  0.53818  0.15721  0.12124  1.0000
  C   C396      1.0  0.55954  0.43935  0.99510  1.0000
  H   H474      1.0  0.52017  0.00121  0.23646  1.0000
  H   H475      1.0  0.77720  0.47233  0.14114  1.0000
  H   H476      1.0  0.72976  0.19131  0.06281  1.0000
  C   C397      1.0  0.65152  0.44623  0.10592  1.0000
  H   H477      1.0  0.89395  0.44758  0.08506  1.0000
  Fe  Fe55      1.0  0.67992  0.11981  0.11668  1.0000
  S   S105      1.0  0.72226  0.09583  0.10273  1.0000
  C   C398      1.0  0.67888  0.03858  0.09183  1.0000
  Fe  Fe56      1.0  0.55896  0.33629  0.08047  1.0000
  S   S106      1.0  0.55945  0.35131  0.03947  1.0000
  Fe  Fe57      1.0  0.59286  0.37408  0.08683  1.0000
  S   S107      1.0  0.59691  0.39194  0.04626  1.0000
  S   S108      1.0  0.61532  0.38429  0.11357  1.0000
  Fe  Fe58      1.0  0.60412  0.34971  0.03844  1.0000
  S   S109      1.0  0.63506  0.33517  0.00533  1.0000
  S   S110      1.0  0.54707  0.37731  0.09257  1.0000
  S   S111      1.0  0.60445  0.33165  0.07864  1.0000
  H   H478      1.0  0.61939  0.21138  0.22560  1.0000
  C   C399      1.0  0.63153  0.03539  0.12997  1.0000
  S   S112      1.0  0.75016  0.26806  0.03282  1.0000
  S   S113      1.0  0.71648  0.47332  0.10589  1.0000
  H   H479      1.0  0.91174  0.42529  0.13624  1.0000
  H   H480      1.0  0.86323  0.46251  0.16149  1.0000
  S   S114      1.0  0.54062  0.30132  0.09938  1.0000
  C   C400      1.0  0.84460  0.43178  0.10473  1.0000
  H   H481      1.0  0.61247  0.01732  0.08092  1.0000
  Fe  Fe59      1.0  0.52504  0.13727  0.27237  1.0000
  H   H482      1.0  0.56310  0.09696  0.07824  1.0000
  S   S115      1.0  0.76042  0.40973  0.07941  1.0000
  Fe  Fe60      1.0  0.78127  0.28231  0.00099  1.0000
  H   H483      1.0  0.61154  0.22724  0.13444  1.0000
  S   S116      1.0  0.71320  0.47214  0.04635  1.0000
  C   C401      1.0  0.70252  0.04041  0.07374  1.0000
  C   C402      1.0  0.77706  0.01251  0.07073  1.0000
  S   S117      1.0  0.54033  0.10427  0.24818  1.0000
  S   S118      1.0  0.67265  0.16440  0.11444  1.0000
  C   C403      1.0  0.60081  0.22513  0.07466  1.0000
  H   H484      1.0  0.70809  0.41650  0.01490  1.0000
  N   N28       1.0  0.71116  0.20034  0.02935  1.0000
  H   H485      1.0  0.71974  0.15763  0.04070  1.0000
  S   S119      1.0  0.82711  0.27934  0.99668  1.0000
  H   H486      1.0  0.80520  0.02099  0.03668  1.0000
  C   C404      1.0  0.78560  0.20200  0.99707  1.0000
  Fe  Fe61      1.0  0.64664  0.15926  0.15261  1.0000
  C   C405      1.0  0.54301  0.05858  0.13272  1.0000
  H   H487      1.0  0.76262  0.20979  0.03288  1.0000
  C   C406      1.0  0.61587  0.17986  0.20680  1.0000
  H   H488      1.0  0.66909  0.22430  0.03347  1.0000
  H   H489      1.0  0.55421  0.05854  0.16848  1.0000
  Fe  Fe62      1.0  0.62032  0.11961  0.13892  1.0000
  C   C407      1.0  0.81267  0.37262  0.01053  1.0000
  C   C408      1.0  0.81030  0.39974  0.01197  1.0000
  C   C409      1.0  0.79371  0.41155  0.03283  1.0000
  C   C410      1.0  0.78058  0.39587  0.05275  1.0000
  C   C411      1.0  0.78363  0.36865  0.05157  1.0000
  C   C412      1.0  0.79912  0.35716  0.03027  1.0000
  H   H490      1.0  0.71133  0.36011  0.01021  1.0000
  H   H491      1.0  0.79171  0.43252  0.03383  1.0000
  H   H492      1.0  0.77392  0.35640  0.06709  1.0000
  H   H493      1.0  0.80118  0.33613  0.02943  1.0000
  C   C413      1.0  0.66608  0.31431  0.01310  1.0000
  C   C414      1.0  0.66753  0.29925  0.03694  1.0000
  C   C415      1.0  0.69326  0.28420  0.04289  1.0000
  C   C416      1.0  0.71742  0.28409  0.02494  1.0000
  C   C417      1.0  0.58321  0.19616  0.24303  1.0000
  C   C418      1.0  0.51154  0.45778  0.99076  1.0000
  H   H494      1.0  0.64892  0.29916  0.05072  1.0000
  H   H495      1.0  0.69453  0.27308  0.06144  1.0000
  H   H496      1.0  0.69732  0.16925  0.01754  1.0000
  C   C419      1.0  0.63391  0.46728  0.09329  1.0000
  C   C420      1.0  0.62175  0.41647  0.10613  1.0000
  C   C421      1.0  0.64511  0.42103  0.11284  1.0000
  H   H497      1.0  0.65860  0.40489  0.12291  1.0000
  S   S120      1.0  0.65769  0.11454  0.15640  1.0000
  H   H498      1.0  0.58516  0.29264  0.05692  1.0000
  C   C422      1.0  0.58359  0.27346  0.06782  1.0000
  H   H499      1.0  0.87998  0.41534  0.15078  1.0000
  C   C423      1.0  0.60740  0.19712  0.22522  1.0000
  H   H500      1.0  0.61225  0.03338  0.14364  1.0000
  C   C424      1.0  0.56280  0.27196  0.08899  1.0000
  C   C425      1.0  0.87379  0.46926  0.14234  1.0000
  H   H501      1.0  0.80386  0.20660  0.00095  1.0000
  H   H502      1.0  0.69379  0.20798  0.06762  1.0000
  C   C426      1.0  0.89116  0.42427  0.13283  1.0000
  H   H503      1.0  0.50585  0.04691  0.24828  1.0000
  C   C427      1.0  0.52344  0.17548  0.12604  1.0000
  S   S121      1.0  0.62361  0.99638  0.18964  1.0000
  H   H504      1.0  0.65728  0.99337  0.06731  1.0000
  H   H505      1.0  0.53137  0.04334  0.13993  1.0000
  C   C428      1.0  0.50159  0.04355  0.23089  1.0000
  S   S122      1.0  0.59186  0.09310  0.15889  1.0000
  C   C429      1.0  0.58522  0.02423  0.26503  1.0000
  C   C430      1.0  0.60848  0.00295  0.26311  1.0000
  C   C431      1.0  0.79456  0.44325  0.11547  1.0000
  C   C432      1.0  0.60615  0.00384  0.21935  1.0000
  C   C433      1.0  0.58128  0.02330  0.22189  1.0000
  C   C434      1.0  0.57082  0.03354  0.24484  1.0000
  C   C435      1.0  0.61814  0.25022  0.17099  1.0000
  S   S123      1.0  0.83249  0.35815  0.98406  1.0000
  H   H506      1.0  0.57109  0.03170  0.20578  1.0000
  C   C436      1.0  0.66174  0.02139  0.09048  1.0000
  C   C437      1.0  0.74936  0.01717  0.15266  1.0000
  C   C438      1.0  0.76901  0.02989  0.13692  1.0000
  C   C439      1.0  0.76045  0.05412  0.12174  1.0000
  C   C440      1.0  0.73224  0.06598  0.12261  1.0000
  C   C441      1.0  0.71249  0.05351  0.13869  1.0000
  C   C442      1.0  0.72105  0.02887  0.15346  1.0000
  H   H507      1.0  0.79090  0.02090  0.13631  1.0000
  H   H508      1.0  0.77576  0.06381  0.10945  1.0000
  H   H509      1.0  0.69067  0.06275  0.13967  1.0000
  H   H510      1.0  0.70578  0.01926  0.16585  1.0000
  C   C443      1.0  0.69008  0.31352  0.99510  1.0000
  Fe  Fe63      1.0  0.74322  0.45404  0.07293  1.0000
  N   N29       1.0  0.69746  0.38346  0.04148  1.0000
  C   C444      1.0  0.69193  0.37045  0.02167  1.0000
  C   C445      1.0  0.67061  0.40066  0.05200  1.0000
  C   C446      1.0  0.71689  0.40073  0.02949  1.0000
  C   C447      1.0  0.70980  0.36399  0.06162  1.0000
  C   C448      1.0  0.71116  0.37245  0.08445  1.0000
  C   C449      1.0  0.72286  0.33687  0.05842  1.0000
  C   C450      1.0  0.72391  0.35467  0.10320  1.0000
  C   C451      1.0  0.73544  0.31919  0.07734  1.0000
  C   C452      1.0  0.73581  0.32801  0.09976  1.0000
  H   H511      1.0  0.67892  0.35582  0.03008  1.0000
  C   C453      1.0  0.56777  0.17753  0.24284  1.0000
  H   H512      1.0  0.59227  0.02851  0.10922  1.0000
  H   H513      1.0  0.65662  0.38828  0.06402  1.0000
  H   H514      1.0  0.57664  0.20967  0.25713  1.0000
  H   H515      1.0  0.67322  0.41513  0.06336  1.0000
  H   H516      1.0  0.72172  0.41110  0.04347  1.0000
  C   C454      1.0  0.70969  0.02546  0.05371  1.0000
  H   H517      1.0  0.73698  0.38869  0.02047  1.0000
  H   H518      1.0  0.70341  0.39316  0.08760  1.0000
  H   H519      1.0  0.72417  0.32897  0.04123  1.0000
  H   H520      1.0  0.72521  0.36192  0.12015  1.0000
  H   H521      1.0  0.74546  0.29865  0.07429  1.0000
  H   H522      1.0  0.74603  0.31436  0.11416  1.0000
  Fe  Fe64      1.0  0.55190  0.39202  0.05101  1.0000
  C   C455      1.0  0.64321  0.32502  0.14555  1.0000
  H   H523      1.0  0.60978  0.26415  0.18531  1.0000
  C   C456      1.0  0.62882  0.30463  0.15275  1.0000
  H   H524      1.0  0.64007  0.24042  0.17288  1.0000
  H   H525      1.0  0.61328  0.30601  0.16959  1.0000
  H   H526      1.0  0.63852  0.34147  0.15657  1.0000
  N   N30       1.0  0.64765  0.07008  0.22992  1.0000
  C   C457      1.0  0.63829  0.05896  0.21103  1.0000
  C   C458      1.0  0.65558  0.04828  0.25043  1.0000
  C   C459      1.0  0.62355  0.09008  0.24115  1.0000
  C   C460      1.0  0.67186  0.08135  0.21760  1.0000
  C   C461      1.0  0.69660  0.06450  0.20643  1.0000
  C   C462      1.0  0.67155  0.10901  0.21573  1.0000
  C   C463      1.0  0.71945  0.07473  0.19388  1.0000
  C   C464      1.0  0.69454  0.11903  0.20308  1.0000
  C   C465      1.0  0.71835  0.10197  0.19206  1.0000
  H   H527      1.0  0.61890  0.05222  0.21902  1.0000
  H   H528      1.0  0.63378  0.07430  0.19452  1.0000
  H   H529      1.0  0.65374  0.04135  0.20389  1.0000
  H   H530      1.0  0.67055  0.03044  0.24323  1.0000
  H   H531      1.0  0.63733  0.04095  0.26160  1.0000
  H   H532      1.0  0.66509  0.05532  0.26375  1.0000
  H   H533      1.0  0.61540  0.10619  0.22646  1.0000
  H   H534      1.0  0.60591  0.08076  0.25063  1.0000
  H   H535      1.0  0.62895  0.09925  0.25569  1.0000
  H   H536      1.0  0.69831  0.04329  0.20696  1.0000
  H   H537      1.0  0.65362  0.12355  0.22325  1.0000
  H   H538      1.0  0.73796  0.06152  0.18514  1.0000
  H   H539      1.0  0.73589  0.10993  0.18183  1.0000
  C   C466      1.0  0.50182  0.22140  0.11181  1.0000
  H   H540      1.0  0.57327  0.26328  0.14681  1.0000
  C   C467      1.0  0.81870  0.42894  0.10210  1.0000
  N   N31       1.0  0.63614  0.01949  0.10889  1.0000
  H   H541      1.0  0.54818  0.16634  0.17963  1.0000
  H   H542      1.0  0.61039  0.05056  0.08694  1.0000
  H   H543      1.0  0.89492  0.47033  0.14420  1.0000
  C   C468      1.0  0.61190  0.02938  0.09586  1.0000
  C   C469      1.0  0.50862  0.17751  0.15098  1.0000
  Fe  Fe65      1.0  0.54250  0.07708  0.28481  1.0000
  S   S124      1.0  0.97238  0.47371  0.28862  1.0000
  H   H544      1.0  0.89540  0.40995  0.11895  1.0000
  C   C470      1.0  0.54306  0.14878  0.17438  1.0000
  S   S125      1.0  0.52021  0.42611  0.03500  1.0000
  C   C471      1.0  0.66966  0.00643  0.06982  1.0000
  C   C472      1.0  0.57643  0.16014  0.22455  1.0000
  H   H545      1.0  0.64997  0.46978  0.01612  1.0000
  C   C473      1.0  0.68870  0.22158  0.01944  1.0000
  H   H546      1.0  0.56696  0.45990  0.03564  1.0000
  H   H547      1.0  0.82145  0.47798  0.14628  1.0000
  H   H548      1.0  0.57783  0.20436  0.10608  1.0000
  H   H549      1.0  0.86269  0.42033  0.09384  1.0000
  H   H550      1.0  0.52384  0.48131  0.03341  1.0000
  H   H551      1.0  0.69860  0.99729  0.03584  1.0000
  H   H552      1.0  0.82132  0.41152  0.99699  1.0000
  H   H553      1.0  0.64874  0.02863  0.14103  1.0000
  S   S126      1.0  0.77178  0.32631  0.98807  1.0000
  C   C474      1.0  0.54622  0.06873  0.10710  1.0000
  C   C475      1.0  0.58693  0.27758  0.14371  1.0000
  C   C476      1.0  0.60421  0.43741  0.09328  1.0000
  C   C477      1.0  0.69325  0.00855  0.05169  1.0000
  S   S127      1.0  0.53758  0.17659  0.26536  1.0000
  C   C478      1.0  0.60896  0.46256  0.02452  1.0000
  S   S128      1.0  0.62590  0.19632  0.06650  1.0000
  C   C479      1.0  0.63337  0.28377  0.13784  1.0000
  H   H554      1.0  0.58603  0.11228  0.10687  1.0000
  H   H555      1.0  0.61624  0.44161  0.02192  1.0000
  H   H556      1.0  0.68353  0.21695  0.00227  1.0000
  S   S129      1.0  0.49951  0.07129  0.29050  1.0000
  C   C480      1.0  0.66231  0.32540  0.12326  1.0000
  C   C481      1.0  0.53135  0.44148  0.00470  1.0000
  H   H557      1.0  0.66985  0.44943  0.11078  1.0000
  H   H558      1.0  0.67220  0.34208  0.11716  1.0000
  H   H559      1.0  0.58604  0.43399  0.08822  1.0000
  H   H560      1.0  0.52127  0.12429  0.14660  1.0000
  H   H561      1.0  0.60613  0.23435  0.17641  1.0000
  H   H562      1.0  0.71878  0.22668  0.05187  1.0000
  C   C482      1.0  0.73708  0.19854  0.01054  1.0000
  H   H563      1.0  0.61851  0.25145  0.04423  1.0000
  N   N32       1.0  0.51371  0.15467  0.17123  1.0000
  H   H564      1.0  0.62885  0.05721  0.12319  1.0000
  C   C483      1.0  0.66753  0.30516  0.10828  1.0000
  C   C484      1.0  0.55596  0.06720  0.14887  1.0000
  C   C485      1.0  0.62799  0.47841  0.02114  1.0000
  H   H565      1.0  0.68195  0.30603  0.09068  1.0000
  H   H566      1.0  0.68413  0.17459  0.04933  1.0000
  H   H567      1.0  0.67426  0.05125  0.10644  1.0000
  C   C486      1.0  0.57223  0.08590  0.13940  1.0000
  H   H568      1.0  0.69469  0.24123  0.01452  1.0000
  C   C487      1.0  0.60243  0.25007  0.06055  1.0000
  C   C488      1.0  0.97234  0.47823  0.25608  1.0000
  C   C489      1.0  0.60034  0.16139  0.20646  1.0000
  S   S130      1.0  0.57638  0.04101  0.29148  1.0000
  C   C490      1.0  0.84704  0.44903  0.12105  1.0000
  C   C491      1.0  0.57973  0.22357  0.09558  1.0000
  H   H569      1.0  0.55743  0.14354  0.15683  1.0000
  N   N33       1.0  0.61620  0.26368  0.14493  1.0000
  C   C492      1.0  0.65339  0.28450  0.11536  1.0000
  C   C493      1.0  0.57387  0.09749  0.11418  1.0000
  H   H570      1.0  0.69357  0.14032  0.20131  1.0000
  H   H571      1.0  0.58519  0.28968  0.12493  1.0000
  H   H572      1.0  0.56445  0.14607  0.22400  1.0000
  H   H573      1.0  0.75035  0.99939  0.10329  1.0000
  H   H574      1.0  0.64631  0.23123  0.12819  1.0000
  S   S131      1.0  0.60744  0.16421  0.13804  1.0000
  H   H575      1.0  0.53196  0.19523  0.08805  1.0000
  C   C494      1.0  0.79615  0.46072  0.13126  1.0000
  S   S132      1.0  0.64353  0.12089  0.09914  1.0000
  H   H576      1.0  0.65790  0.26989  0.10251  1.0000
  Fe  Fe66      1.0  0.63429  0.16537  0.09992  1.0000
  C   C495      1.0  0.52002  0.19712  0.10683  1.0000
  N   N34       1.0  0.87478  0.45113  0.12396  1.0000
  S   S133      1.0  0.64546  0.18197  0.18391  1.0000
  H   H577      1.0  0.57808  0.29169  0.15788  1.0000
  H   H578      1.0  0.62135  0.25085  0.10854  1.0000
  C   C496      1.0  0.71361  0.20684  0.05396  1.0000
  H   H579      1.0  0.55235  0.04940  0.24644  1.0000
  C   C497      1.0  0.56068  0.08901  0.09805  1.0000
  C   C498      1.0  0.62436  0.24241  0.12821  1.0000
  C   C499      1.0  0.82192  0.46373  0.13406  1.0000
  S   S134      1.0  0.53638  0.05313  0.08583  1.0000
  H   H580      1.0  0.81716  0.41561  0.08960  1.0000
  H   H581      1.0  0.54471  0.24573  0.11911  1.0000
  C   C500      1.0  0.70282  0.17434  0.03434  1.0000
  H   H582      1.0  0.54810  0.13132  0.18910  1.0000
  H   H583      1.0  0.65951  0.41331  0.03693  1.0000
  Fe  Fe67      1.0  0.53086  0.01213  0.10380  1.0000
  C   C501      1.0  0.63709  0.99120  0.12009  1.0000
  H   H584      1.0  0.77303  0.03251  0.07585  1.0000
  C   C502      1.0  0.88961  0.46149  0.09930  1.0000
  C   C503      1.0  0.60995  0.46299  0.08748  1.0000
  C   C504      1.0  0.79514  0.00606  0.04865  1.0000
  H   H585      1.0  0.77455  0.44091  0.11344  1.0000
  H   H586      1.0  0.57498  0.42657  0.00552  1.0000
  C   C505      1.0  0.76154  0.20381  0.01533  1.0000
  C   C506      1.0  0.94723  0.48450  0.24706  1.0000
  C   C507      1.0  0.58066  0.47346  0.03168  1.0000
  H   H587      1.0  0.71507  0.05393  0.07513  1.0000
  H   H588      1.0  0.73358  0.29782  0.98659  1.0000
  H   H589      1.0  0.49969  0.23833  0.09697  1.0000
  H   H590      1.0  0.72787  0.02726  0.03958  1.0000
  H   H591      1.0  0.90984  0.46509  0.10093  1.0000
  C   C508      1.0  0.73831  0.19155  0.98636  1.0000
  C   C509      1.0  0.61894  0.99269  0.24028  1.0000
  H   H592      1.0  0.53728  0.47948  0.07314  1.0000
  H   H593      1.0  0.87719  0.48099  0.09144  1.0000
  C   C510      1.0  0.50962  0.01755  0.22420  1.0000
  C   C511      1.0  0.50370  0.01266  0.20189  1.0000
  H   H594      1.0  0.92806  0.48447  0.26007  1.0000
  H   H595      1.0  0.76259  0.43739  0.98855  1.0000
  H   H596      1.0  0.74693  0.47200  0.99198  1.0000
  C   C512      1.0  0.76421  0.99331  0.08636  1.0000
  H   H597      1.0  0.50096  0.14198  0.21072  1.0000
  C   C513      1.0  0.50815  0.13049  0.16443  1.0000
  H   H598      1.0  0.49833  0.22297  0.29373  1.0000
  S   S135      1.0  0.53161  0.11023  0.30843  1.0000
  H   H599      1.0  0.51251  0.11275  0.17903  1.0000
  Fe  Fe68      1.0  0.49604  0.10121  0.25574  1.0000
  H   H600      1.0  0.61903  0.98951  0.13544  1.0000
  C   C514      1.0  0.50640  0.22028  0.31166  1.0000
  H   H601      1.0  0.52724  0.20629  0.30855  1.0000
  S   S136      1.0  0.76791  0.48542  0.06051  1.0000
  S   S137      1.0  0.55836  0.98761  0.13083  1.0000
  H   H602      1.0  0.50055  0.17672  0.20321  1.0000
  H   H603      1.0  0.50978  0.23967  0.31457  1.0000
  C   C515      1.0  0.49641  0.15967  0.19615  1.0000
  S   S138      1.0  0.49104  0.00484  0.12729  1.0000
  C   C516      1.0  0.57345  0.38554  0.63236  1.0000
  H   H604      1.0  0.52281  0.19094  0.35224  1.0000
  H   H605      1.0  0.63126  0.38367  0.62722  1.0000
  C   C517      1.0  0.50160  0.20410  0.35572  1.0000
  C   C518      1.0  0.55900  0.41231  0.59499  1.0000
  N   N35       1.0  0.58366  0.39778  0.60660  1.0000
  H   H606      1.0  0.50500  0.16913  0.32424  1.0000
  N   N36       1.0  0.56224  0.01880  0.36974  1.0000
  C   C519      1.0  0.59929  0.37603  0.59144  1.0000
  C   C520      1.0  0.59738  0.44276  0.59752  1.0000
  C   C521      1.0  0.64394  0.42049  0.62045  1.0000
  H   H607      1.0  0.61136  0.47953  0.59074  1.0000
  C   C522      1.0  0.60213  0.41519  0.60781  1.0000
  H   H608      1.0  0.59698  0.01248  0.33918  1.0000
  H   H609      1.0  0.59026  0.37200  0.64182  1.0000
  H   H610      1.0  0.94145  0.09644  0.63762  1.0000
  H   H611      1.0  0.56484  0.42067  0.57494  1.0000
  H   H612      1.0  0.53807  0.04166  0.34168  1.0000
  H   H613      1.0  0.54642  0.42915  0.60533  1.0000
  C   C523      1.0  0.52375  0.05389  0.39146  1.0000
  C   C524      1.0  0.56689  0.03716  0.40763  1.0000
  H   H614      1.0  0.55251  0.00751  0.33723  1.0000
  H   H615      1.0  0.57994  0.45274  0.58826  1.0000
  H   H616      1.0  0.58456  0.04652  0.34567  1.0000
  C   C525      1.0  0.96553  0.05568  0.64090  1.0000
  H   H617      1.0  0.52196  0.08309  0.44273  1.0000
  H   H618      1.0  0.56926  0.05371  0.44022  1.0000
  C   C526      1.0  0.62612  0.40450  0.61916  1.0000
  H   H619      1.0  0.66198  0.41197  0.62944  1.0000
  H   H620      1.0  0.51355  0.14072  0.38696  1.0000
  C   C527      1.0  0.54305  0.02098  0.35199  1.0000
  H   H621      1.0  0.50994  0.05523  0.37848  1.0000
  H   H622      1.0  0.49276  0.08289  0.41208  1.0000
  S   S139      1.0  0.49923  0.46237  0.58297  1.0000
  C   C528      1.0  0.55084  0.03677  0.38942  1.0000
  H   H623      1.0  0.60809  0.38445  0.57216  1.0000
  H   H624      1.0  0.54481  0.39913  0.59523  1.0000
  H   H625      1.0  0.58579  0.36303  0.58941  1.0000
  C   C529      1.0  0.98488  0.09477  0.63482  1.0000
  H   H626      1.0  0.61678  0.36263  0.60013  1.0000
  C   C530      1.0  0.55658  0.05373  0.42656  1.0000
  H   H627      1.0  0.60491  0.02156  0.36595  1.0000
  H   H628      1.0  0.50584  0.11504  0.35648  1.0000
  H   H629      1.0  0.86014  0.99998  0.63819  1.0000
  S   S140      1.0  0.97978  0.12911  0.63632  1.0000
  H   H630      1.0  0.52348  0.01525  0.36185  1.0000
  H   H631      1.0  0.56236  0.40115  0.64468  1.0000
  C   C531      1.0  0.58821  0.02523  0.35460  1.0000
  C   C532      1.0  0.52996  0.07020  0.42807  1.0000
  C   C533      1.0  0.81068  0.98787  0.63272  1.0000
  C   C534      1.0  0.51355  0.07012  0.41068  1.0000
  H   H632      1.0  0.94765  0.04710  0.64415  1.0000
  C   C535      1.0  0.63848  0.44750  0.61042  1.0000
  C   C536      1.0  0.96201  0.08361  0.63735  1.0000
  H   H633      1.0  0.65228  0.45990  0.61145  1.0000
  C   C537      1.0  0.61535  0.45855  0.59887  1.0000
  H   H634      1.0  0.58758  0.02454  0.40738  1.0000
  H   H635      1.0  0.56486  0.46523  0.64156  1.0000
  H   H636      1.0  0.54241  0.47797  0.54493  1.0000
  H   H637      1.0  0.83604  0.03064  0.62840  1.0000
  H   H638      1.0  0.55860  0.37313  0.63223  1.0000
  C   C538      1.0  0.84481  0.01797  0.64475  1.0000
  C   C539      1.0  0.56856  0.99052  0.38182  1.0000
  H   H639      1.0  0.82659  0.99376  0.61790  1.0000
  C   C540      1.0  0.52018  0.48462  0.58215  1.0000
  C   C541      1.0  0.49295  0.13826  0.38722  1.0000
  H   H640      1.0  0.50330  0.22310  0.36114  1.0000
  H   H641      1.0  0.67237  0.42598  0.79942  1.0000
  C   C542      1.0  0.86702  0.07486  0.73512  1.0000
  H   H642      1.0  0.86905  0.08948  0.76897  1.0000
  S   S141      1.0  0.58506  0.43891  0.75459  1.0000
  S   S142      1.0  0.59195  0.38902  0.80166  1.0000
  Fe  Fe69      1.0  0.89125  0.10667  0.83463  1.0000
  H   H643      1.0  0.90163  0.03304  0.78161  1.0000
  S   S143      1.0  0.74613  0.33552  0.92447  1.0000
  H   H644      1.0  0.98754  0.01691  0.73314  1.0000
  S   S144      1.0  0.60799  0.36350  0.73661  1.0000
  C   C543      1.0  0.84889  0.02662  0.78402  1.0000
  Fe  Fe70      1.0  0.65465  0.46939  0.94786  1.0000
  H   H645      1.0  0.89419  0.02052  0.85127  1.0000
  N   N37       1.0  0.76606  0.46486  0.95408  1.0000
  H   H646      1.0  0.62192  0.48048  0.68876  1.0000
  C   C544      1.0  0.58987  0.38571  0.96103  1.0000
  S   S145      1.0  0.64417  0.47918  0.74090  1.0000
  C   C545      1.0  0.80657  0.99408  0.65767  1.0000
  S   S146      1.0  0.63688  0.45989  0.91749  1.0000
  C   C546      1.0  0.82637  0.18793  0.90059  1.0000
  H   H647      1.0  0.67253  0.39414  0.87749  1.0000
  S   S147      1.0  0.89007  0.12363  0.79415  1.0000
  S   S148      1.0  0.90465  0.19491  0.78445  1.0000
  Fe  Fe71      1.0  0.84405  0.13007  0.80551  1.0000
  S   S149      1.0  0.81451  0.12408  0.78305  1.0000
  S   S150      1.0  0.61153  0.44394  0.80325  1.0000
  Fe  Fe72      1.0  0.84328  0.15042  0.85418  1.0000
  C   C547      1.0  0.66805  0.32958  0.89460  1.0000
  H   H648      1.0  0.63854  0.31470  0.95569  1.0000
  S   S151      1.0  0.86306  0.05802  0.69144  1.0000
  H   H649      1.0  0.62636  0.40208  0.90375  1.0000
  S   S152      1.0  0.83811  0.17119  0.81543  1.0000
  H   H650      1.0  0.81132  0.24974  0.91906  1.0000
  C   C548      1.0  0.79299  0.41946  0.94239  1.0000
  Fe  Fe73      1.0  0.88427  0.16309  0.80776  1.0000
  C   C549      1.0  0.67958  0.43395  0.86645  1.0000
  C   C550      1.0  0.76257  0.18959  0.96831  1.0000
  H   H651      1.0  0.55101  0.35714  0.78154  1.0000
  C   C551      1.0  0.82899  0.10530  0.75800  1.0000
  C   C552      1.0  0.85634  0.08993  0.75535  1.0000
  C   C553      1.0  0.85048  0.07580  0.71731  1.0000
  H   H652      1.0  0.53341  0.42942  0.88984  1.0000
  H   H653      1.0  0.72184  0.30441  0.83332  1.0000
  C   C554      1.0  0.55859  0.41103  0.93272  1.0000
  C   C555      1.0  0.94900  0.14576  0.69814  1.0000
  C   C556      1.0  0.93873  0.17918  0.77291  1.0000
  C   C557      1.0  0.95299  0.19028  0.75044  1.0000
  H   H654      1.0  0.61764  0.43643  0.87449  1.0000
  C   C558      1.0  0.95111  0.15458  0.78542  1.0000
  H   H655      1.0  0.94330  0.20926  0.74067  1.0000
  Fe  Fe74      1.0  0.82851  0.27095  0.95742  1.0000
  H   H656      1.0  0.94008  0.14588  0.80269  1.0000
  C   C559      1.0  0.72749  0.36530  0.93641  1.0000
  C   C560      1.0  0.70049  0.37739  0.93210  1.0000
  C   C561      1.0  0.68552  0.40042  0.94318  1.0000
  C   C562      1.0  0.69752  0.41108  0.95865  1.0000
  C   C563      1.0  0.72459  0.39916  0.96248  1.0000
  C   C564      1.0  0.73959  0.37668  0.95106  1.0000
  C   C565      1.0  0.67465  0.41007  0.86206  1.0000
  H   H657      1.0  0.66444  0.40928  0.94051  1.0000
  H   H658      1.0  0.82150  0.99098  0.70394  1.0000
  H   H659      1.0  0.76095  0.36859  0.95302  1.0000
  S   S153      1.0  0.64743  0.40275  0.76280  1.0000
  C   C566      1.0  0.81140  0.21378  0.90502  1.0000
  N   N38       1.0  0.87690  0.02336  0.81777  1.0000
  C   C567      1.0  0.49473  0.40720  0.76779  1.0000
  C   C568      1.0  0.56305  0.39702  0.95638  1.0000
  H   H660      1.0  0.82670  0.05763  0.83713  1.0000
  H   H661      1.0  0.74106  0.27357  0.88002  1.0000
  S   S154      1.0  0.65721  0.38150  0.83379  1.0000
  H   H662      1.0  0.81547  0.04862  0.67831  1.0000
  H   H663      1.0  0.68924  0.32545  0.97678  1.0000
  S   S155      1.0  0.86155  0.23810  0.93998  1.0000
  C   C569      1.0  0.82329  0.09130  0.71996  1.0000
  C   C570      1.0  0.53199  0.36693  0.77433  1.0000
  H   H664      1.0  0.89210  0.05868  0.80180  1.0000
  H   H665      1.0  0.59189  0.46121  0.89092  1.0000
  H   H666      1.0  0.53726  0.41970  0.93072  1.0000
  C   C571      1.0  0.78397  0.40088  0.90843  1.0000
  H   H667      1.0  0.88263  0.18483  0.92656  1.0000
  C   C572      1.0  0.97590  0.04359  0.83607  1.0000
  H   H668      1.0  0.72151  0.28571  0.92010  1.0000
  H   H669      1.0  0.54123  0.45782  0.89935  1.0000
  H   H670      1.0  0.56063  0.40668  0.72394  1.0000
  C   C573      1.0  0.70601  0.30596  0.85081  1.0000
  C   C574      1.0  0.69538  0.31350  0.89462  1.0000
  C   C575      1.0  0.76235  0.42319  0.90463  1.0000
  C   C576      1.0  0.64246  0.43940  0.69301  1.0000
  H   H671      1.0  0.52412  0.40755  0.69945  1.0000
  H   H672      1.0  0.58077  0.41586  0.85047  1.0000
  C   C577      1.0  0.95415  0.16589  0.88404  1.0000
  H   H673      1.0  0.54601  0.45395  0.86675  1.0000
  C   C578      1.0  0.59528  0.44649  0.87758  1.0000
  H   H674      1.0  0.82417  0.03161  0.75526  1.0000
  H   H675      1.0  0.54436  0.45708  0.67217  1.0000
  C   C579      1.0  0.89820  0.03660  0.80154  1.0000
  C   C580      1.0  0.65410  0.31412  0.93869  1.0000
  H   H676      1.0  0.68753  0.32107  0.84525  1.0000
  C   C581      1.0  0.56105  0.34331  0.69588  1.0000
  H   H677      1.0  0.70013  0.28632  0.85667  1.0000
  C   C582      1.0  0.96364  0.09165  0.83619  1.0000
  S   S156      1.0  0.50819  0.43934  0.65084  1.0000
  H   H678      1.0  0.94806  0.11012  0.83797  1.0000
  H   H679      1.0  0.57141  0.39165  0.87652  1.0000
  C   C583      1.0  0.70115  0.29783  0.91783  1.0000
  N   N39       1.0  0.93250  0.12599  0.71100  1.0000
  C   C584      1.0  0.94304  0.11263  0.73452  1.0000
  C   C585      1.0  0.93748  0.10511  0.69435  1.0000
  Fe  Fe75      1.0  0.63102  0.40007  0.80411  1.0000
  C   C586      1.0  0.90295  0.14001  0.71688  1.0000
  C   C587      1.0  0.89462  0.15945  0.73375  1.0000
  C   C588      1.0  0.88183  0.13533  0.70596  1.0000
  C   C589      1.0  0.86682  0.17240  0.74032  1.0000
  C   C590      1.0  0.85412  0.14881  0.71230  1.0000
  C   C591      1.0  0.84656  0.16690  0.72979  1.0000
  H   H680      1.0  0.93049  0.09830  0.74523  1.0000
  C   C592      1.0  0.58421  0.40677  0.86990  1.0000
  H   H681      1.0  0.94261  0.12712  0.74721  1.0000
  H   H682      1.0  0.92574  0.08942  0.70286  1.0000
  N   N40       1.0  0.82278  0.01030  0.66524  1.0000
  Fe  Fe76      1.0  0.77707  0.31454  0.94971  1.0000
  C   C593      1.0  0.80292  0.06013  0.80911  1.0000
  Fe  Fe77      1.0  0.62461  0.44580  0.76164  1.0000
  H   H683      1.0  0.54561  0.39548  0.97149  1.0000
  H   H684      1.0  0.90954  0.16456  0.74227  1.0000
  H   H685      1.0  0.88598  0.12105  0.69281  1.0000
  H   H686      1.0  0.86100  0.18654  0.75391  1.0000
  H   H687      1.0  0.83827  0.14453  0.70418  1.0000
  H   H688      1.0  0.82491  0.17638  0.73545  1.0000
  N   N41       1.0  0.89708  0.23338  0.85062  1.0000
  C   C594      1.0  0.87367  0.22354  0.84648  1.0000
  C   C595      1.0  0.88530  0.25556  0.86625  1.0000
  C   C596      1.0  0.91097  0.24490  0.82597  1.0000
  C   C597      1.0  0.91694  0.21070  0.86228  1.0000
  C   C598      1.0  0.93156  0.18890  0.84883  1.0000
  C   C599      1.0  0.92184  0.20905  0.88721  1.0000
  C   C600      1.0  0.94990  0.16693  0.85956  1.0000
  C   C601      1.0  0.94017  0.18691  0.89781  1.0000
  C   C602      1.0  0.97947  0.17635  0.74015  1.0000
  H   H689      1.0  0.86294  0.21445  0.86452  1.0000
  H   H690      1.0  0.85801  0.23989  0.83790  1.0000
  H   H691      1.0  0.88059  0.20789  0.83371  1.0000
  H   H692      1.0  0.87273  0.24892  0.88439  1.0000
  H   H693      1.0  0.87104  0.27259  0.85674  1.0000
  H   H694      1.0  0.90186  0.26362  0.87049  1.0000
  H   H695      1.0  0.91758  0.23056  0.81191  1.0000
  H   H696      1.0  0.86959  0.05077  0.84498  1.0000
  H   H697      1.0  0.92974  0.25098  0.82811  1.0000
  H   H698      1.0  0.92847  0.18839  0.83003  1.0000
  H   H699      1.0  0.91128  0.22426  0.89923  1.0000
  C   C603      1.0  0.79220  0.47068  0.95735  1.0000
  C   C604      1.0  0.82467  0.03619  0.77366  1.0000
  H   H700      1.0  0.80562  0.47441  0.93881  1.0000
  C   C605      1.0  0.51891  0.39342  0.77804  1.0000
  S   S157      1.0  0.88943  0.14573  0.84753  1.0000
  H   H701      1.0  0.78810  0.38444  0.89751  1.0000
  Fe  Fe78      1.0  0.60658  0.39534  0.75982  1.0000
  C   C606      1.0  0.56789  0.45438  0.97213  1.0000
  C   C607      1.0  0.80391  0.03540  0.67329  1.0000
  C   C608      1.0  0.82242  0.22943  0.91668  1.0000
  C   C609      1.0  0.51987  0.47205  0.96739  1.0000
  S   S158      1.0  0.82224  0.31398  0.93979  1.0000
  S   S159      1.0  0.51495  0.36582  0.67501  1.0000
  H   H702      1.0  0.73860  0.46019  0.91601  1.0000
  Fe  Fe79      1.0  0.57399  0.43336  0.79683  1.0000
  N   N42       1.0  0.71638  0.31352  0.87127  1.0000
  H   H703      1.0  0.68562  0.28623  0.95693  1.0000
  H   H704      1.0  0.97566  0.00002  0.80244  1.0000
  C   C610      1.0  0.79913  0.39894  0.92740  1.0000
  H   H705      1.0  0.68237  0.43589  0.88497  1.0000
  H   H706      1.0  0.53198  0.33309  0.75698  1.0000
  H   H707      1.0  0.96806  0.14861  0.89244  1.0000
  H   H708      1.0  0.94175  0.15626  0.68030  1.0000
  H   H709      1.0  0.50991  0.45071  0.74091  1.0000
  C   C611      1.0  0.81248  0.10574  0.74041  1.0000
  H   H710      1.0  0.88803  0.06283  0.73315  1.0000
  H   H711      1.0  0.97133  0.13593  0.69309  1.0000
  H   H712      1.0  0.73821  0.34146  0.84652  1.0000
  C   C612      1.0  0.58143  0.36559  0.71981  1.0000
  C   C613      1.0  0.77192  0.44305  0.93833  1.0000
  N   N43       1.0  0.57708  0.42735  0.88711  1.0000
  H   H713      1.0  0.65800  0.39658  0.69768  1.0000
  S   S160      1.0  0.53241  0.45238  0.81746  1.0000
  C   C614      1.0  0.58114  0.41388  0.91277  1.0000
  H   H714      1.0  0.72770  0.34804  0.87867  1.0000
  C   C615      1.0  0.55463  0.47237  0.65991  1.0000
  H   H715      1.0  0.86658  0.01490  0.77292  1.0000
  C   C616      1.0  0.85071  0.03316  0.80758  1.0000
  H   H716      1.0  0.70292  0.35564  0.85815  1.0000
  H   H717      1.0  0.79137  0.11762  0.74244  1.0000
  C   C617      1.0  0.67065  0.40774  0.83815  1.0000
  H   H718      1.0  0.79149  0.22184  0.89907  1.0000
  Fe  Fe80      1.0  0.95848  0.99756  0.67582  1.0000
  S   S161      1.0  0.94007  0.02553  0.70480  1.0000
  C   C618      1.0  0.87433  0.02889  0.84394  1.0000
  H   H719      1.0  0.72045  0.18763  0.98121  1.0000
  S   S162      1.0  0.92048  0.06688  0.84307  1.0000
  C   C619      1.0  0.64195  0.41323  0.69137  1.0000
  S   S163      1.0  0.84535  0.10970  0.84499  1.0000
  H   H720      1.0  0.81051  0.09212  0.70621  1.0000
  H   H721      1.0  0.89693  0.26276  0.81723  1.0000
  H   H722      1.0  0.78827  0.03154  0.69018  1.0000
  C   C620      1.0  0.60820  0.40153  0.91805  1.0000
  H   H723      1.0  0.86391  0.15769  0.90452  1.0000
  H   H724      1.0  0.80459  0.41620  0.95751  1.0000
  S   S164      1.0  0.81244  0.16886  0.88571  1.0000
  C   C621      1.0  0.61240  0.38799  0.94194  1.0000
  C   C622      1.0  0.67926  0.45194  0.82259  1.0000
  H   H725      1.0  0.85679  0.02989  0.65115  1.0000
  H   H726      1.0  0.93158  0.11413  0.67570  1.0000
  C   C623      1.0  0.86292  0.19307  0.92028  1.0000
  C   C624      1.0  0.54814  0.44277  0.88587  1.0000
  H   H727      1.0  0.60634  0.39577  0.86845  1.0000
  C   C625      1.0  0.85231  0.17769  0.90791  1.0000
  H   H728      1.0  0.85005  0.00610  0.69185  1.0000
  C   C626      1.0  0.64775  0.32969  0.91628  1.0000
  Fe  Fe81      1.0  0.89944  0.02369  0.69645  1.0000
  H   H729      1.0  0.96053  0.15043  0.84895  1.0000
  H   H730      1.0  0.52815  0.40319  0.78873  1.0000
  H   H731      1.0  0.95982  0.04268  0.76588  1.0000
  H   H732      1.0  0.75860  0.29468  0.85621  1.0000
  H   H733      1.0  0.69093  0.36860  0.92085  1.0000
  C   C627      1.0  0.84789  0.21888  0.92486  1.0000
  H   H734      1.0  0.66224  0.34234  0.87780  1.0000
  Fe  Fe82      1.0  0.93693  0.98791  0.73140  1.0000
  C   C628      1.0  0.56083  0.38909  0.71599  1.0000
  C   C629      1.0  0.68067  0.29810  0.93938  1.0000
  C   C630      1.0  0.50198  0.45224  0.76127  1.0000
  H   H735      1.0  0.94782  0.16128  0.71003  1.0000
  H   H736      1.0  0.59321  0.37529  0.97955  1.0000
  H   H737      1.0  0.98735  0.12197  0.78513  1.0000
  H   H738      1.0  0.81508  0.38097  0.93121  1.0000
  H   H739      1.0  0.59755  0.32478  0.71229  1.0000
  C   C631      1.0  0.68029  0.45542  0.84701  1.0000
  C   C632      1.0  0.97780  0.14106  0.77551  1.0000
  C   C633      1.0  0.54031  0.38961  0.70198  1.0000
  C   C634      1.0  0.75618  0.44394  0.91941  1.0000
  H   H740      1.0  0.68098  0.46806  0.80729  1.0000
  H   H741      1.0  0.80431  0.45417  0.96926  1.0000
  H   H742      1.0  0.62701  0.34200  0.91576  1.0000
  C   C635      1.0  0.74343  0.29456  0.87414  1.0000
  H   H743      1.0  0.91865  0.02916  0.80796  1.0000
  C   C636      1.0  0.67433  0.42813  0.81818  1.0000
  C   C637      1.0  0.62022  0.40837  0.68245  1.0000
  C   C638      1.0  0.80172  0.05292  0.78619  1.0000
  H   H744      1.0  0.94312  0.18590  0.91703  1.0000
  C   C639      1.0  0.72156  0.34077  0.86331  1.0000
  H   H745      1.0  0.58973  0.45293  0.96502  1.0000
  H   H746      1.0  0.78552  0.07428  0.81815  1.0000
  H   H747      1.0  0.95983  0.09475  0.69036  1.0000
  C   C640      1.0  0.78617  0.19472  0.97372  1.0000
  C   C641      1.0  0.58161  0.34292  0.70946  1.0000
  H   H748      1.0  0.75323  0.30008  0.88822  1.0000
  C   C642      1.0  0.95564  0.06756  0.83813  1.0000
  H   H749      1.0  0.63322  0.37893  0.94578  1.0000
  H   H750      1.0  0.74973  0.42407  0.89065  1.0000
  C   C643      1.0  0.88678  0.99386  0.81809  1.0000
  C   C644      1.0  0.98067  0.04518  0.75824  1.0000
  H   H751      1.0  0.96508  0.10143  0.73051  1.0000
  H   H752      1.0  0.59130  0.45801  0.85900  1.0000
  C   C645      1.0  0.82698  0.05050  0.81976  1.0000
  C   C646      1.0  0.59857  0.42958  0.67561  1.0000
  C   C647      1.0  0.54029  0.36651  0.69219  1.0000
  H   H753      1.0  0.78338  0.06129  0.77762  1.0000
  C   C648      1.0  0.52131  0.35334  0.76049  1.0000
  H   H754      1.0  0.54976  0.47151  0.70898  1.0000
  H   H755      1.0  0.52015  0.44645  0.77099  1.0000
  H   H756      1.0  0.56115  0.32547  0.68834  1.0000
  H   H757      1.0  0.79259  0.04705  0.65796  1.0000
  S   S165      1.0  0.78359  0.27054  0.96320  1.0000
  N   N44       1.0  0.57451  0.47920  0.67255  1.0000
  C   C649      1.0  0.54803  0.47076  0.95832  1.0000
  H   H758      1.0  0.96978  0.02489  0.83771  1.0000
  H   H759      1.0  0.85806  0.02010  0.85705  1.0000
  H   H760      1.0  0.58195  0.42423  0.66977  1.0000
  S   S166      1.0  0.91796  0.99943  0.66472  1.0000
  H   H761      1.0  0.61967  0.38786  0.68177  1.0000
  H   H762      1.0  0.73437  0.40746  0.97384  1.0000
  H   H763      1.0  0.49272  0.47377  0.76317  1.0000
  C   C650      1.0  0.62105  0.46075  0.68607  1.0000
  C   C651      1.0  0.59831  0.45655  0.67726  1.0000
  C   C652      1.0  0.75088  0.45651  0.97924  1.0000
  H   H764      1.0  0.73037  0.45337  0.97786  1.0000
  C   C653      1.0  0.49750  0.36615  0.75035  1.0000
  H   H765      1.0  0.89176  0.98772  0.79899  1.0000
  C   C654      1.0  0.83647  0.99503  0.68662  1.0000
  H   H766      1.0  0.65904  0.44318  0.70056  1.0000
  H   H767      1.0  0.80495  0.19321  0.95975  1.0000
  S   S167      1.0  0.89438  0.98846  0.72551  1.0000
  Fe  Fe83      1.0  0.81745  0.32266  0.97933  1.0000
  S   S168      1.0  0.67895  0.43884  0.97390  1.0000
  H   H768      1.0  0.50442  0.48447  0.95668  1.0000
  H   H769      1.0  0.76319  0.18417  0.94994  1.0000
  H   H770      1.0  0.97893  0.07336  0.78311  1.0000
  H   H771      1.0  0.78088  0.98856  0.69471  1.0000
  H   H772      1.0  0.99041  0.18478  0.72266  1.0000
  S   S169      1.0  0.94474  0.98661  0.77050  1.0000
  C   C655      1.0  0.82149  0.59879  0.08690  1.0000
  Fe  Fe84      1.0  0.56064  0.95307  0.11093  1.0000
  C   C656      1.0  0.71479  0.54147  0.98580  1.0000
  S   S170      1.0  0.59846  0.92262  0.09640  1.0000
  H   H773      1.0  0.81818  0.69976  0.21492  1.0000
  C   C657      1.0  0.88417  0.65315  0.18868  1.0000
  H   H774      1.0  0.53135  0.50645  0.00754  1.0000
  H   H775      1.0  0.85271  0.69649  0.14351  1.0000
  S   S171      1.0  0.50250  0.60126  0.98829  1.0000
  C   C658      1.0  0.76309  0.92002  0.08886  1.0000
  H   H776      1.0  0.76420  0.64984  0.21415  1.0000
  H   H777      1.0  0.88448  0.63427  0.18178  1.0000
  C   C659      1.0  0.67596  0.90335  0.13242  1.0000
  C   C660      1.0  0.57809  0.94538  0.25375  1.0000
  H   H778      1.0  0.97703  0.57924  0.17288  1.0000
  H   H779      1.0  0.96445  0.67230  0.18852  1.0000
  H   H780      1.0  0.50952  0.54948  0.04457  1.0000
  H   H781      1.0  0.87595  0.50216  0.27225  1.0000
  C   C661      1.0  0.51746  0.86691  0.05887  1.0000
  H   H782      1.0  0.92724  0.49746  0.21435  1.0000
  C   C662      1.0  0.93404  0.54759  0.30830  1.0000
  H   H783      1.0  0.75211  0.90570  0.10221  1.0000
  H   H784      1.0  0.98657  0.61765  0.18845  1.0000
  H   H785      1.0  0.65127  0.88735  0.08543  1.0000
  Fe  Fe85      1.0  0.85113  0.71400  0.30424  1.0000
  C   C663      1.0  0.88833  0.54040  0.31170  1.0000
  S   S172      1.0  0.70726  0.52926  0.06724  1.0000
  Fe  Fe86      1.0  0.87348  0.56116  0.18225  1.0000
  S   S173      1.0  0.91493  0.56770  0.18405  1.0000
  S   S174      1.0  0.83644  0.56195  0.21312  1.0000
  H   H786      1.0  0.63651  0.97839  0.10616  1.0000
  Fe  Fe87      1.0  0.72650  0.96515  0.18575  1.0000
  N   N45       1.0  0.94701  0.74532  0.29073  1.0000
  C   C664      1.0  0.72459  0.95684  0.09813  1.0000
  C   C665      1.0  0.87267  0.51863  0.28297  1.0000
  Fe  Fe88      1.0  0.91316  0.59011  0.14521  1.0000
  S   S175      1.0  0.92760  0.62873  0.13638  1.0000
  H   H787      1.0  0.92056  0.53842  0.25158  1.0000
  S   S176      1.0  0.86977  0.58701  0.14507  1.0000
  Fe  Fe89      1.0  0.83252  0.66910  0.29003  1.0000
  S   S177      1.0  0.84437  0.70603  0.26736  1.0000
  S   S178      1.0  0.79780  0.65414  0.28251  1.0000
  C   C666      1.0  0.67136  0.94972  0.28934  1.0000
  H   H788      1.0  0.73945  0.83246  0.29167  1.0000
  C   C667      1.0  0.97094  0.67261  0.20602  1.0000
  H   H789      1.0  0.94319  0.53253  0.29495  1.0000
  H   H790      1.0  0.64530  0.55025  0.04545  1.0000
  S   S179      1.0  0.87522  0.64295  0.28458  1.0000
  H   H791      1.0  0.92012  0.77430  0.31397  1.0000
  H   H792      1.0  0.78413  0.93789  0.12270  1.0000
  Fe  Fe90      1.0  0.93229  0.53141  0.16414  1.0000
  H   H793      1.0  0.53814  0.93863  0.23054  1.0000
  H   H794      1.0  0.79256  0.60305  0.12146  1.0000
  H   H795      1.0  0.71306  0.94257  0.11066  1.0000
  H   H796      1.0  0.88865  0.58237  0.25798  1.0000
  H   H797      1.0  0.71903  0.95932  0.07915  1.0000
  C   C668      1.0  0.61875  0.50537  0.02435  1.0000
  S   S180      1.0  0.89106  0.52245  0.16595  1.0000
  C   C669      1.0  0.76136  0.94375  0.12284  1.0000
  C   C670      1.0  0.82616  0.58842  0.23134  1.0000
  C   C671      1.0  0.80008  0.59214  0.24681  1.0000
  C   C672      1.0  0.79140  0.61262  0.26213  1.0000
  C   C673      1.0  0.80895  0.62921  0.26244  1.0000
  C   C674      1.0  0.83496  0.62570  0.24677  1.0000
  C   C675      1.0  0.84355  0.60536  0.23113  1.0000
  H   H798      1.0  0.78654  0.57912  0.24697  1.0000
  H   H799      1.0  0.77122  0.61534  0.27407  1.0000
  H   H800      1.0  0.84809  0.63909  0.24627  1.0000
  H   H801      1.0  0.86355  0.60268  0.21898  1.0000
  C   C676      1.0  0.83226  0.52496  0.08504  1.0000
  H   H802      1.0  0.86355  0.69795  0.20907  1.0000
  H   H803      1.0  0.83896  0.59956  0.09503  1.0000
  C   C677      1.0  0.89190  0.51891  0.29780  1.0000
  S   S181      1.0  0.53686  0.97847  0.08155  1.0000
  H   H804      1.0  0.65253  0.93167  0.15777  1.0000
  C   C678      1.0  0.52022  0.73923  0.98701  1.0000
  H   H805      1.0  0.50130  0.51325  0.03186  1.0000
  H   H806      1.0  0.79737  0.51547  0.07560  1.0000
  H   H807      1.0  0.85012  0.71854  0.18198  1.0000
  S   S182      1.0  0.70249  0.90547  0.26690  1.0000
  C   C679      1.0  0.79749  0.53757  0.13016  1.0000
  C   C680      1.0  0.82522  0.53964  0.12584  1.0000
  C   C681      1.0  0.98056  0.59996  0.12200  1.0000
  C   C682      1.0  0.55680  0.83711  0.02468  1.0000
  C   C683      1.0  0.55230  0.92123  0.22190  1.0000
  Fe  Fe91      1.0  0.49943  0.96848  0.10773  1.0000
  C   C684      1.0  0.97646  0.64016  0.14001  1.0000
  H   H808      1.0  0.73853  0.86360  0.30115  1.0000
  S   S183      1.0  0.70667  0.89590  0.14496  1.0000
  H   H809      1.0  0.96372  0.65801  0.14759  1.0000
  H   H810      1.0  0.52561  0.94350  0.04904  1.0000
  H   H811      1.0  0.79271  0.94149  0.05136  1.0000
  C   C685      1.0  0.59041  0.51672  0.03076  1.0000
  H   H812      1.0  0.56033  0.96067  0.24882  1.0000
  H   H813      1.0  0.77015  0.84552  0.28461  1.0000
  H   H814      1.0  0.69363  0.87662  0.10448  1.0000
  C   C686      1.0  0.56158  0.86039  0.03056  1.0000
  H   H815      1.0  0.55432  0.61529  0.04649  1.0000
  H   H816      1.0  0.54588  0.91847  0.08694  1.0000
  C   C687      1.0  0.58746  0.94680  0.27560  1.0000
  H   H817      1.0  0.50277  0.92185  0.05292  1.0000
  H   H818      1.0  0.87080  0.66189  0.14308  1.0000
  H   H819      1.0  0.71645  0.97645  0.10545  1.0000
  C   C688      1.0  0.80479  0.52238  0.08960  1.0000
  H   H820      1.0  0.54383  0.92020  0.20500  1.0000
  C   C689      1.0  0.54189  0.87603  0.04796  1.0000
  H   H821      1.0  0.90546  0.65671  0.18251  1.0000
  H   H822      1.0  0.52883  0.81081  0.03115  1.0000
  C   C690      1.0  0.59174  0.92506  0.23824  1.0000
  C   C691      1.0  0.60689  0.56790  0.06770  1.0000
  H   H823      1.0  0.76245  0.79017  0.31225  1.0000
  S   S184      1.0  0.89564  0.69203  0.29890  1.0000
  C   C692      1.0  0.57308  0.90701  0.04304  1.0000
  S   S185      1.0  0.73576  0.92057  0.19649  1.0000
  H   H824      1.0  0.78402  0.54265  0.14759  1.0000
  C   C693      1.0  0.98775  0.67400  0.25101  1.0000
  C   C694      1.0  0.90982  0.58134  0.24843  1.0000
  H   H825      1.0  0.88039  0.64953  0.20956  1.0000
  C   C695      1.0  0.92786  0.55661  0.24502  1.0000
  H   H826      1.0  0.55696  0.88263  0.08999  1.0000
  C   C696      1.0  0.62801  0.92760  0.13158  1.0000
  C   C697      1.0  0.62773  0.91532  0.11097  1.0000
  C   C698      1.0  0.65145  0.89698  0.10129  1.0000
  C   C699      1.0  0.67544  0.89094  0.11203  1.0000
  C   C700      1.0  0.65742  0.96275  0.31034  1.0000
  H   H827      1.0  0.60969  0.94168  0.13918  1.0000
  C   C701      1.0  0.80301  0.64201  0.18864  1.0000
  C   C702      1.0  0.62487  0.90828  0.26767  1.0000
  Fe  Fe92      1.0  0.68809  0.49387  0.07838  1.0000
  C   C703      1.0  0.62565  0.56492  0.04530  1.0000
  H   H828      1.0  0.57180  0.82551  0.01119  1.0000
  H   H829      1.0  0.81459  0.97545  0.02488  1.0000
  C   C704      1.0  0.96395  0.62275  0.13216  1.0000
  S   S186      1.0  0.49473  0.81881  0.99086  1.0000
  C   C705      1.0  0.86446  0.56177  0.30956  1.0000
  H   H830      1.0  0.75756  0.92053  0.07016  1.0000
  C   C706      1.0  0.68478  0.92253  0.29267  1.0000
  Fe  Fe93      1.0  0.73871  0.50651  0.09135  1.0000
  C   C707      1.0  0.94368  0.62241  0.30384  1.0000
  H   H831      1.0  0.57648  0.91000  0.02210  1.0000
  H   H832      1.0  0.84338  0.63678  0.16672  1.0000
  H   H833      1.0  0.55057  0.90285  0.23550  1.0000
  C   C708      1.0  0.91894  0.60475  0.23907  1.0000
  H   H834      1.0  0.90495  0.62403  0.24119  1.0000
  H   H835      1.0  0.92952  0.63819  0.29431  1.0000
  H   H836      1.0  0.62719  0.89015  0.23557  1.0000
  H   H837      1.0  0.69887  0.50617  0.00043  1.0000
  C   C709      1.0  0.78347  0.65595  0.20645  1.0000
  S   S187      1.0  0.97150  0.50189  0.17198  1.0000
  Fe  Fe94      1.0  0.70297  0.92189  0.17430  1.0000
  N   N46       1.0  0.75319  0.59194  0.05471  1.0000
  C   C710      1.0  0.74899  0.61366  0.03329  1.0000
  C   C711      1.0  0.75976  0.56575  0.04514  1.0000
  C   C712      1.0  0.72641  0.59404  0.07251  1.0000
  C   C713      1.0  0.77638  0.59406  0.06621  1.0000
  C   C714      1.0  0.77305  0.59821  0.09175  1.0000
  C   C715      1.0  0.80334  0.59232  0.05159  1.0000
  C   C716      1.0  0.84251  0.53364  0.10310  1.0000
  C   C717      1.0  0.82552  0.59449  0.06191  1.0000
  H   H838      1.0  0.50140  0.87791  0.07189  1.0000
  H   H839      1.0  0.74522  0.63371  0.03948  1.0000
  H   H840      1.0  0.76721  0.61178  0.01781  1.0000
  H   H841      1.0  0.73096  0.61337  0.02480  1.0000
  H   H842      1.0  0.59722  0.88177  0.21273  1.0000
  C   C718      1.0  0.80039  0.98038  0.04206  1.0000
  C   C719      1.0  0.78762  0.96098  0.05755  1.0000
  H   H843      1.0  0.71949  0.61370  0.07986  1.0000
  H   H844      1.0  0.70952  0.59203  0.06339  1.0000
  H   H845      1.0  0.72792  0.57769  0.08877  1.0000
  H   H846      1.0  0.75369  0.59883  0.10467  1.0000
  H   H847      1.0  0.80760  0.58885  0.03216  1.0000
  H   H848      1.0  0.54228  0.63121  0.00863  1.0000
  H   H849      1.0  0.84616  0.59213  0.05072  1.0000
  C   C720      1.0  0.53239  0.54175  0.03969  1.0000
  H   H850      1.0  0.76211  0.54895  0.06082  1.0000
  C   C721      1.0  0.96484  0.57877  0.22226  1.0000
  H   H851      1.0  0.79892  0.62491  0.18261  1.0000
  H   H852      1.0  0.77456  0.68685  0.23009  1.0000
  C   C722      1.0  0.61897  0.58013  0.02271  1.0000
  C   C723      1.0  0.53258  0.82873  0.03590  1.0000
  N   N47       1.0  0.75496  0.94707  0.09709  1.0000
  C   C724      1.0  0.95502  0.55525  0.23228  1.0000
  C   C725      1.0  0.59339  0.59941  0.02202  1.0000
  C   C726      1.0  0.52364  0.50294  0.02819  1.0000
  H   H853      1.0  0.92646  0.73068  0.26720  1.0000
  H   H854      1.0  0.63381  0.51735  0.02220  1.0000
  H   H855      1.0  0.77909  0.56245  0.03101  1.0000
  Fe  Fe95      1.0  0.73490  0.50589  0.03737  1.0000
  H   H856      1.0  0.75199  0.92813  0.13582  1.0000
  H   H857      1.0  0.97126  0.58692  0.11513  1.0000
  Fe  Fe96      1.0  0.70028  0.92955  0.22851  1.0000
  C   C727      1.0  0.51299  0.84360  0.05301  1.0000
  H   H858      1.0  0.57522  0.92577  0.04871  1.0000
  C   C728      1.0  0.78716  0.52907  0.11197  1.0000
  C   C729      1.0  0.75172  0.84313  0.29921  1.0000
  Fe  Fe97      1.0  0.66476  0.97015  0.19517  1.0000
  H   H859      1.0  0.98974  0.54575  0.18689  1.0000
  H   H860      1.0  0.94483  0.67893  0.26747  1.0000
  S   S188      1.0  0.87717  0.53623  0.09698  1.0000
  H   H861      1.0  0.64354  0.89440  0.27281  1.0000
  N   N48       1.0  0.54550  0.90129  0.05410  1.0000
  C   C730      1.0  0.54214  0.90022  0.08182  1.0000
  H   H862      1.0  0.92847  0.56765  0.29700  1.0000
  H   H863      1.0  0.67166  0.96072  0.27067  1.0000
  C   C731      1.0  0.94598  0.60367  0.22632  1.0000
  C   C732      1.0  0.81477  0.68399  0.20650  1.0000
  H   H864      1.0  0.61208  0.55572  0.08510  1.0000
  H   H865      1.0  0.88943  0.68572  0.14426  1.0000
  C   C733      1.0  0.94677  0.49168  0.22117  1.0000
  C   C734      1.0  0.83519  0.67017  0.18826  1.0000
  H   H866      1.0  0.90350  0.75162  0.28887  1.0000
  C   C735      1.0  0.57452  0.60168  0.04521  1.0000
  C   C736      1.0  0.86570  0.70045  0.18818  1.0000
  N   N49       1.0  0.86291  0.67613  0.17935  1.0000
  C   C737      1.0  0.86903  0.68032  0.15139  1.0000
  Fe  Fe98      1.0  0.88763  0.68047  0.26438  1.0000
  H   H867      1.0  0.52090  0.89924  0.09167  1.0000
  H   H868      1.0  0.88666  0.70455  0.18088  1.0000
  S   S189      1.0  0.74460  0.52980  0.99972  1.0000
  S   S190      1.0  0.52362  0.94080  0.13593  1.0000
  C   C738      1.0  0.95972  0.67660  0.25046  1.0000
  H   H869      1.0  0.95134  0.62273  0.21955  1.0000
  Fe  Fe99      1.0  0.89028  0.54873  0.12885  1.0000
  C   C739      1.0  0.79533  0.60072  0.10175  1.0000
  N   N50       1.0  0.58139  0.92409  0.21514  1.0000
  C   C740      1.0  0.95120  0.67617  0.22796  1.0000
  H   H870      1.0  0.58944  0.90165  0.18375  1.0000
  H   H871      1.0  0.58482  0.53759  0.03328  1.0000
  C   C741      1.0  0.61529  0.90624  0.24609  1.0000
  H   H872      1.0  0.61874  0.93013  0.29892  1.0000
  C   C742      1.0  0.56196  0.63783  0.00099  1.0000
  S   S191      1.0  0.66840  0.92631  0.20711  1.0000
  H   H873      1.0  0.57696  0.96278  0.28688  1.0000
  H   H874      1.0  0.51055  0.50940  0.07707  1.0000
  C   C743      1.0  0.65225  0.92183  0.14214  1.0000
  S   S192      1.0  0.91604  0.68007  0.22684  1.0000
  H   H875      1.0  0.82726  0.57766  0.29350  1.0000
  H   H876      1.0  0.59010  0.89069  0.04975  1.0000
  C   C744      1.0  0.97492  0.74107  0.27494  1.0000
  H   H877      1.0  0.97487  0.61788  0.27046  1.0000
  C   C745      1.0  0.78933  0.67689  0.21534  1.0000
  C   C746      1.0  0.82849  0.64893  0.17967  1.0000
  S   S193      1.0  0.76064  0.98651  0.17088  1.0000
  H   H878      1.0  0.51294  0.72144  0.99555  1.0000
  C   C747      1.0  0.96940  0.61091  0.29030  1.0000
  C   C748      1.0  0.59772  0.90155  0.20109  1.0000
  S   S194      1.0  0.93334  0.55420  0.12533  1.0000
  C   C749      1.0  0.98795  0.59040  0.30239  1.0000
  S   S195      1.0  0.51191  0.97957  0.19484  1.0000
  H   H879      1.0  0.90997  0.50243  0.29779  1.0000
  H   H880      1.0  0.84559  0.52023  0.06747  1.0000
  H   H881      1.0  0.49406  0.83722  0.06173  1.0000
  C   C750      1.0  0.57040  0.50104  0.03445  1.0000
  N   N51       1.0  0.54040  0.51193  0.04277  1.0000
  H   H882      1.0  0.58069  0.86577  0.02115  1.0000
  C   C751      1.0  0.52413  0.92400  0.04450  1.0000
  C   C752      1.0  0.61099  0.92848  0.28240  1.0000
  C   C753      1.0  0.84942  0.53972  0.28148  1.0000
  H   H883      1.0  0.53871  0.55041  0.01983  1.0000
  H   H884      1.0  0.60394  0.95157  0.19144  1.0000
  H   H885      1.0  0.61971  0.90296  0.19463  1.0000
  H   H886      1.0  0.92334  0.76657  0.26171  1.0000
  H   H887      1.0  0.56679  0.58831  0.08517  1.0000
  S   S196      1.0  0.75206  0.52764  0.11744  1.0000
  C   C754      1.0  0.97941  0.73975  0.24863  1.0000
  C   C755      1.0  0.58136  0.58617  0.06765  1.0000
  H   H888      1.0  0.83473  0.53961  0.26971  1.0000
  H   H889      1.0  0.83304  0.54622  0.13996  1.0000
  H   H890      1.0  0.56123  0.58945  0.99255  1.0000
  H   H891      1.0  0.63733  0.97663  0.23877  1.0000
  H   H892      1.0  0.96273  0.74168  0.23852  1.0000
  C   C756      1.0  0.94572  0.72192  0.31053  1.0000
  C   C757      1.0  0.53298  0.50182  0.06979  1.0000
  Fe  Fe100     1.0  0.51880  0.97817  0.15319  1.0000
  H   H893      1.0  0.64752  0.98386  0.30789  1.0000
  H   H894      1.0  0.96800  0.53566  0.22955  1.0000
  H   H895      1.0  0.94403  0.78755  0.28885  1.0000
  S   S197      1.0  0.69684  0.96564  0.16078  1.0000
  H   H896      1.0  0.74304  0.56392  0.03574  1.0000
  H   H897      1.0  0.57005  0.96749  0.20618  1.0000
  H   H898      1.0  0.52592  0.92559  0.02372  1.0000
  H   H899      1.0  0.54149  0.55009  0.05240  1.0000
  H   H900      1.0  0.57359  0.94975  0.18049  1.0000
  N   N52       1.0  0.58640  0.61482  0.99780  1.0000
  H   H901      1.0  0.56467  0.65134  0.01339  1.0000
  C   C758      1.0  0.94156  0.76975  0.30304  1.0000
  C   C759      1.0  0.76914  0.96689  0.08030  1.0000
  S   S198      1.0  0.69371  0.97444  0.21932  1.0000
  C   C760      1.0  0.69585  0.52540  0.98877  1.0000
  C   C761      1.0  0.58229  0.94926  0.19764  1.0000
  S   S199      1.0  0.64204  0.49878  0.08418  1.0000
  H   H902      1.0  0.65602  0.98230  0.12856  1.0000
  C   C762      1.0  0.92422  0.74870  0.27639  1.0000
  H   H903      1.0  0.78568  0.91117  0.08818  1.0000
  C   C763      1.0  0.84529  0.56116  0.29483  1.0000
  H   H904      1.0  0.95156  0.70285  0.30218  1.0000
  H   H905      1.0  0.54522  0.50793  0.08147  1.0000
  H   H906      1.0  0.63385  0.57628  0.00573  1.0000
  H   H907      1.0  0.61736  0.63739  0.99434  1.0000
  H   H908      1.0  0.75330  0.96242  0.13167  1.0000
  H   H909      1.0  0.79430  0.80076  0.30426  1.0000
  C   C764      1.0  0.97161  0.49143  0.20418  1.0000
  C   C765      1.0  0.50560  0.76407  0.99462  1.0000
  H   H910      1.0  0.86298  0.49020  0.13629  1.0000
  C   C766      1.0  0.61005  0.62588  0.98293  1.0000
  H   H911      1.0  0.55868  0.65055  0.98276  1.0000
  C   C767      1.0  0.51472  0.78732  0.98364  1.0000
  C   C768      1.0  0.58022  0.59653  0.98313  1.0000
  C   C769      1.0  0.75775  0.96363  0.41401  1.0000
  S   S200      1.0  0.90449  0.62818  0.34651  1.0000
  S   S201      1.0  0.59773  0.56630  0.63340  1.0000
  H   H912      1.0  0.64262  0.90134  0.50528  1.0000
  Fe  Fe101     1.0  0.67838  0.93909  0.44007  1.0000
  S   S202      1.0  0.49334  0.65212  0.61647  1.0000
  H   H913      1.0  0.86884  0.94892  0.43190  1.0000
  C   C770      1.0  0.51780  0.49780  0.60294  1.0000
  C   C771      1.0  0.98092  0.58148  0.32806  1.0000
  Fe  Fe102     1.0  0.59374  0.61013  0.61940  1.0000
  S   S203      1.0  0.63201  0.62662  0.60938  1.0000
  H   H914      1.0  0.76943  0.90439  0.35165  1.0000
  H   H915      1.0  0.89583  0.58198  0.33391  1.0000
  S   S204      1.0  0.72077  0.85347  0.40055  1.0000
  Fe  Fe103     1.0  0.65139  0.75909  0.62340  1.0000
  S   S205      1.0  0.68265  0.74569  0.58988  1.0000
  H   H916      1.0  0.96169  0.90934  0.64722  1.0000
  Fe  Fe104     1.0  0.65280  0.81752  0.60809  1.0000
  S   S206      1.0  0.68369  0.80972  0.57297  1.0000
  S   S207      1.0  0.63531  0.85873  0.61934  1.0000
  Fe  Fe105     1.0  0.65873  0.78186  0.56830  1.0000
  S   S208      1.0  0.65166  0.77938  0.52982  1.0000
  Fe  Fe106     1.0  0.70505  0.77448  0.59732  1.0000
  S   S209      1.0  0.75116  0.76759  0.59397  1.0000
  S   S210      1.0  0.62545  0.79300  0.60109  1.0000
  S   S211      1.0  0.67616  0.78456  0.63315  1.0000
  Fe  Fe107     1.0  0.89772  0.75830  0.42855  1.0000
  S   S212      1.0  0.85229  0.77306  0.42824  1.0000
  H   H917      1.0  0.86235  0.93980  0.40442  1.0000
  Fe  Fe108     1.0  0.89403  0.77906  0.47755  1.0000
  S   S213      1.0  0.84829  0.79645  0.48071  1.0000
  S   S214      1.0  0.91763  0.77810  0.50845  1.0000
  Fe  Fe109     1.0  0.84694  0.75781  0.46938  1.0000
  S   S215      1.0  0.81400  0.73528  0.48757  1.0000
  Fe  Fe110     1.0  0.85791  0.81027  0.43935  1.0000
  S   S216      1.0  0.83800  0.85185  0.42289  1.0000
  S   S217      1.0  0.89209  0.73923  0.46876  1.0000
  S   S218      1.0  0.90404  0.79654  0.43699  1.0000
  S   S219      1.0  0.80443  0.89268  0.61804  1.0000
  S   S220      1.0  0.77787  0.87403  0.57576  1.0000
  H   H918      1.0  0.53395  0.52450  0.61854  1.0000
  C   C772      1.0  0.77535  0.80089  0.31891  1.0000
  Fe  Fe111     1.0  0.81685  0.86146  0.59208  1.0000
  S   S221      1.0  0.83711  0.81900  0.60535  1.0000
  S   S222      1.0  0.69177  0.96346  0.46299  1.0000
  C   C773      1.0  0.80605  0.85282  0.41495  1.0000
  C   C774      1.0  0.80169  0.83082  0.40638  1.0000
  C   C775      1.0  0.77563  0.83133  0.40127  1.0000
  C   C776      1.0  0.75385  0.85382  0.40487  1.0000
  C   C777      1.0  0.75832  0.87604  0.41291  1.0000
  C   C778      1.0  0.78447  0.87565  0.41769  1.0000
  H   H919      1.0  0.81854  0.81371  0.40295  1.0000
  H   H920      1.0  0.74160  0.89345  0.41564  1.0000
  H   H921      1.0  0.78771  0.89275  0.42421  1.0000
  C   C779      1.0  0.89565  0.79008  0.53534  1.0000
  C   C780      1.0  0.90252  0.77982  0.55925  1.0000
  C   C781      1.0  0.88417  0.78807  0.58095  1.0000
  C   C782      1.0  0.85927  0.80702  0.57864  1.0000
  C   C783      1.0  0.85278  0.81771  0.55476  1.0000
  C   C784      1.0  0.87095  0.80929  0.53318  1.0000
  H   H922      1.0  0.88940  0.78001  0.59940  1.0000
  H   H923      1.0  0.83366  0.83248  0.55283  1.0000
  H   H924      1.0  0.86611  0.81825  0.51483  1.0000
  C   C785      1.0  0.66066  0.87564  0.62047  1.0000
  C   C786      1.0  0.68879  0.86448  0.61268  1.0000
  C   C787      1.0  0.70870  0.87861  0.61315  1.0000
  C   C788      1.0  0.70066  0.90379  0.62150  1.0000
  H   H925      1.0  0.77305  0.83374  0.61883  1.0000
  H   H926      1.0  0.73657  0.97387  0.42074  1.0000
  H   H927      1.0  0.69519  0.84495  0.60641  1.0000
  H   H928      1.0  0.73024  0.86968  0.60768  1.0000
  C   C789      1.0  0.89982  0.56120  0.34400  1.0000
  H   H929      1.0  0.91550  0.56046  0.35574  1.0000
  C   C790      1.0  0.63711  0.81133  0.51536  1.0000
  C   C791      1.0  0.64438  0.81816  0.48932  1.0000
  H   H930      1.0  0.98846  0.63518  0.32328  1.0000
  C   C792      1.0  0.61879  0.83025  0.52977  1.0000
  H   H931      1.0  0.65824  0.80350  0.47804  1.0000
  H   H932      1.0  0.90066  0.50723  0.35283  1.0000
  H   H933      1.0  0.61301  0.82506  0.54987  1.0000
  C   C793      1.0  0.76887  0.75798  0.56470  1.0000
  C   C794      1.0  0.75791  0.74363  0.55170  1.0000
  C   C795      1.0  0.77221  0.73623  0.52824  1.0000
  C   C796      1.0  0.79710  0.74377  0.51744  1.0000
  C   C797      1.0  0.80817  0.75792  0.53058  1.0000
  C   C798      1.0  0.79412  0.76493  0.55420  1.0000
  H   H934      1.0  0.73860  0.73793  0.55980  1.0000
  H   H935      1.0  0.76379  0.72495  0.51829  1.0000
  H   H936      1.0  0.82763  0.76334  0.52272  1.0000
  H   H937      1.0  0.80253  0.77633  0.56401  1.0000
  H   H938      1.0  0.64753  0.72838  0.56154  1.0000
  C   C799      1.0  0.60735  0.85584  0.51806  1.0000
  H   H939      1.0  0.89344  0.78481  0.36938  1.0000
  H   H940      1.0  0.63995  0.84950  0.45774  1.0000
  S   S223      1.0  0.84021  0.88548  0.56113  1.0000
  H   H941      1.0  0.83773  0.67394  0.56727  1.0000
  H   H942      1.0  0.77522  0.83195  0.46079  1.0000
  H   H943      1.0  0.95014  0.58685  0.36166  1.0000
  H   H944      1.0  0.74042  0.81689  0.36100  1.0000
  C   C800      1.0  0.63073  0.65579  0.62175  1.0000
  C   C801      1.0  0.65515  0.66466  0.61885  1.0000
  C   C802      1.0  0.65474  0.68804  0.62830  1.0000
  H   H945      1.0  0.71818  0.90416  0.54005  1.0000
  H   H946      1.0  0.71576  0.97256  0.50292  1.0000
  H   H947      1.0  0.72800  0.93519  0.56282  1.0000
  H   H948      1.0  0.67443  0.65336  0.60934  1.0000
  H   H949      1.0  0.67370  0.69469  0.62617  1.0000
  C   C803      1.0  0.72813  0.95429  0.49583  1.0000
  H   H950      1.0  0.87594  0.85154  0.59530  1.0000
  H   H951      1.0  0.92177  0.76514  0.56099  1.0000
  H   H952      1.0  0.76636  0.79858  0.44692  1.0000
  H   H953      1.0  0.93114  0.49885  0.32933  1.0000
  C   C804      1.0  0.76802  0.91660  0.49648  1.0000
  C   C805      1.0  0.65667  0.94862  0.33465  1.0000
  C   C806      1.0  0.76418  0.95363  0.39106  1.0000
  H   H954      1.0  0.65819  0.92924  0.50283  1.0000
  C   C807      1.0  0.61518  0.86288  0.49214  1.0000
  H   H955      1.0  0.89593  0.96332  0.60086  1.0000
  C   C808      1.0  0.94110  0.87806  0.64755  1.0000
  C   C809      1.0  0.88604  0.86151  0.60579  1.0000
  H   H956      1.0  0.87336  0.88230  0.60687  1.0000
  C   C810      1.0  0.96829  0.66151  0.35027  1.0000
  C   C811      1.0  0.67276  0.91803  0.54834  1.0000
  C   C812      1.0  0.95259  0.90884  0.61069  1.0000
  C   C813      1.0  0.83718  0.91217  0.44404  1.0000
  S   S224      1.0  0.60220  0.89542  0.47797  1.0000
  H   H957      1.0  0.64145  0.96868  0.58453  1.0000
  C   C814      1.0  0.76043  0.90761  0.47701  1.0000
  Fe  Fe112     1.0  0.63459  0.90782  0.44683  1.0000
  S   S225      1.0  0.69497  0.93168  0.39999  1.0000
  H   H958      1.0  0.62738  0.92624  0.52530  1.0000
  H   H959      1.0  0.93273  0.51533  0.35413  1.0000
  H   H960      1.0  0.76854  0.76428  0.64603  1.0000
  C   C815      1.0  0.86347  0.74985  0.34058  1.0000
  H   H961      1.0  0.66229  0.87046  0.56809  1.0000
  C   C816      1.0  0.80599  0.94607  0.42069  1.0000
  H   H962      1.0  0.83196  0.92381  0.39067  1.0000
  S   S226      1.0  0.78627  0.93605  0.56889  1.0000
  H   H963      1.0  0.59098  0.66911  0.57706  1.0000
  C   C817      1.0  0.70063  0.91791  0.54916  1.0000
  C   C818      1.0  0.73488  0.82664  0.34232  1.0000
  H   H964      1.0  0.72229  0.81480  0.33676  1.0000
  H   H965      1.0  0.88052  0.55820  0.35704  1.0000
  C   C819      1.0  0.93665  0.61375  0.32956  1.0000
  H   H966      1.0  0.74676  0.81881  0.61391  1.0000
  S   S227      1.0  0.72532  0.92191  0.62217  1.0000
  Fe  Fe113     1.0  0.65038  0.93973  0.39619  1.0000
  N   N53       1.0  0.82817  0.94136  0.43588  1.0000
  H   H967      1.0  0.77237  0.81421  0.39474  1.0000
  H   H968      1.0  0.77321  0.89007  0.46909  1.0000
  C   C820      1.0  0.86714  0.93819  0.61630  1.0000
  H   H969      1.0  0.93498  0.87427  0.55575  1.0000
  H   H970      1.0  0.76827  0.77076  0.47149  1.0000
  H   H971      1.0  0.81766  0.88343  0.35867  1.0000
  H   H972      1.0  0.69408  0.88745  0.31982  1.0000
  H   H973      1.0  0.90169  0.89597  0.56641  1.0000
  C   C821      1.0  0.95295  0.89947  0.63612  1.0000
  H   H974      1.0  0.78187  0.79965  0.61304  1.0000
  H   H975      1.0  0.73098  0.91464  0.45208  1.0000
  H   H976      1.0  0.86817  0.70698  0.34800  1.0000
  C   C822      1.0  0.76546  0.81502  0.62284  1.0000
  C   C823      1.0  0.55664  0.51715  0.58164  1.0000
  H   H977      1.0  0.74811  0.95631  0.37992  1.0000
  N   N54       1.0  0.76012  0.82864  0.32332  1.0000
  C   C824      1.0  0.79440  0.97315  0.62613  1.0000
  C   C825      1.0  0.77380  0.96403  0.64402  1.0000
  H   H978      1.0  0.93040  0.82155  0.61132  1.0000
  C   C826      1.0  0.77823  0.96004  0.42869  1.0000
  C   C827      1.0  0.68545  0.95433  0.57446  1.0000
  S   S228      1.0  0.79950  0.90019  0.50655  1.0000
  C   C828      1.0  0.97101  0.67860  0.36587  1.0000
  H   H979      1.0  0.90361  0.86443  0.55680  1.0000
  C   C829      1.0  0.60543  0.69386  0.64350  1.0000
  S   S229      1.0  0.63400  0.95137  0.43494  1.0000
  C   C830      1.0  0.67255  0.91464  0.62976  1.0000
  H   H980      1.0  0.95301  0.83263  0.58376  1.0000
  Fe  Fe114     1.0  0.68990  0.88973  0.41380  1.0000
  C   C831      1.0  0.91877  0.51449  0.34123  1.0000
  C   C832      1.0  0.88751  0.95135  0.61750  1.0000
  C   C833      1.0  0.87403  0.72399  0.35211  1.0000
  S   S230      1.0  0.92245  0.73672  0.39636  1.0000
  H   H981      1.0  0.74256  0.77784  0.45166  1.0000
  C   C834      1.0  0.55893  0.50398  0.56093  1.0000
  H   H982      1.0  0.72092  0.84656  0.34535  1.0000
  C   C835      1.0  0.94009  0.89703  0.59660  1.0000
  H   H983      1.0  0.75792  0.94736  0.52061  1.0000
  H   H984      1.0  0.88454  0.85051  0.62517  1.0000
  C   C836      1.0  0.65258  0.90071  0.62902  1.0000
  C   C837      1.0  0.77659  0.84356  0.33227  1.0000
  H   H985      1.0  0.84813  0.90091  0.42804  1.0000
  H   H986      1.0  0.73407  0.78128  0.64380  1.0000
  N   N55       1.0  0.66540  0.89935  0.53496  1.0000
  C   C838      1.0  0.63398  0.84414  0.47781  1.0000
  Fe  Fe115     1.0  0.53209  0.62025  0.62045  1.0000
  C   C839      1.0  0.88820  0.76781  0.36440  1.0000
  C   C840      1.0  0.91388  0.87474  0.56693  1.0000
  N   N56       1.0  0.90970  0.54098  0.32619  1.0000
  C   C841      1.0  0.53583  0.51434  0.60255  1.0000
  C   C842      1.0  0.67033  0.92154  0.33797  1.0000
  C   C843      1.0  0.65161  0.93683  0.56156  1.0000
  H   H987      1.0  0.92236  0.82296  0.58084  1.0000
  H   H988      1.0  0.83648  0.95136  0.46975  1.0000
  H   H989      1.0  0.83152  0.75514  0.60520  1.0000
  C   C844      1.0  0.81170  0.93575  0.39738  1.0000
  H   H990      1.0  0.80238  0.94773  0.47190  1.0000
  H   H991      1.0  0.68339  0.86839  0.51104  1.0000
  H   H992      1.0  0.77149  0.96787  0.44649  1.0000
  H   H993      1.0  0.52308  0.75295  0.59792  1.0000
  C   C845      1.0  0.60583  0.67055  0.63390  1.0000
  N   N57       1.0  0.91495  0.86162  0.59329  1.0000
  H   H994      1.0  0.85143  0.90756  0.45798  1.0000
  H   H995      1.0  0.80192  0.84892  0.48363  1.0000
  H   H996      1.0  0.63002  0.89297  0.56342  1.0000
  S   S231      1.0  0.56890  0.61070  0.58988  1.0000
  C   C846      1.0  0.64987  0.88168  0.55342  1.0000
  H   H997      1.0  0.79973  0.68777  0.60122  1.0000
  S   S232      1.0  0.58151  0.53512  0.58152  1.0000
  H   H998      1.0  0.70339  0.86855  0.53413  1.0000
  N   N58       1.0  0.73437  0.80423  0.48000  1.0000
  H   H999      1.0  0.62702  0.71719  0.59049  1.0000
  C   C847      1.0  0.71605  0.78763  0.49638  1.0000
  C   C848      1.0  0.71671  0.82686  0.46598  1.0000
  C   C849      1.0  0.75008  0.81494  0.49414  1.0000
  C   C850      1.0  0.74512  0.81263  0.52090  1.0000
  C   C851      1.0  0.77059  0.82887  0.48111  1.0000
  C   C852      1.0  0.75988  0.82357  0.53360  1.0000
  C   C853      1.0  0.78577  0.83901  0.49401  1.0000
  C   C854      1.0  0.78038  0.83645  0.52018  1.0000
  H   H1000     1.0  0.61522  0.74931  0.57321  1.0000
  C   C855      1.0  0.92785  0.87505  0.60768  1.0000
  H   H1001     1.0  0.63513  0.67576  0.56952  1.0000
  H   H1002     1.0  0.69966  0.79957  0.50949  1.0000
  H   H1003     1.0  0.72801  0.77027  0.50762  1.0000
  H   H1004     1.0  0.70502  0.77929  0.48528  1.0000
  H   H1005     1.0  0.72889  0.84059  0.45362  1.0000
  H   H1006     1.0  0.70595  0.81982  0.45361  1.0000
  H   H1007     1.0  0.70050  0.83902  0.47901  1.0000
  H   H1008     1.0  0.73047  0.80188  0.53250  1.0000
  C   C856      1.0  0.64769  0.91474  0.51636  1.0000
  H   H1009     1.0  0.75606  0.82117  0.55404  1.0000
  H   H1010     1.0  0.95075  0.54812  0.31829  1.0000
  H   H1011     1.0  0.79234  0.84434  0.52996  1.0000
  S   S233      1.0  0.67808  0.89613  0.45434  1.0000
  H   H1012     1.0  0.59668  0.72420  0.52217  1.0000
  H   H1013     1.0  0.84051  0.91278  0.63733  1.0000
  C   C857      1.0  0.57694  0.68808  0.58065  1.0000
  C   C858      1.0  0.65794  0.95475  0.57431  1.0000
  C   C859      1.0  0.75371  0.78720  0.46176  1.0000
  Fe  Fe116     1.0  0.82482  0.91796  0.58578  1.0000
  C   C860      1.0  0.68982  0.88183  0.52112  1.0000
  C   C861      1.0  0.75180  0.93993  0.50599  1.0000
  H   H1014     1.0  0.59284  0.87034  0.52916  1.0000
  C   C862      1.0  0.56427  0.73645  0.57894  1.0000
  H   H1015     1.0  0.64459  0.86672  0.54433  1.0000
  H   H1016     1.0  0.62875  0.73378  0.52076  1.0000
  C   C863      1.0  0.81942  0.95516  0.45873  1.0000
  C   C864      1.0  0.53815  0.73487  0.59298  1.0000
  C   C865      1.0  0.80436  0.83229  0.33620  1.0000
  C   C866      1.0  0.58445  0.71309  0.57222  1.0000
  S   S234      1.0  0.85548  0.94168  0.58757  1.0000
  C   C867      1.0  0.87034  0.77180  0.34696  1.0000
  Fe  Fe117     1.0  0.76715  0.90764  0.59912  1.0000
  C   C868      1.0  0.55076  0.68680  0.59462  1.0000
  C   C869      1.0  0.92899  0.86579  0.63356  1.0000
  Fe  Fe118     1.0  0.79997  0.90104  0.54710  1.0000
  C   C870      1.0  0.72053  0.94506  0.47646  1.0000
  N   N59       1.0  0.88014  0.69874  0.54446  1.0000
  C   C871      1.0  0.89787  0.71832  0.53509  1.0000
  C   C872      1.0  0.89808  0.67274  0.55312  1.0000
  C   C873      1.0  0.86870  0.69551  0.52271  1.0000
  C   C874      1.0  0.85736  0.70710  0.56536  1.0000
  C   C875      1.0  0.85487  0.73001  0.57712  1.0000
  C   C876      1.0  0.83717  0.69173  0.57505  1.0000
  C   C877      1.0  0.83341  0.73708  0.59711  1.0000
  C   C878      1.0  0.81551  0.69922  0.59475  1.0000
  H   H1017     1.0  0.79639  0.72794  0.62052  1.0000
  H   H1018     1.0  0.90894  0.72069  0.54973  1.0000
  H   H1019     1.0  0.91419  0.71221  0.51876  1.0000
  H   H1020     1.0  0.88534  0.73838  0.52840  1.0000
  H   H1021     1.0  0.91593  0.66611  0.53811  1.0000
  H   H1022     1.0  0.88659  0.65650  0.55852  1.0000
  H   H1023     1.0  0.90657  0.67423  0.56984  1.0000
  H   H1024     1.0  0.85488  0.71463  0.51603  1.0000
  H   H1025     1.0  0.88527  0.68978  0.50644  1.0000
  H   H1026     1.0  0.85644  0.67997  0.52707  1.0000
  H   H1027     1.0  0.86885  0.74319  0.57089  1.0000
  S   S235      1.0  0.83533  0.67920  0.32750  1.0000
  C   C879      1.0  0.62598  0.72811  0.57124  1.0000
  C   C880      1.0  0.89737  0.94882  0.64009  1.0000
  H   H1028     1.0  0.62158  0.67863  0.54089  1.0000
  C   C881      1.0  0.73652  0.92155  0.46729  1.0000
  H   H1029     1.0  0.79602  0.93187  0.36495  1.0000
  C   C882      1.0  0.89962  0.74181  0.37509  1.0000
  H   H1030     1.0  0.70231  0.89391  0.50666  1.0000
  C   C883      1.0  0.79114  0.93983  0.38270  1.0000
  C   C884      1.0  0.85234  0.95115  0.42057  1.0000
  H   H1031     1.0  0.81915  0.90334  0.45308  1.0000
  H   H1032     1.0  0.58684  0.66416  0.63583  1.0000
  H   H1033     1.0  0.67012  0.91050  0.35664  1.0000
  C   C885      1.0  0.81367  0.72182  0.60577  1.0000
  H   H1034     1.0  0.65105  0.69155  0.54060  1.0000
  N   N60       1.0  0.61190  0.71538  0.55729  1.0000
  C   C886      1.0  0.60838  0.73235  0.53279  1.0000
  C   C887      1.0  0.63062  0.68915  0.55185  1.0000
  H   H1035     1.0  0.59716  0.75339  0.53509  1.0000
  H   H1036     1.0  0.90043  0.69984  0.37788  1.0000
  C   C888      1.0  0.89233  0.71992  0.36910  1.0000
  H   H1037     1.0  0.54542  0.66759  0.60084  1.0000
  S   S236      1.0  0.53059  0.57741  0.63388  1.0000
  Fe  Fe119     1.0  0.56989  0.56776  0.60620  1.0000
  S   S237      1.0  0.64615  0.89720  0.40755  1.0000
  C   C889      1.0  0.95537  0.59338  0.34171  1.0000
  H   H1038     1.0  0.86243  0.79179  0.33804  1.0000
  H   H1039     1.0  0.95295  0.68824  0.37829  1.0000
  H   H1040     1.0  0.56864  0.75611  0.57347  1.0000
  H   H1041     1.0  0.95957  0.72006  0.32429  1.0000
  H   H1042     1.0  0.57651  0.97631  0.36756  1.0000
  H   H1043     1.0  0.83976  0.83759  0.34903  1.0000
  H   H1044     1.0  0.54988  0.98510  0.39422  1.0000
  H   H1045     1.0  0.57501  0.50614  0.54473  1.0000
  C   C890      1.0  0.93089  0.83348  0.59230  1.0000
  C   C891      1.0  0.68413  0.90850  0.31705  1.0000
  C   C892      1.0  0.70668  0.93590  0.56202  1.0000
  H   H1046     1.0  0.94802  0.65796  0.35058  1.0000
  H   H1047     1.0  0.74359  0.88002  0.33547  1.0000
  C   C893      1.0  0.80654  0.87279  0.35068  1.0000
  C   C894      1.0  0.53138  0.71006  0.60073  1.0000
  H   H1048     1.0  0.62996  0.93756  0.56238  1.0000
  H   H1049     1.0  0.79805  0.96855  0.60701  1.0000
  H   H1050     1.0  0.59748  0.49649  0.63862  1.0000
  C   C895      1.0  0.81899  0.84684  0.34525  1.0000
  H   H1051     1.0  0.84603  0.97271  0.41287  1.0000
  H   H1052     1.0  0.51112  0.70871  0.61155  1.0000
  H   H1053     1.0  0.91370  0.95835  0.64056  1.0000
  Fe  Fe120     1.0  0.87966  0.65664  0.31943  1.0000
  H   H1054     1.0  0.63084  0.90937  0.63508  1.0000
  H   H1055     1.0  0.93988  0.90586  0.57722  1.0000
  S   S238      1.0  0.63830  0.96482  0.36072  1.0000
  C   C896      1.0  0.62989  0.70260  0.64073  1.0000
  C   C897      1.0  0.77948  0.88450  0.34681  1.0000
  C   C898      1.0  0.85656  0.92259  0.63786  1.0000
  H   H1056     1.0  0.66616  0.93403  0.63636  1.0000
  H   H1057     1.0  0.96129  0.92593  0.60207  1.0000
  H   H1058     1.0  0.78169  0.78853  0.33649  1.0000
  H   H1059     1.0  0.76134  0.95252  0.63875  1.0000
  C   C899      1.0  0.76472  0.87022  0.33766  1.0000
  H   H1060     1.0  0.81504  0.81207  0.33296  1.0000
  H   H1061     1.0  0.58504  0.98644  0.39351  1.0000
  H   H1062     1.0  0.50197  0.49542  0.61925  1.0000
  H   H1063     1.0  0.69040  0.96772  0.58491  1.0000
  H   H1064     1.0  0.81241  0.97725  0.45385  1.0000
  H   H1065     1.0  0.92456  0.72350  0.32178  1.0000
  S   S239      1.0  0.55684  0.62339  0.64865  1.0000
  H   H1066     1.0  0.92025  0.84917  0.64331  1.0000
  H   H1067     1.0  0.86013  0.57937  0.31884  1.0000
  C   C900      1.0  0.54051  0.48805  0.56103  1.0000
  S   S240      1.0  0.84364  0.75439  0.31676  1.0000
  H   H1068     1.0  0.95556  0.76767  0.31675  1.0000
  H   H1069     1.0  0.56462  0.61041  0.85429  1.0000
  C   C901      1.0  0.66985  0.55812  0.95980  1.0000
  H   H1070     1.0  0.75319  0.96253  0.68250  1.0000
  H   H1071     1.0  0.58248  0.57584  0.78634  1.0000
  H   H1072     1.0  0.56120  0.53720  0.80473  1.0000
  C   C902      1.0  0.74899  0.49039  0.94305  1.0000
  H   H1073     1.0  0.74744  0.50733  0.95339  1.0000
  S   S241      1.0  0.51637  0.65532  0.87370  1.0000
  H   H1074     1.0  0.87100  0.98322  0.82958  1.0000
  H   H1075     1.0  0.62790  0.61010  0.97560  1.0000
  N   N61       1.0  0.53881  0.64223  0.73118  1.0000
  C   C903      1.0  0.98941  0.98487  0.79164  1.0000
  Fe  Fe121     1.0  0.55821  0.57973  0.65984  1.0000
  C   C904      1.0  0.49506  0.56058  0.89818  1.0000
  S   S242      1.0  0.51631  0.57777  0.78751  1.0000
  H   H1076     1.0  0.60910  0.54470  0.76483  1.0000
  H   H1077     1.0  0.70224  0.80800  0.66734  1.0000
  H   H1078     1.0  0.85849  0.90762  0.67698  1.0000
  C   C905      1.0  0.57927  0.66401  0.71646  1.0000
  C   C906      1.0  0.53906  0.78554  0.96570  1.0000
  Fe  Fe122     1.0  0.91638  0.96389  0.69442  1.0000
  C   C907      1.0  0.86669  0.91977  0.66036  1.0000
  S   S243      1.0  0.89891  0.92973  0.69012  1.0000
  H   H1079     1.0  0.60707  0.58044  0.86800  1.0000
  H   H1080     1.0  0.98955  0.94651  0.74757  1.0000
  H   H1081     1.0  0.63732  0.54750  0.84188  1.0000
  C   C908      1.0  0.60105  0.54349  0.70178  1.0000
  H   H1082     1.0  0.54203  0.57703  0.88909  1.0000
  H   H1083     1.0  0.51283  0.55573  0.95569  1.0000
  C   C909      1.0  0.60583  0.66464  0.70297  1.0000
  H   H1084     1.0  0.49718  0.61077  0.90395  1.0000
  H   H1085     1.0  0.54305  0.66119  0.76175  1.0000
  H   H1086     1.0  0.78054  0.79751  0.68189  1.0000
  H   H1087     1.0  0.72664  0.89168  0.67537  1.0000
  H   H1088     1.0  0.51958  0.66705  0.70085  1.0000
  H   H1089     1.0  0.63097  0.56823  0.75983  1.0000
  H   H1090     1.0  0.66691  0.55989  0.79001  1.0000
  C   C910      1.0  0.60212  0.57926  0.84997  1.0000
  C   C911      1.0  0.62302  0.52436  0.71090  1.0000
  H   H1091     1.0  0.50609  0.62210  0.84222  1.0000
  C   C912      1.0  0.61966  0.56080  0.83457  1.0000
  H   H1092     1.0  0.67847  0.88642  0.68844  1.0000
  C   C913      1.0  0.57821  0.59610  0.84233  1.0000
  H   H1093     1.0  0.54946  0.54474  0.90783  1.0000
  H   H1094     1.0  0.74485  0.77325  0.67428  1.0000
  C   C914      1.0  0.60988  0.62185  0.68986  1.0000
  H   H1095     1.0  0.64204  0.49810  0.79112  1.0000
  Fe  Fe123     1.0  0.50756  0.66747  0.91219  1.0000
  H   H1096     1.0  0.52281  0.68530  0.72445  1.0000
  H   H1097     1.0  0.64398  0.52289  0.70067  1.0000
  C   C915      1.0  0.62852  0.51313  0.80326  1.0000
  H   H1098     1.0  0.57310  0.49203  0.70791  1.0000
  H   H1099     1.0  0.54770  0.52871  0.74675  1.0000
  C   C916      1.0  0.58925  0.57638  0.80361  1.0000
  H   H1100     1.0  0.51136  0.52965  0.93917  1.0000
  C   C917      1.0  0.55398  0.76057  0.95844  1.0000
  S   S244      1.0  0.50229  0.70866  0.92159  1.0000
  C   C918      1.0  0.53824  0.64271  0.75827  1.0000
  C   C919      1.0  0.52016  0.54311  0.79707  1.0000
  C   C920      1.0  0.54490  0.52764  0.80439  1.0000
  H   H1101     1.0  0.50647  0.51009  0.86187  1.0000
  H   H1102     1.0  0.72561  0.57854  0.96780  1.0000
  S   S245      1.0  0.56113  0.70675  0.95756  1.0000
  C   C921      1.0  0.54860  0.49979  0.81101  1.0000
  C   C922      1.0  0.67373  0.53348  0.97538  1.0000
  C   C923      1.0  0.50220  0.50297  0.80434  1.0000
  H   H1103     1.0  0.54729  0.57379  0.92108  1.0000
  H   H1104     1.0  0.50657  0.60273  0.93452  1.0000
  C   C924      1.0  0.61432  0.55948  0.81044  1.0000
  C   C925      1.0  0.72195  0.87277  0.67445  1.0000
  S   S246      1.0  0.53778  0.64790  0.93807  1.0000
  H   H1105     1.0  0.75799  0.49624  0.92310  1.0000
  H   H1106     1.0  0.64130  0.64457  0.67860  1.0000
  H   H1107     1.0  0.51752  0.64165  0.76974  1.0000
  C   C926      1.0  0.69475  0.86991  0.68170  1.0000
  H   H1108     1.0  0.54243  0.59938  0.73689  1.0000
  H   H1109     1.0  0.60432  0.63973  0.96581  1.0000
  H   H1110     1.0  0.49702  0.66626  0.73087  1.0000
  C   C927      1.0  0.97941  0.97442  0.77454  1.0000
  C   C928      1.0  0.76927  0.96968  0.66864  1.0000
  H   H1111     1.0  0.49941  0.62436  0.66620  1.0000
  C   C929      1.0  0.70897  0.82537  0.66937  1.0000
  C   C930      1.0  0.59064  0.50816  0.74570  1.0000
  H   H1112     1.0  0.56816  0.68096  0.72619  1.0000
  H   H1113     1.0  0.67734  0.52694  0.78028  1.0000
  H   H1114     1.0  0.68524  0.59371  0.94547  1.0000
  H   H1115     1.0  0.58647  0.49433  0.76250  1.0000
  H   H1116     1.0  0.52775  0.61729  0.70945  1.0000
  Fe  Fe124     1.0  0.52861  0.68825  0.95080  1.0000
  C   C931      1.0  0.56713  0.64220  0.71699  1.0000
  C   C932      1.0  0.57153  0.59426  0.81945  1.0000
  H   H1117     1.0  0.64519  0.53383  0.75489  1.0000
  H   H1118     1.0  0.54219  0.50590  0.69466  1.0000
  C   C933      1.0  0.66290  0.53941  0.79427  1.0000
  C   C934      1.0  0.56877  0.52778  0.73695  1.0000
  C   C935      1.0  0.62942  0.54725  0.76729  1.0000
  H   H1119     1.0  0.60681  0.51259  0.80321  1.0000
  H   H1120     1.0  0.52569  0.52270  0.89393  1.0000
  H   H1121     1.0  0.55232  0.60660  0.81401  1.0000
  C   C936      1.0  0.61760  0.50592  0.73218  1.0000
  C   C937      1.0  0.68826  0.84633  0.67905  1.0000
  C   C938      1.0  0.88705  0.93297  0.66155  1.0000
  N   N62       1.0  0.50750  0.56857  0.91697  1.0000
  C   C939      1.0  0.51879  0.66626  0.72147  1.0000
  S   S247      1.0  0.67713  0.49833  0.92236  1.0000
  C   C940      1.0  0.55921  0.48758  0.69703  1.0000
  C   C941      1.0  0.50284  0.55113  0.94125  1.0000
  C   C942      1.0  0.74274  0.85215  0.66429  1.0000
  H   H1122     1.0  0.54619  0.80349  0.95720  1.0000
  C   C943      1.0  0.58407  0.50238  0.65652  1.0000
  H   H1123     1.0  0.94074  0.87143  0.66754  1.0000
  H   H1124     1.0  0.84971  0.97537  0.68175  1.0000
  H   H1125     1.0  0.63268  0.50611  0.82283  1.0000
  S   S248      1.0  0.54591  0.56337  0.70007  1.0000
  C   C944      1.0  0.68807  0.57475  0.95769  1.0000
  Fe  Fe125     1.0  0.63819  0.52904  0.93275  1.0000
  C   C945      1.0  0.52893  0.61839  0.72927  1.0000
  C   C946      1.0  0.53780  0.56589  0.90830  1.0000
  H   H1126     1.0  0.60511  0.55686  0.68466  1.0000
  C   C947      1.0  0.58340  0.62095  0.70340  1.0000
  H   H1127     1.0  0.57594  0.60364  0.70245  1.0000
  C   C948      1.0  0.71087  0.56617  0.97029  1.0000
  S   S249      1.0  0.64301  0.56740  0.94212  1.0000
  H   H1128     1.0  0.57255  0.75928  0.94430  1.0000
  C   C949      1.0  0.62109  0.64359  0.68972  1.0000
  N   N63       1.0  0.63340  0.54029  0.79402  1.0000
  S   S250      1.0  0.61716  0.50069  0.96091  1.0000
  H   H1129     1.0  0.61436  0.68192  0.70207  1.0000
  Fe  Fe126     1.0  0.60146  0.49385  0.92795  1.0000
  C   C950      1.0  0.50736  0.53613  0.88802  1.0000
  C   C951      1.0  0.73702  0.82756  0.66187  1.0000
  C   C952      1.0  0.54428  0.73744  0.96875  1.0000
  H   H1130     1.0  0.66685  0.84461  0.68374  1.0000
  H   H1131     1.0  0.66938  0.52990  0.81258  1.0000
  H   H1132     1.0  0.59562  0.51166  0.66620  1.0000
  S   S251      1.0  0.61890  0.52537  0.90071  1.0000
  S   S252      1.0  0.95881  0.95979  0.70312  1.0000
  H   H1133     1.0  0.57709  0.60643  0.96386  1.0000
  H   H1134     1.0  0.50784  0.61869  0.74038  1.0000
  C   C953      1.0  0.57384  0.54437  0.71423  1.0000
  H   H1135     1.0  0.62153  0.60593  0.67883  1.0000
  C   C954      1.0  0.49880  0.53070  0.79722  1.0000
  H   H1136     1.0  0.55348  0.62513  0.76592  1.0000
  S   S253      1.0  0.55809  0.49031  0.93006  1.0000
  Fe  Fe127     1.0  0.50029  0.64223  0.96640  1.0000
  H   H1137     1.0  0.49199  0.51971  0.73275  1.0000
  H   H1138     1.0  0.58612  0.70525  0.65288  1.0000
  C   C955      1.0  0.49628  0.52846  0.86992  1.0000
  C   C956      1.0  0.49553  0.59673  0.92174  1.0000
  C   C957      1.0  0.78487  0.80158  0.66096  1.0000
  H   H1139     1.0  0.76303  0.85617  0.65745  1.0000
  H   H1140     1.0  0.56634  0.51888  0.65144  1.0000
  H   H1141     1.0  0.49547  0.77690  0.91021  1.0000
  Fe  Fe128     1.0  0.65619  0.49178  0.89291  1.0000
  H   H1142     1.0  0.72722  0.48913  0.94409  1.0000
  H   H1143     1.0  0.49482  0.77289  0.94326  1.0000
  H   H1144     1.0  0.80099  0.78434  0.65377  1.0000
  C   C958      1.0  0.75122  0.78019  0.65396  1.0000
  S   S254      1.0  0.62910  0.73200  0.65231  1.0000
  H   H1145     1.0  0.79501  0.81877  0.65548  1.0000
  H   H1146     1.0  0.49267  0.81973  0.93902  1.0000
  C   C959      1.0  0.52737  0.48738  0.81067  1.0000
  H   H1147     1.0  0.56778  0.48803  0.81656  1.0000
  S   S255      1.0  0.67880  0.48749  0.85353  1.0000
  H   H1148     1.0  0.53734  0.48999  0.65616  1.0000
  C   C960      1.0  0.78530  0.98453  0.67543  1.0000
  H   H1149     1.0  0.78812  0.48865  0.96719  1.0000
  H   H1150     1.0  0.65983  0.52047  0.97695  1.0000
  H   H1151     1.0  0.59740  0.57840  0.98076  1.0000
  N   N64       1.0  0.75914  0.80632  0.65025  1.0000
  H   H1152     1.0  0.90643  0.98603  0.82584  1.0000
  S   S256      1.0  0.49348  0.68093  0.98152  1.0000
