data_image0
_chemical_formula_structural       FeS2FeHSFeHSCS2CHC7H3C2HCHCH2NHC3H2C3H3CH6CHCNH3CHCH2C2NC3H6C2FeS2FeSHFeSFeHS2HC7H4SC2HC2H4C2H3C2SH2CHCH2CH7C2H2CHCFeH2NC3H2CH3CHCH2SNH3CHC4HCHCSCHC3H3C3H2SH3FeSCFeSHFeSFeCS3C6SH2CHC2HC3H3CNHSH2C2H4C3HC2HSCH7CH4C2HC4HC3H2CHC2H3C2HNH5CH2CNH3CH2FeS2FeHSFeH3S2CHC6HCH3C4NH3C2HCSH3CH4C2H2C3H5C2HCHC4HC2HCHC3HCH3C4H2SHFeCHSH3CFeSHFeS2FeCFeHCSFeSFeS2FeCFeS2H2CH6C7HCHC2H2C3H3C4HCH2C2H4CH3CNH4C2H2C2S2CHC2SFeCH2SHSH2C2HC3H2NH5SH2C2HNH5C3H2FeSCFeS2FeHFeS3FeNFeHSHNCSHCH2CH6C6H3CH2NCSH2CHC2HCHC2NHSC2H2C2SH4C2H2CHC2H2C2H2CH5SC2HFeH2C2HC2HC2HCSCHCHC2H3CH4NHCH2FeSCFeS2FeHFeS3FeCFeCSHC2SHCHCH6C9H3SHNSCH2C3HCH6CHCNH3SCHC2HNCHCHCHC2FeH6CHSH3C2HCH2CHC3H2CHFeSCFeS2FeSFeCS2FeCFeS2FeHFeS2H2CH2CH4C7HCSCH5C3HC2H3CN2H2CH2CH2C2H5CHCH3C5H2SCHSH2CHC3H2CHNC2HC4HCHCS2H2CHCH2FeH4NH2CFeSHFeSHFeSFeS3CHCSCH4C3SC8H4C2H2C2H5CSC3HC2H3NH3CHCH2NH2CHC2H2CHC2SC4H7C8H4CH3FeSCFeS2FeSFeS3H3CH2SC2H2CHCHC6H4C5H3C2NC9H10C2H6C3HCSFeSHFeS2FeSFeS3CSHCH3CHCH4C7H4C3H7NC6HCH5CH2NHC2HC2H5C2SCH2CHSHFeSHFeS2FeSFeCS2H3C2NC3H6C6H4C2H2CNH9CHC2HC3NC6HC2HC2H5CHCHSC3H3SH7CSCH3CH2S
_chemical_formula_sum              "Fe64 S128 H576 C480 N32"
_cell_length_a       34.7332
_cell_length_b       32.1556
_cell_length_c       31.3246
_cell_angle_alpha    90.0606
_cell_angle_beta     90.1761
_cell_angle_gamma    90.1308

_space_group_name_H-M_alt    "P 1"
_space_group_IT_number       1

loop_
  _space_group_symop_operation_xyz
  'x, y, z'

loop_
  _atom_site_type_symbol
  _atom_site_label
  _atom_site_symmetry_multiplicity
  _atom_site_fract_x
  _atom_site_fract_y
  _atom_site_fract_z
  _atom_site_occupancy
  Fe  Fe1       1.0  0.09158  0.15173  0.07644  1.0000
  S   S1        1.0  0.09057  0.18849  0.01597  1.0000
  S   S2        1.0  0.04877  0.16781  0.12957  1.0000
  Fe  Fe2       1.0  0.15231  0.09084  0.03901  1.0000
  H   H1        1.0  0.06379  0.31626  0.05057  1.0000
  S   S3        1.0  0.17921  0.02592  0.03831  1.0000
  Fe  Fe3       1.0  0.15523  0.18349  0.01879  1.0000
  H   H2        1.0  0.31403  0.21811  0.06918  1.0000
  S   S4        1.0  0.18554  0.24561  0.00767  1.0000
  C   C1        1.0  0.04095  0.29443  0.14353  1.0000
  S   S5        1.0  0.15651  0.14830  0.08094  1.0000
  S   S6        1.0  0.08731  0.09045  0.04141  1.0000
  C   C2        1.0  0.10563  0.45120  0.43286  1.0000
  H   H3        1.0  0.28333  0.44555  0.11470  1.0000
  C   C3        1.0  0.23192  0.25937  0.02731  1.0000
  C   C4        1.0  0.07141  0.46651  0.14405  1.0000
  C   C5        1.0  0.28142  0.31294  0.03817  1.0000
  C   C6        1.0  0.30692  0.28312  0.05417  1.0000
  C   C7        1.0  0.29452  0.24151  0.05716  1.0000
  C   C8        1.0  0.25707  0.22977  0.04436  1.0000
  C   C9        1.0  0.27002  0.47548  0.12010  1.0000
  H   H4        1.0  0.29066  0.34497  0.03534  1.0000
  H   H5        1.0  0.24790  0.19772  0.04702  1.0000
  H   H6        1.0  0.26077  0.42723  0.47918  1.0000
  C   C10       1.0  0.24429  0.30099  0.02436  1.0000
  C   C11       1.0  0.25364  0.03632  0.06978  1.0000
  H   H7        1.0  0.07024  0.49163  0.11963  1.0000
  C   C12       1.0  0.05275  0.25461  0.12967  1.0000
  H   H8        1.0  0.08952  0.42200  0.43945  1.0000
  C   C13       1.0  0.03521  0.21882  0.14613  1.0000
  H   H9        1.0  0.24410  0.06575  0.08271  1.0000
  H   H10       1.0  0.05205  0.45822  0.25000  1.0000
  N   N1        1.0  0.08346  0.33064  0.98716  1.0000
  H   H11       1.0  0.05158  0.44127  0.13358  1.0000
  C   C14       1.0  0.14593  0.43810  0.03348  1.0000
  C   C15       1.0  0.10443  0.36790  0.00273  1.0000
  C   C16       1.0  0.09068  0.40912  0.99648  1.0000
  H   H12       1.0  0.02624  0.35604  0.99267  1.0000
  H   H13       1.0  0.12331  0.44606  0.40374  1.0000
  C   C17       1.0  0.20146  0.44674  0.47504  1.0000
  C   C18       1.0  0.22988  0.48003  0.11552  1.0000
  C   C19       1.0  0.06175  0.44780  0.21788  1.0000
  H   H14       1.0  0.05501  0.32180  0.13093  1.0000
  H   H15       1.0  0.07575  0.25149  0.10670  1.0000
  H   H16       1.0  0.15306  0.33328  0.02928  1.0000
  C   C20       1.0  0.29140  0.02220  0.07775  1.0000
  H   H17       1.0  0.01695  0.06981  0.13288  1.0000
  H   H18       1.0  0.00825  0.20208  0.05276  1.0000
  H   H19       1.0  0.10524  0.28690  0.03411  1.0000
  H   H20       1.0  0.10113  0.45353  0.14320  1.0000
  H   H21       1.0  0.09092  0.43388  0.22130  1.0000
  H   H22       1.0  0.21250  0.45335  0.10695  1.0000
  C   C21       1.0  0.07772  0.30088  0.02281  1.0000
  H   H23       1.0  0.04252  0.42187  0.20795  1.0000
  C   C22       1.0  0.22803  0.01172  0.04615  1.0000
  N   N2        1.0  0.13005  0.46461  0.46941  1.0000
  H   H24       1.0  0.05923  0.27416  0.01322  1.0000
  H   H25       1.0  0.18788  0.39407  0.05577  1.0000
  H   H26       1.0  0.33696  0.23911  0.19601  1.0000
  C   C23       1.0  0.01157  0.29907  0.17405  1.0000
  H   H27       1.0  0.12127  0.49675  0.20096  1.0000
  C   C24       1.0  0.16201  0.43470  0.47551  1.0000
  H   H28       1.0  0.31081  0.04107  0.09669  1.0000
  H   H29       1.0  0.31975  0.17528  0.99016  1.0000
  C   C25       1.0  0.16052  0.39820  0.03949  1.0000
  C   C26       1.0  0.14024  0.36357  0.02430  1.0000
  N   N3        1.0  0.06153  0.48279  0.18698  1.0000
  C   C27       1.0  0.31611  0.14216  0.98463  1.0000
  C   C28       1.0  0.23083  0.41738  0.47974  1.0000
  C   C29       1.0  0.11116  0.44354  0.01195  1.0000
  H   H30       1.0  0.25422  0.14520  0.98704  1.0000
  H   H31       1.0  0.08345  0.47481  0.42467  1.0000
  H   H32       1.0  0.10019  0.47477  0.00689  1.0000
  H   H33       1.0  0.16178  0.46494  0.04513  1.0000
  H   H34       1.0  0.22525  0.32411  0.01092  1.0000
  H   H35       1.0  0.21055  0.47866  0.47129  1.0000
  C   C30       1.0  0.01453  0.04467  0.48062  1.0000
  C   C31       1.0  0.27915  0.12533  0.98290  1.0000
  Fe  Fe4       1.0  0.07610  0.14392  0.64109  1.0000
  S   S7        1.0  0.07289  0.17650  0.57811  1.0000
  S   S8        1.0  0.04244  0.16000  0.70156  1.0000
  Fe  Fe5       1.0  0.13663  0.08203  0.60699  1.0000
  S   S9        1.0  0.13769  0.11120  0.54164  1.0000
  H   H36       1.0  0.11258  0.02256  0.69739  1.0000
  Fe  Fe6       1.0  0.13787  0.17212  0.57779  1.0000
  S   S10       1.0  0.17129  0.23312  0.57067  1.0000
  Fe  Fe7       1.0  0.07293  0.11234  0.54824  1.0000
  H   H37       1.0  0.04688  0.36015  0.94003  1.0000
  S   S11       1.0  0.14086  0.14243  0.64287  1.0000
  S   S12       1.0  0.07212  0.08021  0.61158  1.0000
  H   H38       1.0  0.09263  0.43543  0.51583  1.0000
  C   C32       1.0  0.14654  0.34967  0.61741  1.0000
  C   C33       1.0  0.21838  0.24055  0.55013  1.0000
  C   C34       1.0  0.23687  0.27896  0.55708  1.0000
  C   C35       1.0  0.27345  0.28715  0.53968  1.0000
  C   C36       1.0  0.29166  0.25728  0.51441  1.0000
  C   C37       1.0  0.29613  0.00812  0.63852  1.0000
  C   C38       1.0  0.23711  0.21015  0.52595  1.0000
  H   H39       1.0  0.22281  0.30267  0.57583  1.0000
  H   H40       1.0  0.28725  0.31687  0.54522  1.0000
  H   H41       1.0  0.02939  0.31143  0.95866  1.0000
  H   H42       1.0  0.11548  0.03460  0.81691  1.0000
  S   S13       1.0  0.16539  0.02047  0.62183  1.0000
  C   C39       1.0  0.23893  0.05195  0.63303  1.0000
  C   C40       1.0  0.27882  0.04757  0.63951  1.0000
  H   H43       1.0  0.10122  0.31830  0.73427  1.0000
  C   C41       1.0  0.27604  0.46807  0.56255  1.0000
  C   C42       1.0  0.10641  0.31008  0.95339  1.0000
  H   H44       1.0  0.22580  0.08241  0.63412  1.0000
  H   H45       1.0  0.29620  0.07481  0.64570  1.0000
  H   H46       1.0  0.28797  0.43945  0.57492  1.0000
  H   H47       1.0  0.22203  0.46127  0.59554  1.0000
  C   C43       1.0  0.09061  0.27934  0.63435  1.0000
  C   C44       1.0  0.10699  0.38144  0.67202  1.0000
  H   H48       1.0  0.08397  0.24689  0.64433  1.0000
  H   H49       1.0  0.31230  0.09000  0.55870  1.0000
  H   H50       1.0  0.16582  0.27379  0.65085  1.0000
  C   C45       1.0  0.11772  0.42078  0.65707  1.0000
  C   C46       1.0  0.14297  0.42464  0.62286  1.0000
  S   S14       1.0  0.04858  0.11519  0.92575  1.0000
  H   H51       1.0  0.16473  0.29623  0.70326  1.0000
  H   H52       1.0  0.08732  0.38087  0.69865  1.0000
  C   C47       1.0  0.08609  0.04820  0.81514  1.0000
  H   H53       1.0  0.06299  0.29494  0.62611  1.0000
  C   C48       1.0  0.15729  0.38918  0.60297  1.0000
  H   H54       1.0  0.15808  0.32303  0.60068  1.0000
  H   H55       1.0  0.10754  0.27669  0.60445  1.0000
  C   C49       1.0  0.03237  0.06421  0.91230  1.0000
  H   H56       1.0  0.12930  0.07109  0.74903  1.0000
  H   H57       1.0  0.33473  0.14099  0.62703  1.0000
  H   H58       1.0  0.08011  0.27007  0.71783  1.0000
  H   H59       1.0  0.15151  0.45527  0.61190  1.0000
  H   H60       1.0  0.22310  0.18058  0.52011  1.0000
  H   H61       1.0  0.07477  0.03212  0.94999  1.0000
  H   H62       1.0  0.01269  0.05124  0.78843  1.0000
  C   C50       1.0  0.09888  0.08193  0.74859  1.0000
  C   C51       1.0  0.14723  0.27914  0.67911  1.0000
  H   H63       1.0  0.05861  0.31747  0.70086  1.0000
  H   H64       1.0  0.17710  0.39235  0.57645  1.0000
  C   C52       1.0  0.23871  0.48062  0.57431  1.0000
  H   H65       1.0  0.01363  0.19678  0.77893  1.0000
  C   C53       1.0  0.08689  0.30228  0.70700  1.0000
  Fe  Fe8       1.0  0.09048  0.12721  0.98102  1.0000
  H   H66       1.0  0.06699  0.02797  0.83444  1.0000
  H   H67       1.0  0.10655  0.44858  0.67228  1.0000
  N   N4        1.0  0.11157  0.30230  0.66830  1.0000
  C   C54       1.0  0.30619  0.05686  0.97120  1.0000
  C   C55       1.0  0.12152  0.34452  0.65285  1.0000
  C   C56       1.0  0.21595  0.01673  0.62655  1.0000
  H   H68       1.0  0.14072  0.24762  0.69203  1.0000
  H   H69       1.0  0.09840  0.11307  0.76427  1.0000
  C   C57       1.0  0.03356  0.07011  0.76985  1.0000
  H   H70       1.0  0.13526  0.30037  0.96513  1.0000
  H   H71       1.0  0.17700  0.33000  0.49157  1.0000
  H   H72       1.0  0.30012  0.02414  0.96722  1.0000
  C   C58       1.0  0.07196  0.01037  0.74987  1.0000
  H   H73       1.0  0.08999  0.08717  0.71485  1.0000
  C   C59       1.0  0.05079  0.02875  0.92809  1.0000
  H   H74       1.0  0.05393  0.01231  0.52170  1.0000
  H   H75       1.0  0.09204  0.28136  0.94131  1.0000
  S   S15       1.0  0.02822  0.09568  0.49703  1.0000
  N   N5        1.0  0.07282  0.05198  0.77023  1.0000
  H   H76       1.0  0.08668  0.07890  0.83177  1.0000
  H   H77       1.0  0.11128  0.33135  0.92591  1.0000
  H   H78       1.0  0.12382  0.47520  0.53677  1.0000
  C   C60       1.0  0.34067  0.08882  0.54432  1.0000
  H   H79       1.0  0.03321  0.10189  0.78413  1.0000
  C   C61       1.0  0.27345  0.21864  0.50791  1.0000
  C   C62       1.0  0.04489  0.34011  0.96894  1.0000
  C   C63       1.0  0.09389  0.00039  0.71295  1.0000
  C   C64       1.0  0.01775  0.20742  0.71110  1.0000
  H   H80       1.0  0.02237  0.07289  0.73664  1.0000
  C   C65       1.0  0.03134  0.00902  0.49811  1.0000
  H   H81       1.0  0.24493  0.35290  0.48857  1.0000
  C   C66       1.0  0.33333  0.20488  0.61149  1.0000
  S   S16       1.0  0.15518  0.12620  0.97698  1.0000
  C   C67       1.0  0.29845  0.49360  0.53637  1.0000
  H   H82       1.0  0.12477  0.38036  0.48333  1.0000
  C   C68       1.0  0.00847  0.23472  0.67795  1.0000
  C   C69       1.0  0.15404  0.39179  0.48206  1.0000
  C   C70       1.0  0.10617  0.46593  0.50854  1.0000
  H   H83       1.0  0.24535  0.06977  0.97581  1.0000
  H   H84       1.0  0.08233  0.48887  0.50562  1.0000
  H   H85       1.0  0.30415  0.20303  0.59901  1.0000
  C   C71       1.0  0.27423  0.08283  0.97625  1.0000
  C   C72       1.0  0.22198  0.37550  0.48539  1.0000
  C   C73       1.0  0.18367  0.36272  0.48686  1.0000
  H   H86       1.0  0.01538  0.22652  0.64537  1.0000
  H   H87       1.0  0.28712  0.19537  0.48820  1.0000
  S   S17       1.0  0.33688  0.26714  0.49022  1.0000
  H   H88       1.0  0.33870  0.27025  0.59796  1.0000
  H   H89       1.0  0.34064  0.15313  0.52836  1.0000
  H   H90       1.0  0.06433  0.41572  0.97946  1.0000
  Fe  Fe9       1.0  0.07170  0.64792  0.13293  1.0000
  S   S18       1.0  0.07150  0.67994  0.06924  1.0000
  C   C74       1.0  0.14319  0.50778  0.46051  1.0000
  Fe  Fe10      1.0  0.13299  0.58476  0.10271  1.0000
  S   S19       1.0  0.13771  0.61371  0.03762  1.0000
  H   H91       1.0  0.20743  0.87350  0.03826  1.0000
  Fe  Fe11      1.0  0.13636  0.67488  0.07302  1.0000
  S   S20       1.0  0.17202  0.73450  0.06763  1.0000
  Fe  Fe12      1.0  0.07273  0.61548  0.03988  1.0000
  C   C75       1.0  0.05195  0.78537  0.31822  1.0000
  S   S21       1.0  0.13628  0.64535  0.13835  1.0000
  S   S22       1.0  0.06818  0.58401  0.10324  1.0000
  S   S23       1.0  0.16154  0.52285  0.11749  1.0000
  C   C76       1.0  0.04038  0.82651  0.32486  1.0000
  C   C77       1.0  0.21758  0.74215  0.04355  1.0000
  C   C78       1.0  0.24019  0.77607  0.05697  1.0000
  C   C79       1.0  0.27546  0.78527  0.03703  1.0000
  C   C80       1.0  0.28834  0.76084  0.00304  1.0000
  C   C81       1.0  0.29522  0.64626  0.06509  1.0000
  S   S24       1.0  0.03529  0.59528  0.98303  1.0000
  H   H92       1.0  0.23031  0.79548  0.08295  1.0000
  H   H93       1.0  0.29248  0.81150  0.04777  1.0000
  C   C82       1.0  0.23492  0.55294  0.13373  1.0000
  H   H94       1.0  0.22153  0.58278  0.13943  1.0000
  C   C83       1.0  0.02799  0.74926  0.18043  1.0000
  C   C84       1.0  0.26582  0.72680  0.98959  1.0000
  H   H95       1.0  0.08323  0.70034  0.41185  1.0000
  C   C85       1.0  0.01416  0.78895  0.19195  1.0000
  C   C86       1.0  0.27868  0.95953  0.03735  1.0000
  C   C87       1.0  0.03665  0.55707  0.41708  1.0000
  H   H96       1.0  0.04834  0.74606  0.15455  1.0000
  H   H97       1.0  0.09564  0.53818  0.17711  1.0000
  H   H98       1.0  0.28804  0.92986  0.02487  1.0000
  C   C88       1.0  0.14583  0.92051  0.04645  1.0000
  N   N6        1.0  0.06507  0.71243  0.34661  1.0000
  H   H99       1.0  0.03944  0.56658  0.20058  1.0000
  S   S25       1.0  0.03389  0.66342  0.19074  1.0000
  H   H100      1.0  0.16095  0.50931  0.43104  1.0000
  H   H101      1.0  0.03322  0.51899  0.03465  1.0000
  C   C89       1.0  0.02967  0.81211  0.39935  1.0000
  C   C90       1.0  0.01973  0.51258  0.00418  1.0000
  H   H102      1.0  0.03822  0.65187  0.34682  1.0000
  H   H103      1.0  0.27747  0.63064  0.04009  1.0000
  H   H104      1.0  0.02393  0.81601  0.17456  1.0000
  H   H105      1.0  0.21325  0.69147  0.99889  1.0000
  C   C91       1.0  0.24089  0.97349  0.02967  1.0000
  C   C92       1.0  0.10677  0.81676  0.00640  1.0000
  C   C93       1.0  0.04110  0.77084  0.39311  1.0000
  H   H106      1.0  0.14958  0.93764  0.01584  1.0000
  C   C94       1.0  0.02787  0.54495  0.37493  1.0000
  C   C95       1.0  0.27483  0.54803  0.13984  1.0000
  H   H107      1.0  0.18487  0.82849  0.01587  1.0000
  S   S26       1.0  0.06156  0.60476  0.42621  1.0000
  C   C96       1.0  0.14350  0.85502  0.08279  1.0000
  H   H108      1.0  0.03985  0.75024  0.42030  1.0000
  H   H109      1.0  0.11850  0.52944  0.45572  1.0000
  H   H110      1.0  0.28573  0.63413  0.09664  1.0000
  H   H111      1.0  0.33382  0.57852  0.08758  1.0000
  H   H112      1.0  0.29193  0.57422  0.15051  1.0000
  H   H113      1.0  0.16638  0.86716  0.10450  1.0000
  H   H114      1.0  0.12585  0.79388  0.02027  1.0000
  C   C97       1.0  0.09253  0.51211  0.20014  1.0000
  H   H115      1.0  0.08720  0.52518  0.23248  1.0000
  H   H116      1.0  0.10673  0.72419  0.29704  1.0000
  H   H117      1.0  0.03904  0.84796  0.29817  1.0000
  H   H118      1.0  0.05993  0.70780  0.27795  1.0000
  C   C98       1.0  0.29262  0.50944  0.13258  1.0000
  C   C99       1.0  0.23067  0.71731  0.00991  1.0000
  H   H119      1.0  0.14787  0.82078  0.08154  1.0000
  C   C100      1.0  0.11262  0.86000  0.01325  1.0000
  C   C101      1.0  0.02957  0.83993  0.36534  1.0000
  C   C102      1.0  0.02502  0.53133  0.45065  1.0000
  C   C103      1.0  0.18203  0.86280  0.01935  1.0000
  H   H120      1.0  0.11951  0.72292  0.37814  1.0000
  C   C104      1.0  0.21221  0.51881  0.12195  1.0000
  C   C105      1.0  0.09471  0.70090  0.37880  1.0000
  C   C106      1.0  0.01564  0.71389  0.20251  1.0000
  H   H121      1.0  0.01904  0.68724  0.38508  1.0000
  H   H122      1.0  0.28765  0.67984  0.06430  1.0000
  C   C107      1.0  0.30395  0.98358  0.06196  1.0000
  H   H123      1.0  0.11905  0.93166  0.06210  1.0000
  C   C108      1.0  0.02278  0.50198  0.18563  1.0000
  C   C109      1.0  0.03098  0.68519  0.35222  1.0000
  H   H124      1.0  0.05907  0.77706  0.28577  1.0000
  H   H125      1.0  0.09157  0.67096  0.30082  1.0000
  H   H126      1.0  0.11514  0.86068  0.09818  1.0000
  C   C110      1.0  0.05328  0.75634  0.35245  1.0000
  C   C111      1.0  0.08159  0.70372  0.30379  1.0000
  H   H127      1.0  0.17024  0.93062  0.06725  1.0000
  N   N7        1.0  0.14526  0.87468  0.03995  1.0000
  H   H128      1.0  0.10603  0.66894  0.37336  1.0000
  H   H129      1.0  0.03668  0.56457  0.34866  1.0000
  H   H130      1.0  0.22152  0.95452  0.01087  1.0000
  H   H131      1.0  0.02019  0.87176  0.37022  1.0000
  H   H132      1.0  0.02021  0.82265  0.43052  1.0000
  C   C112      1.0  0.01634  0.54495  0.19389  1.0000
  H   H133      1.0  0.32735  0.57812  0.03150  1.0000
  H   H134      1.0  0.00758  0.69380  0.32951  1.0000
  C   C113      1.0  0.00818  0.50734  0.36636  1.0000
  N   N8        1.0  0.33699  0.63929  0.05856  1.0000
  H   H135      1.0  0.33342  0.63857  0.98961  1.0000
  H   H136      1.0  0.18432  0.87652  0.98683  1.0000
  H   H137      1.0  0.08854  0.92095  0.99559  1.0000
  C   C114      1.0  0.08632  0.88754  0.99282  1.0000
  H   H138      1.0  0.25237  0.79904  0.47889  1.0000
  H   H139      1.0  0.34008  0.68876  0.01170  1.0000
  Fe  Fe13      1.0  0.09128  0.66192  0.57869  1.0000
  S   S27       1.0  0.09320  0.69051  0.51325  1.0000
  S   S28       1.0  0.05815  0.68500  0.63711  1.0000
  Fe  Fe14      1.0  0.15031  0.59470  0.55428  1.0000
  H   H140      1.0  0.15990  0.77661  0.57091  1.0000
  S   S29       1.0  0.17726  0.53419  0.57696  1.0000
  Fe  Fe15      1.0  0.15749  0.68282  0.51929  1.0000
  H   H141      1.0  0.04743  0.96288  0.58584  1.0000
  H   H142      1.0  0.11160  0.79014  0.58328  1.0000
  H   H143      1.0  0.06828  0.89900  0.69857  1.0000
  S   S30       1.0  0.15574  0.65739  0.58592  1.0000
  S   S31       1.0  0.08551  0.59640  0.55288  1.0000
  C   C115      1.0  0.13882  0.80265  0.56977  1.0000
  H   H144      1.0  0.03117  0.98321  0.79512  1.0000
  C   C116      1.0  0.23572  0.75464  0.52701  1.0000
  C   C117      1.0  0.13327  0.91358  0.57256  1.0000
  C   C118      1.0  0.10553  0.94505  0.57092  1.0000
  C   C119      1.0  0.30176  0.78316  0.57169  1.0000
  C   C120      1.0  0.27754  0.75261  0.58933  1.0000
  C   C121      1.0  0.24459  0.73858  0.56727  1.0000
  H   H145      1.0  0.11300  0.97532  0.55793  1.0000
  C   C122      1.0  0.06934  0.92980  0.71261  1.0000
  H   H146      1.0  0.29996  0.55075  0.50063  1.0000
  H   H147      1.0  0.18206  0.80427  0.64205  1.0000
  H   H148      1.0  0.30055  0.67798  0.53273  1.0000
  C   C123      1.0  0.24542  0.54339  0.53249  1.0000
  C   C124      1.0  0.28276  0.53094  0.52092  1.0000
  C   C125      1.0  0.09253  0.96064  0.69484  1.0000
  C   C126      1.0  0.25916  0.78618  0.50992  1.0000
  N   N9        1.0  0.15323  0.83983  0.59306  1.0000
  H   H149      1.0  0.23405  0.57268  0.52121  1.0000
  H   H150      1.0  0.02984  0.91438  0.76292  1.0000
  H   H151      1.0  0.28637  0.94250  0.63020  1.0000
  C   C127      1.0  0.12462  0.87387  0.59019  1.0000
  C   C128      1.0  0.02633  0.74616  0.68702  1.0000
  H   H152      1.0  0.10989  0.95389  0.66694  1.0000
  C   C129      1.0  0.29200  0.80052  0.53220  1.0000
  S   S32       1.0  0.19551  0.73641  0.49742  1.0000
  H   H153      1.0  0.25013  0.54930  0.66197  1.0000
  H   H154      1.0  0.02738  0.81823  0.94248  1.0000
  H   H155      1.0  0.16017  0.52075  0.48765  1.0000
  C   C130      1.0  0.05928  0.89970  0.60426  1.0000
  H   H156      1.0  0.07822  0.83891  0.62049  1.0000
  H   H157      1.0  0.13355  0.80980  0.53544  1.0000
  H   H158      1.0  0.31054  0.82379  0.51805  1.0000
  H   H159      1.0  0.21225  0.82471  0.57768  1.0000
  C   C131      1.0  0.15937  0.82850  0.63849  1.0000
  C   C132      1.0  0.06863  0.93816  0.58672  1.0000
  H   H160      1.0  0.22636  0.71494  0.58116  1.0000
  H   H161      1.0  0.03074  0.89459  0.61712  1.0000
  C   C133      1.0  0.26012  0.60757  0.63024  1.0000
  C   C134      1.0  0.00790  0.98357  0.88615  1.0000
  C   C135      1.0  0.01895  0.96914  0.48498  1.0000
  H   H162      1.0  0.13296  0.81549  0.65345  1.0000
  H   H163      1.0  0.28460  0.73939  0.62012  1.0000
  H   H164      1.0  0.21559  0.94999  0.62069  1.0000
  H   H165      1.0  0.16133  0.92150  0.56015  1.0000
  H   H166      1.0  0.20477  0.87767  0.59178  1.0000
  C   C136      1.0  0.05597  0.87234  0.96765  1.0000
  C   C137      1.0  0.03620  0.73418  0.64524  1.0000
  H   H167      1.0  0.05389  0.96183  0.92668  1.0000
  C   C138      1.0  0.22347  0.51855  0.55978  1.0000
  H   H168      1.0  0.18925  0.85810  0.54014  1.0000
  C   C139      1.0  0.08676  0.86803  0.60613  1.0000
  C   C140      1.0  0.31976  0.61332  0.58856  1.0000
  C   C141      1.0  0.19139  0.85082  0.57483  1.0000
  C   C142      1.0  0.04757  0.93852  0.74875  1.0000
  H   H169      1.0  0.16849  0.85612  0.65754  1.0000
  C   C143      1.0  0.28486  0.63045  0.60407  1.0000
  C   C144      1.0  0.27331  0.97301  0.63087  1.0000
  H   H170      1.0  0.23293  0.62076  0.64041  1.0000
  C   C145      1.0  0.02664  0.76053  0.61133  1.0000
  H   H171      1.0  0.27542  0.70785  0.96314  1.0000
  C   C146      1.0  0.30456  0.55016  0.62939  1.0000
  C   C147      1.0  0.26985  0.56739  0.64266  1.0000
  C   C148      1.0  0.23326  0.97730  0.62546  1.0000
  H   H172      1.0  0.27623  0.66155  0.59570  1.0000
  C   C149      1.0  0.03879  0.98881  0.91487  1.0000
  H   H173      1.0  0.03380  0.75161  0.57900  1.0000
  H   H174      1.0  0.07237  0.76873  0.97698  1.0000
  H   H175      1.0  0.03388  0.72615  0.71349  1.0000
  C   C150      1.0  0.32170  0.65392  0.52295  1.0000
  C   C151      1.0  0.01727  0.54416  0.97354  1.0000
  C   C152      1.0  0.04865  0.97816  0.76707  1.0000
  C   C153      1.0  0.05094  0.82971  0.96203  1.0000
  H   H176      1.0  0.03229  0.94185  0.49867  1.0000
  H   H177      1.0  0.31179  0.51858  0.63848  1.0000
  S   S33       1.0  0.15716  0.61968  0.48791  1.0000
  H   H178      1.0  0.03614  0.89368  0.95219  1.0000
  Fe  Fe16      1.0  0.09250  0.62452  0.48782  1.0000
  C   C154      1.0  0.32931  0.57260  0.60279  1.0000
  H   H179      1.0  0.30551  0.62842  0.50680  1.0000
  S   S34       1.0  0.33261  0.77160  0.97716  1.0000
  H   H180      1.0  0.03093  0.54053  0.48325  1.0000
  H   H181      1.0  0.33894  0.69455  0.59581  1.0000
  H   H182      1.0  0.34016  0.66938  0.49864  1.0000
  C   C155      1.0  0.07628  0.80196  0.98137  1.0000
  Fe  Fe17      1.0  0.64573  0.10656  0.34503  1.0000
  S   S35       1.0  0.64807  0.13417  0.41099  1.0000
  H   H183      1.0  0.41239  0.23779  0.11293  1.0000
  Fe  Fe18      1.0  0.58784  0.17349  0.31385  1.0000
  S   S36       1.0  0.58632  0.20354  0.37853  1.0000
  S   S37       1.0  0.55589  0.19845  0.25488  1.0000
  Fe  Fe19      1.0  0.65079  0.19566  0.37699  1.0000
  C   C156      1.0  0.56739  0.48412  0.13533  1.0000
  Fe  Fe20      1.0  0.58359  0.13819  0.40568  1.0000
  H   H184      1.0  0.52222  0.38901  0.13997  1.0000
  C   C157      1.0  0.56163  0.41209  0.18733  1.0000
  S   S38       1.0  0.58072  0.10853  0.34087  1.0000
  Fe  Fe21      1.0  0.37566  0.44740  0.11879  1.0000
  S   S39       1.0  0.37832  0.42289  0.05140  1.0000
  Fe  Fe22      1.0  0.43853  0.38755  0.15165  1.0000
  S   S40       1.0  0.44625  0.36028  0.08646  1.0000
  S   S41       1.0  0.46799  0.36865  0.21429  1.0000
  Fe  Fe23      1.0  0.44276  0.42611  0.06098  1.0000
  C   C158      1.0  0.53553  0.49225  0.35366  1.0000
  Fe  Fe24      1.0  0.38124  0.35955  0.08282  1.0000
  S   S42       1.0  0.43990  0.45336  0.12676  1.0000
  S   S43       1.0  0.37389  0.38426  0.14951  1.0000
  H   H185      1.0  0.40448  0.29431  0.21616  1.0000
  H   H186      1.0  0.53148  0.26803  0.30978  1.0000
  C   C159      1.0  0.51863  0.45317  0.36237  1.0000
  H   H187      1.0  0.38489  0.03818  0.03465  1.0000
  H   H188      1.0  0.49713  0.33390  0.29273  1.0000
  H   H189      1.0  0.44483  0.44992  0.33143  1.0000
  H   H190      1.0  0.49939  0.30331  0.15933  1.0000
  H   H191      1.0  0.52193  0.42804  0.33969  1.0000
  H   H192      1.0  0.53315  0.23724  0.17647  1.0000
  C   C160      1.0  0.58563  0.44481  0.19950  1.0000
  C   C161      1.0  0.53468  0.24786  0.24441  1.0000
  C   C162      1.0  0.52549  0.25839  0.20196  1.0000
  C   C163      1.0  0.50618  0.29577  0.19214  1.0000
  C   C164      1.0  0.49520  0.32289  0.22477  1.0000
  C   C165      1.0  0.50535  0.31307  0.26716  1.0000
  C   C166      1.0  0.52499  0.27580  0.27696  1.0000
  H   H193      1.0  0.55164  0.49687  0.32455  1.0000
  C   C167      1.0  0.64593  0.42373  0.32146  1.0000
  H   H194      1.0  0.41849  0.28692  0.13908  1.0000
  C   C168      1.0  0.61441  0.34791  0.27707  1.0000
  C   C169      1.0  0.44618  0.13398  0.20160  1.0000
  H   H195      1.0  0.42259  0.40973  0.30161  1.0000
  H   H196      1.0  0.61483  0.31674  0.26140  1.0000
  C   C170      1.0  0.37362  0.16260  0.17653  1.0000
  C   C171      1.0  0.43973  0.17663  0.19705  1.0000
  C   C172      1.0  0.62358  0.46837  0.37843  1.0000
  H   H197      1.0  0.38557  0.15271  0.42751  1.0000
  H   H198      1.0  0.38989  0.49462  0.33820  1.0000
  H   H199      1.0  0.58377  0.35794  0.27897  1.0000
  C   C173      1.0  0.40237  0.04797  0.00659  1.0000
  C   C174      1.0  0.64327  0.46311  0.34020  1.0000
  C   C175      1.0  0.60881  0.39470  0.37966  1.0000
  C   C176      1.0  0.42125  0.25270  0.14357  1.0000
  H   H200      1.0  0.34667  0.23631  0.13927  1.0000
  C   C177      1.0  0.58876  0.48020  0.17385  1.0000
  H   H201      1.0  0.39231  0.24885  0.24705  1.0000
  H   H202      1.0  0.45228  0.24594  0.14835  1.0000
  C   C178      1.0  0.41662  0.10567  0.19358  1.0000
  C   C179      1.0  0.61318  0.31287  0.34444  1.0000
  H   H203      1.0  0.54297  0.04097  0.41899  1.0000
  H   H204      1.0  0.47739  0.47484  0.45805  1.0000
  H   H205      1.0  0.55869  0.38488  0.20739  1.0000
  H   H206      1.0  0.36160  0.45406  0.31492  1.0000
  C   C180      1.0  0.38048  0.11993  0.18097  1.0000
  H   H207      1.0  0.52643  0.45055  0.09483  1.0000
  H   H208      1.0  0.47444  0.12293  0.21125  1.0000
  H   H209      1.0  0.46355  0.43618  0.27987  1.0000
  C   C181      1.0  0.54579  0.32641  0.46533  1.0000
  N   N10       1.0  0.39731  0.23773  0.17951  1.0000
  H   H210      1.0  0.41694  0.44306  0.21620  1.0000
  H   H211      1.0  0.39848  0.20598  0.43894  1.0000
  H   H212      1.0  0.59022  0.43883  0.42732  1.0000
  H   H213      1.0  0.46344  0.18661  0.46140  1.0000
  C   C182      1.0  0.37920  0.48205  0.30723  1.0000
  C   C183      1.0  0.40313  0.19238  0.18475  1.0000
  H   H214      1.0  0.66147  0.42154  0.29167  1.0000
  H   H215      1.0  0.63355  0.24439  0.46677  1.0000
  C   C184      1.0  0.54095  0.41451  0.14929  1.0000
  C   C185      1.0  0.38706  0.17668  0.45314  1.0000
  S   S44       1.0  0.48692  0.44869  0.01172  1.0000
  S   S45       1.0  0.54544  0.12156  0.46328  1.0000
  C   C186      1.0  0.52941  0.07081  0.47853  1.0000
  H   H216      1.0  0.42763  0.02672  0.00482  1.0000
  C   C187      1.0  0.53081  0.03696  0.45049  1.0000
  C   C188      1.0  0.67353  0.33572  0.31592  1.0000
  S   S46       1.0  0.65266  0.16803  0.31130  1.0000
  Fe  Fe25      1.0  0.43708  0.38242  0.46656  1.0000
  C   C189      1.0  0.39411  0.45185  0.23929  1.0000
  H   H217      1.0  0.43994  0.25618  0.22671  1.0000
  H   H218      1.0  0.56034  0.48912  0.04909  1.0000
  S   S47       1.0  0.37241  0.38462  0.46188  1.0000
  H   H219      1.0  0.57513  0.27085  0.44845  1.0000
  S   S48       1.0  0.47587  0.39689  0.40923  1.0000
  H   H220      1.0  0.59442  0.36992  0.39645  1.0000
  H   H221      1.0  0.62605  0.30937  0.37685  1.0000
  C   C190      1.0  0.54362  0.44994  0.12365  1.0000
  C   C191      1.0  0.49366  0.47929  0.42902  1.0000
  H   H222      1.0  0.53673  0.33285  0.43281  1.0000
  C   C192      1.0  0.40896  0.26009  0.21903  1.0000
  C   C193      1.0  0.49748  0.44645  0.40005  1.0000
  C   C194      1.0  0.43660  0.44076  0.29850  1.0000
  H   H223      1.0  0.61666  0.28215  0.32835  1.0000
  H   H224      1.0  0.35701  0.18363  0.46296  1.0000
  N   N11       1.0  0.41112  0.47184  0.27773  1.0000
  H   H225      1.0  0.46393  0.19708  0.20296  1.0000
  H   H226      1.0  0.34503  0.17138  0.16641  1.0000
  H   H227      1.0  0.60188  0.44318  0.22909  1.0000
  H   H228      1.0  0.58164  0.31823  0.34739  1.0000
  H   H229      1.0  0.57426  0.20555  0.47796  1.0000
  S   S49       1.0  0.35500  0.29565  0.06901  1.0000
  H   H230      1.0  0.62960  0.36959  0.25518  1.0000
  H   H231      1.0  0.45253  0.13456  0.44650  1.0000
  C   C195      1.0  0.60641  0.43426  0.39811  1.0000
  C   C196      1.0  0.45104  0.15696  0.47360  1.0000
  H   H232      1.0  0.65631  0.48985  0.32479  1.0000
  N   N12       1.0  0.63224  0.34680  0.32015  1.0000
  H   H233      1.0  0.41377  0.07956  0.01356  1.0000
  H   H234      1.0  0.37286  0.47243  0.22309  1.0000
  H   H235      1.0  0.37846  0.42264  0.24729  1.0000
  H   H236      1.0  0.42179  0.07257  0.19696  1.0000
  H   H237      1.0  0.35764  0.09769  0.17446  1.0000
  C   C197      1.0  0.62884  0.38821  0.34064  1.0000
  C   C198      1.0  0.35676  0.24944  0.17024  1.0000
  C   C199      1.0  0.56751  0.29097  0.47472  1.0000
  H   H238      1.0  0.35340  0.28377  0.16690  1.0000
  H   H239      1.0  0.60940  0.49752  0.06436  1.0000
  Fe  Fe26      1.0  0.63810  0.07855  0.74684  1.0000
  S   S50       1.0  0.64404  0.10747  0.81178  1.0000
  C   C200      1.0  0.35723  0.12473  0.52697  1.0000
  Fe  Fe27      1.0  0.57496  0.14047  0.71873  1.0000
  S   S51       1.0  0.57562  0.17205  0.78274  1.0000
  S   S52       1.0  0.53734  0.15762  0.66102  1.0000
  Fe  Fe28      1.0  0.64048  0.16897  0.77726  1.0000
  H   H240      1.0  0.34722  0.02322  0.55591  1.0000
  Fe  Fe29      1.0  0.57899  0.10733  0.81122  1.0000
  S   S53       1.0  0.54811  0.08469  0.87163  1.0000
  S   S54       1.0  0.63937  0.13952  0.71187  1.0000
  S   S55       1.0  0.57332  0.07604  0.74755  1.0000
  Fe  Fe30      1.0  0.37542  0.41859  0.52463  1.0000
  N   N13       1.0  0.41106  0.16236  0.48944  1.0000
  Fe  Fe31      1.0  0.43473  0.35614  0.56103  1.0000
  H   H241      1.0  0.62912  0.20983  0.57779  1.0000
  S   S56       1.0  0.47113  0.33816  0.61899  1.0000
  H   H242      1.0  0.65710  0.21788  0.50899  1.0000
  N   N14       1.0  0.41009  0.13378  0.66048  1.0000
  C   C201      1.0  0.58986  0.47050  0.82396  1.0000
  S   S57       1.0  0.44034  0.41815  0.52783  1.0000
  H   H243      1.0  0.44259  0.11431  0.71612  1.0000
  C   C202      1.0  0.52225  0.03767  0.88093  1.0000
  H   H244      1.0  0.53610  0.23534  0.70981  1.0000
  H   H245      1.0  0.39966  0.07072  0.68204  1.0000
  C   C203      1.0  0.49798  0.02570  0.53157  1.0000
  H   H246      1.0  0.50904  0.30486  0.69259  1.0000
  H   H247      1.0  0.47064  0.14592  0.49938  1.0000
  H   H248      1.0  0.47751  0.26215  0.56745  1.0000
  H   H249      1.0  0.38528  0.06442  0.90107  1.0000
  H   H250      1.0  0.50409  0.19232  0.58481  1.0000
  H   H251      1.0  0.51207  0.09057  0.54148  1.0000
  C   C204      1.0  0.52191  0.20887  0.64864  1.0000
  C   C205      1.0  0.50549  0.21693  0.60832  1.0000
  C   C206      1.0  0.49028  0.25643  0.59841  1.0000
  C   C207      1.0  0.49123  0.28832  0.62887  1.0000
  C   C208      1.0  0.50836  0.28047  0.66877  1.0000
  C   C209      1.0  0.52370  0.24105  0.67862  1.0000
  H   H252      1.0  0.52196  0.04639  0.94918  1.0000
  H   H253      1.0  0.45547  0.16396  0.69727  1.0000
  H   H254      1.0  0.40505  0.27528  0.62628  1.0000
  C   C210      1.0  0.38954  0.17107  0.64450  1.0000
  H   H255      1.0  0.55164  0.41095  0.86808  1.0000
  H   H256      1.0  0.42577  0.22458  0.51013  1.0000
  N   N15       1.0  0.60181  0.24365  0.52627  1.0000
  C   C211      1.0  0.43898  0.12082  0.62846  1.0000
  S   S58       1.0  0.43604  0.32006  0.49992  1.0000
  H   H257      1.0  0.36045  0.10589  0.69051  1.0000
  H   H258      1.0  0.37137  0.08591  0.63788  1.0000
  C   C212      1.0  0.40830  0.21032  0.64323  1.0000
  H   H259      1.0  0.51675  0.02004  0.81497  1.0000
  C   C213      1.0  0.57884  0.28145  0.51724  1.0000
  C   C214      1.0  0.35265  0.24287  0.61092  1.0000
  H   H260      1.0  0.54254  0.47678  0.95110  1.0000
  C   C215      1.0  0.54536  0.34500  0.53985  1.0000
  H   H261      1.0  0.43734  0.21420  0.65487  1.0000
  C   C216      1.0  0.51312  0.06480  0.51928  1.0000
  C   C217      1.0  0.51064  0.01143  0.84763  1.0000
  N   N16       1.0  0.60358  0.42809  0.83514  1.0000
  H   H262      1.0  0.57299  0.30454  0.58313  1.0000
  S   S59       1.0  0.34604  0.00392  0.64861  1.0000
  C   C218      1.0  0.59723  0.39687  0.80097  1.0000
  C   C219      1.0  0.40263  0.06251  0.93095  1.0000
  H   H263      1.0  0.41084  0.01921  0.52102  1.0000
  H   H264      1.0  0.41488  0.09386  0.93734  1.0000
  C   C220      1.0  0.53505  0.35354  0.49779  1.0000
  C   C221      1.0  0.43030  0.14291  0.70139  1.0000
  S   S60       1.0  0.36992  0.36044  0.56468  1.0000
  H   H265      1.0  0.46032  0.14580  0.62224  1.0000
  H   H266      1.0  0.59609  0.49339  0.84990  1.0000
  H   H267      1.0  0.45568  0.09324  0.63943  1.0000
  H   H268      1.0  0.62573  0.34582  0.83469  1.0000
  C   C222      1.0  0.57131  0.37542  0.73113  1.0000
  C   C223      1.0  0.41219  0.19556  0.52242  1.0000
  H   H269      1.0  0.42510  0.11253  0.59753  1.0000
  H   H270      1.0  0.55572  0.38285  0.70203  1.0000
  C   C224      1.0  0.61066  0.35545  0.80613  1.0000
  H   H271      1.0  0.62929  0.26511  0.58421  1.0000
  C   C225      1.0  0.34436  0.07307  0.97230  1.0000
  C   C226      1.0  0.57713  0.40597  0.76243  1.0000
  H   H272      1.0  0.42867  0.18551  0.55107  1.0000
  H   H273      1.0  0.59398  0.38476  0.88689  1.0000
  C   C227      1.0  0.38412  0.09785  0.66813  1.0000
  C   C228      1.0  0.41275  0.08457  0.50528  1.0000
  H   H274      1.0  0.41042  0.15729  0.72495  1.0000
  H   H275      1.0  0.56558  0.43640  0.75563  1.0000
  C   C229      1.0  0.57979  0.20630  0.51289  1.0000
  H   H276      1.0  0.44005  0.08030  0.48956  1.0000
  H   H277      1.0  0.55817  0.47125  0.81870  1.0000
  H   H278      1.0  0.51820  0.38098  0.49040  1.0000
  H   H279      1.0  0.65504  0.27384  0.50921  1.0000
  H   H280      1.0  0.53607  0.36577  0.56514  1.0000
  S   S61       1.0  0.66724  0.01727  0.73117  1.0000
  C   C230      1.0  0.36018  0.05107  0.54260  1.0000
  C   C231      1.0  0.56677  0.30947  0.54972  1.0000
  H   H281      1.0  0.60477  0.48272  0.79509  1.0000
  Fe  Fe32      1.0  0.37142  0.32645  0.50203  1.0000
  H   H282      1.0  0.58564  0.23519  0.59225  1.0000
  H   H283      1.0  0.58104  0.31172  0.71276  1.0000
  C   C232      1.0  0.39005  0.24559  0.62676  1.0000
  C   C233      1.0  0.51316  0.02632  0.92314  1.0000
  H   H284      1.0  0.66184  0.44108  0.81605  1.0000
  C   C234      1.0  0.64530  0.43153  0.84490  1.0000
  C   C235      1.0  0.39606  0.04892  0.52301  1.0000
  H   H285      1.0  0.42771  0.04196  0.92434  1.0000
  C   C236      1.0  0.58305  0.41484  0.87431  1.0000
  C   C237      1.0  0.61185  0.23848  0.57213  1.0000
  H   H286      1.0  0.61577  0.29397  0.77913  1.0000
  C   C238      1.0  0.60493  0.32532  0.77453  1.0000
  S   S62       1.0  0.34734  0.48262  0.52577  1.0000
  C   C239      1.0  0.36996  0.00237  0.95768  1.0000
  H   H287      1.0  0.48554  0.02168  0.56291  1.0000
  C   C240      1.0  0.58536  0.33528  0.73710  1.0000
  H   H288      1.0  0.60868  0.01654  0.88716  1.0000
  C   C241      1.0  0.35137  0.16936  0.62782  1.0000
  C   C242      1.0  0.63836  0.24508  0.50185  1.0000
  H   H289      1.0  0.58640  0.43803  0.90052  1.0000
  H   H290      1.0  0.38303  0.20506  0.53294  1.0000
  H   H291      1.0  0.59537  0.17693  0.52050  1.0000
  C   C243      1.0  0.39410  0.12387  0.50746  1.0000
  H   H292      1.0  0.60250  0.01514  0.81252  1.0000
  H   H293      1.0  0.55137  0.20480  0.52903  1.0000
  H   H294      1.0  0.65099  0.45531  0.87006  1.0000
  H   H295      1.0  0.65792  0.40207  0.85688  1.0000
  N   N17       1.0  0.37899  0.04670  0.96690  1.0000
  H   H296      1.0  0.66730  0.01426  0.83809  1.0000
  C   C244      1.0  0.34829  0.11652  0.97949  1.0000
  H   H297      1.0  0.35267  0.99896  0.92792  1.0000
  H   H298      1.0  0.37634  0.13101  0.98146  1.0000
  Fe  Fe33      1.0  0.64526  0.56423  0.25007  1.0000
  S   S63       1.0  0.65294  0.59568  0.31359  1.0000
  C   C245      1.0  0.37830  0.72685  0.12683  1.0000
  Fe  Fe34      1.0  0.57972  0.62396  0.22214  1.0000
  S   S64       1.0  0.58256  0.65794  0.28466  1.0000
  S   S65       1.0  0.53515  0.63692  0.16942  1.0000
  Fe  Fe35      1.0  0.64720  0.65543  0.27627  1.0000
  H   H299      1.0  0.51906  0.54828  0.14034  1.0000
  Fe  Fe36      1.0  0.58795  0.59456  0.31558  1.0000
  S   S66       1.0  0.55417  0.57441  0.37468  1.0000
  S   S67       1.0  0.64385  0.62352  0.21207  1.0000
  S   S68       1.0  0.58057  0.56085  0.25378  1.0000
  Fe  Fe37      1.0  0.37795  0.90868  0.04422  1.0000
  C   C246      1.0  0.43516  0.52788  0.22650  1.0000
  Fe  Fe38      1.0  0.44130  0.84212  0.05484  1.0000
  C   C247      1.0  0.51576  0.99792  0.46281  1.0000
  S   S69       1.0  0.48855  0.81732  0.09933  1.0000
  H   H300      1.0  0.48049  0.60288  0.00960  1.0000
  C   C248      1.0  0.59790  0.93637  0.40425  1.0000
  C   C249      1.0  0.58018  0.51165  0.06461  1.0000
  S   S70       1.0  0.44242  0.91016  0.03604  1.0000
  H   H301      1.0  0.58929  0.75716  0.06790  1.0000
  C   C250      1.0  0.52914  0.54063  0.10753  1.0000
  H   H302      1.0  0.56446  0.72083  0.18749  1.0000
  C   C251      1.0  0.38039  0.63996  0.12446  1.0000
  H   H303      1.0  0.45844  0.57669  0.18675  1.0000
  H   H304      1.0  0.54536  0.79015  0.15966  1.0000
  H   H305      1.0  0.58063  0.53962  0.04362  1.0000
  H   H306      1.0  0.45647  0.73350  0.08376  1.0000
  H   H307      1.0  0.35977  0.50584  0.29296  1.0000
  H   H308      1.0  0.47644  0.66394  0.11053  1.0000
  C   C252      1.0  0.63084  0.94019  0.37942  1.0000
  C   C253      1.0  0.52175  0.68741  0.15120  1.0000
  C   C254      1.0  0.49135  0.69148  0.12164  1.0000
  C   C255      1.0  0.47993  0.73096  0.10638  1.0000
  C   C256      1.0  0.49942  0.76687  0.11977  1.0000
  C   C257      1.0  0.52999  0.76269  0.14905  1.0000
  C   C258      1.0  0.54095  0.72334  0.16488  1.0000
  C   C259      1.0  0.60002  0.86148  0.39572  1.0000
  C   C260      1.0  0.48138  0.53560  0.00987  1.0000
  H   H309      1.0  0.37780  0.76059  0.12769  1.0000
  H   H310      1.0  0.58669  0.56566  0.15713  1.0000
  H   H311      1.0  0.49303  0.61152  0.24583  1.0000
  S   S71       1.0  0.34301  0.50492  0.14013  1.0000
  H   H312      1.0  0.50828  0.54309  0.44361  1.0000
  N   N18       1.0  0.56822  0.52218  0.10873  1.0000
  S   S72       1.0  0.43411  0.82098  0.98687  1.0000
  C   C261      1.0  0.43327  0.51012  0.26810  1.0000
  H   H313      1.0  0.50789  0.75314  0.02632  1.0000
  H   H314      1.0  0.67329  0.85758  0.29442  1.0000
  C   C262      1.0  0.49894  0.49972  0.99374  1.0000
  C   C263      1.0  0.45347  0.53122  0.30115  1.0000
  C   C264      1.0  0.63385  0.86436  0.37030  1.0000
  H   H315      1.0  0.56487  0.84652  0.00289  1.0000
  C   C265      1.0  0.64866  0.90486  0.36268  1.0000
  H   H316      1.0  0.52850  0.57000  0.08868  1.0000
  H   H317      1.0  0.41569  0.72199  0.18141  1.0000
  H   H318      1.0  0.63353  0.78176  0.39770  1.0000
  H   H319      1.0  0.60808  0.70999  0.01367  1.0000
  H   H320      1.0  0.62605  0.83479  0.29129  1.0000
  H   H321      1.0  0.38224  0.60644  0.12574  1.0000
  C   C266      1.0  0.53229  0.52488  0.38308  1.0000
  H   H322      1.0  0.42030  0.51457  0.19938  1.0000
  C   C267      1.0  0.47454  0.56743  0.29304  1.0000
  N   N19       1.0  0.65366  0.82753  0.35245  1.0000
  H   H323      1.0  0.60707  0.79863  0.03524  1.0000
  H   H324      1.0  0.51650  0.97222  0.44053  1.0000
  H   H325      1.0  0.55663  0.89448  0.43166  1.0000
  S   S73       1.0  0.37778  0.84286  0.06949  1.0000
  C   C268      1.0  0.58246  0.89715  0.41238  1.0000
  H   H326      1.0  0.41721  0.64525  0.17990  1.0000
  C   C269      1.0  0.51113  0.51810  0.42067  1.0000
  C   C270      1.0  0.59668  0.73043  0.98790  1.0000
  H   H327      1.0  0.48990  0.58286  0.31877  1.0000
  N   N20       1.0  0.56595  0.75847  0.00376  1.0000
  C   C271      1.0  0.63444  0.78741  0.36269  1.0000
  H   H328      1.0  0.34163  0.72376  0.07256  1.0000
  C   C272      1.0  0.45672  0.56391  0.21872  1.0000
  H   H329      1.0  0.55887  0.80020  0.05717  1.0000
  C   C273      1.0  0.47630  0.58364  0.25193  1.0000
  H   H330      1.0  0.37972  0.65327  0.01103  1.0000
  C   C274      1.0  0.53242  0.73292  0.01684  1.0000
  C   C275      1.0  0.58102  0.77975  0.04251  1.0000
  Fe  Fe39      1.0  0.37047  0.82486  0.00050  1.0000
  H   H331      1.0  0.65007  0.76045  0.34855  1.0000
  H   H332      1.0  0.35404  0.98767  0.98452  1.0000
  H   H333      1.0  0.52208  0.71200  0.99096  1.0000
  H   H334      1.0  0.50761  0.51928  0.09297  1.0000
  H   H335      1.0  0.45840  0.53271  0.03292  1.0000
  H   H336      1.0  0.59489  0.58290  0.10415  1.0000
  C   C276      1.0  0.40044  0.66185  0.15618  1.0000
  H   H337      1.0  0.66819  0.80275  0.29043  1.0000
  S   S74       1.0  0.35126  0.96648  0.07378  1.0000
  H   H338      1.0  0.37467  0.58618  0.05304  1.0000
  H   H339      1.0  0.58648  0.83214  0.40317  1.0000
  H   H340      1.0  0.60470  0.78608  0.34937  1.0000
  C   C277      1.0  0.59510  0.55470  0.12480  1.0000
  C   C278      1.0  0.34368  0.59366  0.05771  1.0000
  H   H341      1.0  0.53950  0.71233  0.04435  1.0000
  C   C279      1.0  0.39949  0.70515  0.15727  1.0000
  H   H342      1.0  0.58432  0.96399  0.41709  1.0000
  H   H343      1.0  0.62532  0.54326  0.12615  1.0000
  C   C280      1.0  0.49397  0.57537  0.99657  1.0000
  H   H344      1.0  0.64256  0.97083  0.37295  1.0000
  C   C281      1.0  0.35881  0.66123  0.09254  1.0000
  C   C282      1.0  0.65536  0.83097  0.30523  1.0000
  C   C283      1.0  0.35804  0.70537  0.09507  1.0000
  H   H345      1.0  0.45334  0.51976  0.33361  1.0000
  H   H346      1.0  0.60798  0.50419  0.18511  1.0000
  C   C284      1.0  0.34807  0.65566  0.01600  1.0000
  H   H347      1.0  0.62080  0.49919  0.39229  1.0000
  Fe  Fe40      1.0  0.64837  0.60246  0.84521  1.0000
  S   S75       1.0  0.64857  0.63362  0.90957  1.0000
  C   C285      1.0  0.37360  0.78987  0.85804  1.0000
  Fe  Fe41      1.0  0.59490  0.66917  0.80623  1.0000
  S   S76       1.0  0.59162  0.70336  0.86813  1.0000
  S   S77       1.0  0.56098  0.69108  0.74777  1.0000
  Fe  Fe42      1.0  0.65554  0.69279  0.87198  1.0000
  S   S78       1.0  0.53955  0.63045  0.95130  1.0000
  Fe  Fe43      1.0  0.58486  0.64055  0.89939  1.0000
  C   C286      1.0  0.52885  0.79797  0.89684  1.0000
  S   S79       1.0  0.65962  0.66138  0.80801  1.0000
  S   S80       1.0  0.58388  0.60672  0.83691  1.0000
  Fe  Fe44      1.0  0.37866  0.94512  0.63214  1.0000
  C   C287      1.0  0.64908  0.85445  0.88667  1.0000
  Fe  Fe45      1.0  0.44253  0.88516  0.66266  1.0000
  S   S81       1.0  0.44518  0.85454  0.59847  1.0000
  S   S82       1.0  0.48044  0.86775  0.71989  1.0000
  Fe  Fe46      1.0  0.44159  0.91965  0.57095  1.0000
  H   H348      1.0  0.39749  0.60284  0.56650  1.0000
  Fe  Fe47      1.0  0.38005  0.85549  0.60055  1.0000
  S   S83       1.0  0.44328  0.95006  0.63519  1.0000
  S   S84       1.0  0.37795  0.88384  0.66637  1.0000
  H   H349      1.0  0.58616  0.70899  0.96259  1.0000
  H   H350      1.0  0.55552  0.76529  0.80177  1.0000
  C   C288      1.0  0.61094  0.98194  0.88871  1.0000
  H   H351      1.0  0.62920  0.97494  0.91693  1.0000
  H   H352      1.0  0.52365  0.83380  0.78988  1.0000
  C   C289      1.0  0.54418  0.85762  0.94038  1.0000
  H   H353      1.0  0.48326  0.79217  0.66745  1.0000
  H   H354      1.0  0.53483  0.93989  0.70708  1.0000
  H   H355      1.0  0.51519  0.72405  0.67931  1.0000
  H   H356      1.0  0.59115  0.90473  0.79452  1.0000
  C   C290      1.0  0.53784  0.74000  0.74135  1.0000
  C   C291      1.0  0.51703  0.74791  0.70363  1.0000
  C   C292      1.0  0.49888  0.78657  0.69682  1.0000
  C   C293      1.0  0.50149  0.81794  0.72765  1.0000
  C   C294      1.0  0.52170  0.80983  0.76573  1.0000
  C   C295      1.0  0.53979  0.77110  0.77257  1.0000
  C   C296      1.0  0.55554  0.83146  0.97381  1.0000
  H   H357      1.0  0.56414  0.54671  0.92718  1.0000
  C   C297      1.0  0.46160  0.70558  0.89803  1.0000
  S   S85       1.0  0.45687  0.91510  0.90785  1.0000
  C   C298      1.0  0.48181  0.96268  0.89873  1.0000
  H   H358      1.0  0.39421  0.63145  0.51811  1.0000
  H   H359      1.0  0.63107  0.79653  0.85849  1.0000
  H   H360      1.0  0.46057  0.83330  0.83577  1.0000
  H   H361      1.0  0.63826  0.93796  0.70517  1.0000
  H   H362      1.0  0.66382  0.91536  0.90765  1.0000
  C   C299      1.0  0.60754  0.89243  0.82097  1.0000
  C   C300      1.0  0.49314  0.98904  0.93207  1.0000
  C   C301      1.0  0.60075  0.95904  0.62946  1.0000
  H   H363      1.0  0.66563  0.83930  0.91164  1.0000
  C   C302      1.0  0.66652  0.97985  0.84250  1.0000
  C   C303      1.0  0.37692  0.61306  0.54131  1.0000
  H   H364      1.0  0.57252  0.97003  0.81542  1.0000
  H   H365      1.0  0.41575  0.85852  0.84667  1.0000
  H   H366      1.0  0.37894  0.66274  0.61081  1.0000
  C   C304      1.0  0.53963  0.77161  0.93022  1.0000
  N   N21       1.0  0.41157  0.79229  0.83631  1.0000
  N   N22       1.0  0.62666  0.96426  0.84860  1.0000
  H   H367      1.0  0.35419  0.81576  0.84843  1.0000
  H   H368      1.0  0.51967  0.90145  0.64106  1.0000
  C   C305      1.0  0.55489  0.95878  0.68718  1.0000
  H   H369      1.0  0.38023  0.69291  0.56239  1.0000
  H   H370      1.0  0.46459  0.69507  0.93078  1.0000
  C   C306      1.0  0.48027  0.68396  0.86564  1.0000
  H   H371      1.0  0.48207  0.95402  0.83044  1.0000
  H   H372      1.0  0.37594  0.79243  0.89338  1.0000
  C   C307      1.0  0.54106  0.54389  0.95013  1.0000
  C   C308      1.0  0.43242  0.82942  0.85218  1.0000
  H   H373      1.0  0.53657  0.73853  0.92526  1.0000
  H   H374      1.0  0.38502  0.82570  0.78391  1.0000
  H   H375      1.0  0.38982  0.77070  0.77553  1.0000
  H   H376      1.0  0.51837  0.78491  0.86708  1.0000
  H   H377      1.0  0.55659  0.84667  0.65612  1.0000
  C   C309      1.0  0.49909  0.99194  0.50326  1.0000
  H   H378      1.0  0.48670  0.98065  0.96472  1.0000
  C   C310      1.0  0.47697  0.69739  0.82357  1.0000
  H   H379      1.0  0.59262  0.79246  0.69171  1.0000
  H   H380      1.0  0.43832  0.82766  0.88705  1.0000
  H   H381      1.0  0.58150  0.96965  0.89515  1.0000
  C   C311      1.0  0.64786  0.89787  0.88401  1.0000
  C   C312      1.0  0.62698  0.91826  0.85108  1.0000
  C   C313      1.0  0.43483  0.75479  0.84571  1.0000
  C   C314      1.0  0.43949  0.74069  0.88843  1.0000
  C   C315      1.0  0.45481  0.73234  0.81352  1.0000
  H   H382      1.0  0.43090  0.80529  0.77200  1.0000
  H   H383      1.0  0.65106  0.80892  0.73361  1.0000
  S   S86       1.0  0.48120  0.94147  0.51679  1.0000
  C   C316      1.0  0.60257  0.82443  0.69391  1.0000
  H   H384      1.0  0.35866  0.76005  0.85058  1.0000
  S   S87       1.0  0.37657  0.91734  0.56634  1.0000
  H   H385      1.0  0.42628  0.75684  0.91485  1.0000
  H   H386      1.0  0.45414  0.74123  0.78028  1.0000
  C   C317      1.0  0.62768  0.90663  0.70089  1.0000
  H   H387      1.0  0.36611  0.58493  0.52408  1.0000
  C   C318      1.0  0.40401  0.79844  0.78997  1.0000
  C   C319      1.0  0.58218  0.85610  0.67329  1.0000
  C   C320      1.0  0.49083  0.97406  0.85653  1.0000
  H   H388      1.0  0.49754  0.65684  0.87314  1.0000
  H   H389      1.0  0.52249  0.86146  0.87619  1.0000
  C   C321      1.0  0.63546  0.83365  0.71764  1.0000
  H   H390      1.0  0.52927  0.94427  0.60679  1.0000
  N   N23       1.0  0.57362  0.93268  0.65424  1.0000
  C   C322      1.0  0.52390  0.57978  0.96663  1.0000
  C   C323      1.0  0.64789  0.87470  0.72131  1.0000
  H   H391      1.0  0.49194  0.68068  0.79850  1.0000
  C   C324      1.0  0.62975  0.83017  0.85666  1.0000
  C   C325      1.0  0.54328  0.91804  0.62412  1.0000
  C   C326      1.0  0.60925  0.84911  0.82386  1.0000
  C   C327      1.0  0.53125  0.84092  0.90187  1.0000
  H   H392      1.0  0.61453  0.97058  0.78142  1.0000
  C   C328      1.0  0.60293  0.98049  0.81286  1.0000
  H   H393      1.0  0.55532  0.89702  0.59927  1.0000
  C   C329      1.0  0.59454  0.89828  0.67556  1.0000
  S   S88       1.0  0.34600  0.79443  0.59770  1.0000
  S   S89       1.0  0.36602  0.89055  0.97625  1.0000
  H   H394      1.0  0.57631  0.97356  0.70894  1.0000
  H   H395      1.0  0.35508  0.55661  0.59276  1.0000
  C   C330      1.0  0.36143  0.67339  0.58310  1.0000
  H   H396      1.0  0.59509  0.83000  0.80009  1.0000
  C   C331      1.0  0.52868  0.50423  0.96367  1.0000
  H   H397      1.0  0.67329  0.88181  0.74023  1.0000
  H   H398      1.0  0.61792  0.93986  0.60687  1.0000
  Fe  Fe48      1.0  0.43049  0.88902  0.96924  1.0000
  H   H399      1.0  0.62123  0.97658  0.65016  1.0000
  H   H400      1.0  0.62128  0.74842  0.97442  1.0000
  H   H401      1.0  0.53784  0.98441  0.67255  1.0000
  H   H402      1.0  0.58537  0.98313  0.61040  1.0000
  N   N24       1.0  0.34466  0.63769  0.55943  1.0000
  H   H403      1.0  0.54478  0.89111  0.94451  1.0000
  H   H404      1.0  0.39656  0.98348  0.95325  1.0000
  C   C332      1.0  0.55402  0.78743  0.96944  1.0000
  Fe  Fe49      1.0  0.88722  0.42790  0.25989  1.0000
  S   S90       1.0  0.87834  0.40445  0.32661  1.0000
  H   H405      1.0  0.92778  0.29475  0.11866  1.0000
  Fe  Fe50      1.0  0.95331  0.36641  0.24170  1.0000
  S   S91       1.0  0.94973  0.33983  0.30801  1.0000
  H   H406      1.0  0.00096  0.11668  0.19228  1.0000
  Fe  Fe51      1.0  0.88524  0.34073  0.29756  1.0000
  S   S92       1.0  0.85031  0.28095  0.30604  1.0000
  Fe  Fe52      1.0  0.94327  0.40628  0.33119  1.0000
  S   S93       1.0  0.97135  0.43394  0.39144  1.0000
  S   S94       1.0  0.88946  0.36446  0.22989  1.0000
  S   S95       1.0  0.95165  0.43265  0.26590  1.0000
  C   C333      1.0  0.89287  0.09976  0.35157  1.0000
  H   H407      1.0  0.74732  0.17394  0.41207  1.0000
  C   C334      1.0  0.80694  0.49045  0.23771  1.0000
  S   S96       1.0  0.85764  0.48590  0.23510  1.0000
  C   C335      1.0  0.80417  0.15825  0.38970  1.0000
  H   H408      1.0  0.96597  0.33016  0.10374  1.0000
  H   H409      1.0  0.89488  0.14936  0.42188  1.0000
  H   H410      1.0  0.84879  0.18997  0.32461  1.0000
  H   H411      1.0  0.88993  0.16547  0.30299  1.0000
  C   C336      1.0  0.89082  0.16428  0.39011  1.0000
  C   C337      1.0  0.94532  0.27854  0.98729  1.0000
  C   C338      1.0  0.86241  0.15906  0.31993  1.0000
  S   S97       1.0  0.68880  0.25005  0.39708  1.0000
  C   C339      1.0  0.83107  0.12634  0.38030  1.0000
  C   C340      1.0  0.81977  0.08485  0.39001  1.0000
  C   C341      1.0  0.73262  0.26002  0.36980  1.0000
  C   C342      1.0  0.75529  0.29455  0.38142  1.0000
  C   C343      1.0  0.79063  0.30267  0.36085  1.0000
  C   C344      1.0  0.80379  0.27596  0.32877  1.0000
  C   C345      1.0  0.78074  0.24190  0.31672  1.0000
  C   C346      1.0  0.74534  0.23404  0.33696  1.0000
  H   H412      1.0  0.74578  0.31487  0.40681  1.0000
  H   H413      1.0  0.80823  0.32879  0.37072  1.0000
  H   H414      1.0  0.79046  0.22116  0.29179  1.0000
  H   H415      1.0  0.72837  0.20733  0.32761  1.0000
  C   C347      1.0  0.94797  0.28448  0.03219  1.0000
  C   C348      1.0  0.74930  0.05911  0.30825  1.0000
  H   H416      1.0  0.97482  0.25727  0.08945  1.0000
  H   H417      1.0  0.87791  0.27555  0.06546  1.0000
  C   C349      1.0  0.78344  0.45584  0.24511  1.0000
  C   C350      1.0  0.74310  0.46017  0.24492  1.0000
  H   H418      1.0  0.73924  0.08962  0.29899  1.0000
  H   H419      1.0  0.91649  0.38391  0.04940  1.0000
  H   H420      1.0  0.79629  0.42556  0.24984  1.0000
  H   H421      1.0  0.72512  0.43305  0.24936  1.0000
  H   H422      1.0  0.91975  0.35898  0.99916  1.0000
  C   C351      1.0  0.75730  0.10805  0.41444  1.0000
  S   S98       1.0  0.67498  0.04351  0.33773  1.0000
  C   C352      1.0  0.97625  0.02218  0.15161  1.0000
  C   C353      1.0  0.78749  0.04691  0.29942  1.0000
  C   C354      1.0  0.99388  0.26333  0.19030  1.0000
  H   H423      1.0  0.97223  0.06719  0.43586  1.0000
  C   C355      1.0  0.00509  0.49391  0.44210  1.0000
  C   C356      1.0  0.97149  0.25601  0.05518  1.0000
  H   H424      1.0  0.95132  0.09641  0.24494  1.0000
  H   H425      1.0  0.99181  0.19619  0.18939  1.0000
  H   H426      1.0  0.72876  0.10080  0.42621  1.0000
  N   N25       1.0  0.86871  0.13679  0.36084  1.0000
  H   H427      1.0  0.99248  0.44457  0.16877  1.0000
  H   H428      1.0  0.87625  0.19465  0.39537  1.0000
  H   H429      1.0  0.96240  0.36609  0.03083  1.0000
  C   C357      1.0  0.78338  0.07611  0.40681  1.0000
  H   H430      1.0  0.81084  0.19058  0.38367  1.0000
  C   C358      1.0  0.72403  0.03137  0.32824  1.0000
  H   H431      1.0  0.86524  0.32977  0.06677  1.0000
  H   H432      1.0  0.91985  0.17182  0.37716  1.0000
  N   N26       1.0  0.92507  0.31732  0.05348  1.0000
  H   H433      1.0  0.92801  0.47491  0.16898  1.0000
  H   H434      1.0  0.92083  0.10854  0.33677  1.0000
  C   C359      1.0  0.99105  0.22390  0.03437  1.0000
  H   H435      1.0  0.91765  0.03044  0.23911  1.0000
  C   C360      1.0  0.98990  0.47741  0.17572  1.0000
  C   C361      1.0  0.93125  0.35811  0.03230  1.0000
  H   H436      1.0  0.83789  0.05830  0.38370  1.0000
  H   H437      1.0  0.80666  0.06835  0.28350  1.0000
  C   C362      1.0  0.98536  0.03985  0.44967  1.0000
  H   H438      1.0  0.87818  0.07817  0.32884  1.0000
  C   C363      1.0  0.76776  0.14909  0.40623  1.0000
  C   C364      1.0  0.93487  0.32283  0.09940  1.0000
  S   S99       1.0  0.99693  0.35012  0.18931  1.0000
  C   C365      1.0  0.95287  0.49446  0.17545  1.0000
  C   C366      1.0  0.88368  0.30635  0.05047  1.0000
  C   C367      1.0  0.93892  0.03738  0.21499  1.0000
  C   C368      1.0  0.98604  0.08710  0.18926  1.0000
  H   H439      1.0  0.84341  0.14078  0.29814  1.0000
  H   H440      1.0  0.99606  0.47438  0.46839  1.0000
  H   H441      1.0  0.87359  0.30440  0.01672  1.0000
  H   H442      1.0  0.97115  0.26629  0.21366  1.0000
  H   H443      1.0  0.90006  0.08229  0.38122  1.0000
  H   H444      1.0  0.91855  0.34882  0.11434  1.0000
  H   H445      1.0  0.77478  0.04412  0.41243  1.0000
  C   C369      1.0  0.80091  0.00726  0.31118  1.0000
  C   C370      1.0  0.99508  0.06050  0.15573  1.0000
  C   C371      1.0  0.00446  0.47270  0.99547  1.0000
  C   C372      1.0  0.95808  0.07559  0.21882  1.0000
  C   C373      1.0  0.99649  0.48161  0.39997  1.0000
  C   C374      1.0  0.97297  0.99997  0.43651  1.0000
  C   C375      1.0  0.94745  0.00944  0.18102  1.0000
  C   C376      1.0  0.98804  0.21915  0.99028  1.0000
  H   H446      1.0  0.67744  0.30369  0.30297  1.0000
  H   H447      1.0  0.68825  0.33674  0.34755  1.0000
  H   H448      1.0  0.00649  0.44867  0.01949  1.0000
  H   H449      1.0  0.68940  0.35704  0.29428  1.0000
  C   C377      1.0  0.00566  0.22353  0.17643  1.0000
  H   H450      1.0  0.98458  0.00256  0.12520  1.0000
  H   H451      1.0  0.86486  0.48905  0.36507  1.0000
  H   H452      1.0  0.00228  0.49814  0.33376  1.0000
  Fe  Fe53      1.0  0.87349  0.42952  0.82412  1.0000
  S   S100      1.0  0.86774  0.40511  0.89103  1.0000
  C   C378      1.0  0.95283  0.01048  0.56932  1.0000
  Fe  Fe54      1.0  0.92798  0.35853  0.79715  1.0000
  S   S101      1.0  0.92679  0.33038  0.86267  1.0000
  S   S102      1.0  0.95874  0.33305  0.73811  1.0000
  Fe  Fe55      1.0  0.86284  0.34209  0.85966  1.0000
  S   S103      1.0  0.82466  0.28880  0.88204  1.0000
  Fe  Fe56      1.0  0.93187  0.39617  0.88784  1.0000
  S   S104      1.0  0.96937  0.41253  0.94577  1.0000
  S   S105      1.0  0.86366  0.36720  0.79278  1.0000
  S   S106      1.0  0.93809  0.42355  0.82239  1.0000
  H   H453      1.0  0.98330  0.29379  0.66098  1.0000
  H   H454      1.0  0.92714  0.20141  0.70887  1.0000
  H   H455      1.0  0.92642  0.07215  0.73902  1.0000
  C   C379      1.0  0.96527  0.24650  0.96678  1.0000
  H   H456      1.0  0.96238  0.24224  0.93254  1.0000
  H   H457      1.0  0.84022  0.14960  0.79354  1.0000
  S   S107      1.0  0.84950  0.49246  0.80428  1.0000
  C   C380      1.0  0.98272  0.03833  0.63324  1.0000
  C   C381      1.0  0.98029  0.28381  0.72894  1.0000
  H   H458      1.0  0.80827  0.20253  0.72538  1.0000
  H   H459      1.0  0.86941  0.08136  0.78460  1.0000
  C   C382      1.0  0.98676  0.46376  0.95601  1.0000
  H   H460      1.0  0.97878  0.07134  0.57371  1.0000
  C   C383      1.0  0.77698  0.47703  0.83666  1.0000
  H   H461      1.0  0.78762  0.44650  0.84505  1.0000
  C   C384      1.0  0.71695  0.24450  0.80830  1.0000
  C   C385      1.0  0.73404  0.28312  0.79889  1.0000
  C   C386      1.0  0.76725  0.29677  0.82078  1.0000
  C   C387      1.0  0.78348  0.27215  0.85287  1.0000
  C   C388      1.0  0.76652  0.23344  0.86225  1.0000
  C   C389      1.0  0.73358  0.21949  0.83986  1.0000
  H   H462      1.0  0.72133  0.30276  0.77464  1.0000
  H   H463      1.0  0.77981  0.32671  0.81338  1.0000
  H   H464      1.0  0.77876  0.21422  0.88713  1.0000
  H   H465      1.0  0.72063  0.18981  0.84759  1.0000
  C   C390      1.0  0.98916  0.01903  0.87063  1.0000
  C   C391      1.0  0.74122  0.04710  0.74406  1.0000
  C   C392      1.0  0.78135  0.04225  0.74800  1.0000
  C   C393      1.0  0.98844  0.25592  0.76199  1.0000
  C   C394      1.0  0.73855  0.48773  0.84529  1.0000
  H   H466      1.0  0.96526  0.01559  0.84866  1.0000
  H   H467      1.0  0.72869  0.07788  0.74430  1.0000
  H   H468      1.0  0.79948  0.06947  0.75119  1.0000
  C   C395      1.0  0.97195  0.04278  0.59062  1.0000
  C   C396      1.0  0.00151  0.05910  0.88345  1.0000
  N   N27       1.0  0.86091  0.22377  0.75511  1.0000
  C   C397      1.0  0.87264  0.24130  0.79686  1.0000
  C   C398      1.0  0.87237  0.25377  0.72131  1.0000
  C   C399      1.0  0.81816  0.22047  0.75380  1.0000
  C   C400      1.0  0.87909  0.18240  0.75010  1.0000
  C   C401      1.0  0.91294  0.17626  0.72539  1.0000
  C   C402      1.0  0.86460  0.14723  0.77236  1.0000
  C   C403      1.0  0.92982  0.13695  0.72160  1.0000
  C   C404      1.0  0.88148  0.10802  0.76803  1.0000
  C   C405      1.0  0.91379  0.10279  0.74241  1.0000
  H   H469      1.0  0.86031  0.27282  0.80178  1.0000
  H   H470      1.0  0.86266  0.22169  0.82397  1.0000
  H   H471      1.0  0.90453  0.24413  0.79939  1.0000
  H   H472      1.0  0.90314  0.26289  0.72397  1.0000
  H   H473      1.0  0.85636  0.28367  0.72385  1.0000
  H   H474      1.0  0.86698  0.24083  0.68888  1.0000
  H   H475      1.0  0.80599  0.20553  0.78277  1.0000
  H   H476      1.0  0.80409  0.25154  0.75264  1.0000
  H   H477      1.0  0.95558  0.13308  0.70248  1.0000
  H   H478      1.0  0.92702  0.29797  0.96772  1.0000
  C   C406      1.0  0.71759  0.01224  0.73857  1.0000
  C   C407      1.0  0.99001  0.27272  0.68688  1.0000
  H   H479      1.0  0.98702  0.08628  0.87102  1.0000
  H   H480      1.0  0.99696  0.06371  0.64977  1.0000
  H   H481      1.0  0.98099  0.26389  0.79449  1.0000
  H   H482      1.0  0.94595  0.01586  0.53616  1.0000
  H   H483      1.0  0.72016  0.46532  0.86077  1.0000
  H   H484      1.0  0.97090  0.48893  0.89485  1.0000
  C   C408      1.0  0.98408  0.49538  0.92549  1.0000
  C   C409      1.0  0.97579  0.00099  0.65429  1.0000
  C   C410      1.0  0.79816  0.00253  0.74752  1.0000
  H   H485      1.0  0.00292  0.19378  0.97442  1.0000
  C   C411      1.0  0.00706  0.21792  0.75306  1.0000
  S   S108      1.0  0.67444  0.22995  0.78031  1.0000
  Fe  Fe57      1.0  0.87380  0.93062  0.32119  1.0000
  S   S109      1.0  0.86741  0.90385  0.38716  1.0000
  H   H486      1.0  0.97511  0.59471  0.19905  1.0000
  Fe  Fe58      1.0  0.93193  0.86297  0.29385  1.0000
  S   S110      1.0  0.92987  0.83276  0.35824  1.0000
  S   S111      1.0  0.97182  0.84490  0.23893  1.0000
  Fe  Fe59      1.0  0.86559  0.84164  0.35314  1.0000
  S   S112      1.0  0.82821  0.78681  0.37424  1.0000
  Fe  Fe60      1.0  0.93201  0.89769  0.38593  1.0000
  S   S113      1.0  0.97254  0.91338  0.44163  1.0000
  S   S114      1.0  0.86752  0.86906  0.28699  1.0000
  S   S115      1.0  0.93860  0.92729  0.32180  1.0000
  C   C412      1.0  0.85694  0.52077  0.35390  1.0000
  S   S116      1.0  0.84929  0.99326  0.30027  1.0000
  H   H487      1.0  0.97160  0.93559  0.21090  1.0000
  C   C413      1.0  0.91908  0.53367  0.32224  1.0000
  H   H488      1.0  0.93048  0.96744  0.10663  1.0000
  H   H489      1.0  0.83380  0.53271  0.37512  1.0000
  H   H490      1.0  0.88257  0.58155  0.98257  1.0000
  C   C414      1.0  0.77577  0.97980  0.33164  1.0000
  H   H491      1.0  0.92907  0.50176  0.33050  1.0000
  C   C415      1.0  0.97561  0.75856  0.24793  1.0000
  H   H492      1.0  0.84412  0.51657  0.32160  1.0000
  H   H493      1.0  0.91803  0.51468  0.40451  1.0000
  H   H494      1.0  0.89641  0.62501  0.39940  1.0000
  H   H495      1.0  0.95542  0.76183  0.27394  1.0000
  C   C416      1.0  0.97921  0.56172  0.19312  1.0000
  C   C417      1.0  0.72504  0.73166  0.30031  1.0000
  C   C418      1.0  0.74459  0.76682  0.28457  1.0000
  C   C419      1.0  0.77673  0.78346  0.30626  1.0000
  C   C420      1.0  0.78954  0.76529  0.34424  1.0000
  C   C421      1.0  0.77052  0.72960  0.35955  1.0000
  C   C422      1.0  0.73852  0.71272  0.33763  1.0000
  H   H496      1.0  0.73446  0.78168  0.25568  1.0000
  H   H497      1.0  0.79114  0.81078  0.29399  1.0000
  H   H498      1.0  0.78030  0.71522  0.38884  1.0000
  H   H499      1.0  0.72366  0.68583  0.35027  1.0000
  C   C423      1.0  0.90902  0.54705  0.39651  1.0000
  C   C424      1.0  0.74955  0.53407  0.23252  1.0000
  C   C425      1.0  0.78983  0.52952  0.23137  1.0000
  H   H500      1.0  0.69355  0.82617  0.40521  1.0000
  H   H501      1.0  0.84071  0.70202  0.30763  1.0000
  H   H502      1.0  0.88884  0.55695  0.42209  1.0000
  H   H503      1.0  0.73668  0.56426  0.22727  1.0000
  H   H504      1.0  0.80767  0.55637  0.22497  1.0000
  H   H505      1.0  0.78571  0.94923  0.34087  1.0000
  H   H506      1.0  0.71824  0.97013  0.35530  1.0000
  N   N28       1.0  0.89065  0.54924  0.35364  1.0000
  C   C426      1.0  0.86937  0.66619  0.35615  1.0000
  C   C427      1.0  0.98930  0.71881  0.23624  1.0000
  C   C428      1.0  0.87799  0.59160  0.34146  1.0000
  C   C429      1.0  0.85956  0.59834  0.30154  1.0000
  C   C430      1.0  0.84629  0.63769  0.28960  1.0000
  C   C431      1.0  0.98792  0.79392  0.22572  1.0000
  H   H507      1.0  0.91869  0.54941  0.18430  1.0000
  C   C432      1.0  0.88274  0.62690  0.36849  1.0000
  H   H508      1.0  0.71179  0.85182  0.35848  1.0000
  H   H509      1.0  0.90703  0.53153  0.28944  1.0000
  H   H510      1.0  0.97931  0.93662  0.15431  1.0000
  H   H511      1.0  0.70845  0.79669  0.35971  1.0000
  H   H512      1.0  0.85496  0.57300  0.27937  1.0000
  C   C433      1.0  0.90932  0.96637  0.13314  1.0000
  H   H513      1.0  0.83182  0.64193  0.25918  1.0000
  H   H514      1.0  0.94474  0.55440  0.32073  1.0000
  N   N29       1.0  0.92798  0.96867  0.17577  1.0000
  H   H515      1.0  0.88885  0.99263  0.12855  1.0000
  C   C434      1.0  0.85119  0.67154  0.31685  1.0000
  C   C435      1.0  0.89770  0.96059  0.20816  1.0000
  H   H516      1.0  0.87269  0.69285  0.37720  1.0000
  C   C436      1.0  0.73750  0.99172  0.33978  1.0000
  C   C437      1.0  0.98959  0.96430  0.45426  1.0000
  H   H517      1.0  0.93563  0.56641  0.39816  1.0000
  H   H518      1.0  0.94315  0.90352  0.17616  1.0000
  H   H519      1.0  0.90988  0.96017  0.24101  1.0000
  H   H520      1.0  0.88370  0.92969  0.20356  1.0000
  H   H521      1.0  0.97937  0.69169  0.25341  1.0000
  C   C438      1.0  0.95676  0.93483  0.17928  1.0000
  C   C439      1.0  0.69348  0.82562  0.36968  1.0000
  S   S117      1.0  0.68142  0.71629  0.27507  1.0000
  C   C440      1.0  0.94751  0.53647  0.18435  1.0000
  H   H522      1.0  0.89287  0.93683  0.12895  1.0000
  H   H523      1.0  0.87439  0.98431  0.20695  1.0000
  C   C441      1.0  0.72601  0.49927  0.23866  1.0000
  H   H524      1.0  0.95030  0.99682  0.41296  1.0000
  S   S118      1.0  0.67527  0.50302  0.23609  1.0000
  H   H525      1.0  0.67418  0.90958  0.34361  1.0000
  Fe  Fe61      1.0  0.88064  0.93835  0.76569  1.0000
  S   S119      1.0  0.88408  0.91192  0.83226  1.0000
  H   H526      1.0  0.93615  0.87884  0.54091  1.0000
  Fe  Fe62      1.0  0.94114  0.87695  0.73050  1.0000
  S   S120      1.0  0.94905  0.84771  0.79457  1.0000
  S   S121      1.0  0.97121  0.85693  0.66904  1.0000
  Fe  Fe63      1.0  0.88420  0.84953  0.79884  1.0000
  S   S122      1.0  0.85510  0.78683  0.81003  1.0000
  Fe  Fe64      1.0  0.94836  0.91305  0.82150  1.0000
  C   C442      1.0  0.95028  0.90508  0.55817  1.0000
  S   S123      1.0  0.87646  0.87625  0.73295  1.0000
  S   S124      1.0  0.94489  0.94216  0.75662  1.0000
  H   H527      1.0  0.95438  0.71102  0.67307  1.0000
  H   H528      1.0  0.87395  0.94544  0.61128  1.0000
  H   H529      1.0  0.80571  0.56767  0.79105  1.0000
  C   C443      1.0  0.95177  0.64531  0.72800  1.0000
  C   C444      1.0  0.86810  0.52254  0.92157  1.0000
  N   N30       1.0  0.90853  0.70758  0.71979  1.0000
  C   C445      1.0  0.88338  0.63542  0.73950  1.0000
  C   C446      1.0  0.92716  0.57725  0.74676  1.0000
  C   C447      1.0  0.84254  0.63712  0.91002  1.0000
  H   H530      1.0  0.90519  0.90293  0.62516  1.0000
  H   H531      1.0  0.85382  0.64562  0.74119  1.0000
  H   H532      1.0  0.71633  0.94535  0.73376  1.0000
  H   H533      1.0  0.81200  0.69543  0.90537  1.0000
  H   H534      1.0  0.96439  0.89204  0.58700  1.0000
  H   H535      1.0  0.92582  0.76685  0.74619  1.0000
  C   C448      1.0  0.73576  0.75982  0.86744  1.0000
  C   C449      1.0  0.75378  0.79837  0.87498  1.0000
  C   C450      1.0  0.78964  0.80789  0.85627  1.0000
  C   C451      1.0  0.80820  0.77846  0.83069  1.0000
  C   C452      1.0  0.79001  0.74003  0.82304  1.0000
  C   C453      1.0  0.75373  0.73102  0.84068  1.0000
  H   H536      1.0  0.74019  0.82082  0.89574  1.0000
  H   H537      1.0  0.80346  0.83743  0.86274  1.0000
  H   H538      1.0  0.80409  0.71682  0.80371  1.0000
  H   H539      1.0  0.74020  0.70130  0.83449  1.0000
  C   C454      1.0  0.72398  0.52698  0.83400  1.0000
  C   C455      1.0  0.86760  0.72080  0.72130  1.0000
  H   H540      1.0  0.87006  0.65285  0.90950  1.0000
  H   H541      1.0  0.91944  0.75107  0.66864  1.0000
  C   C456      1.0  0.77442  0.96756  0.74308  1.0000
  N   N31       1.0  0.87562  0.56772  0.91570  1.0000
  H   H542      1.0  0.73777  0.58629  0.80613  1.0000
  H   H543      1.0  0.98693  0.59061  0.73552  1.0000
  H   H544      1.0  0.78705  0.93684  0.74247  1.0000
  H   H545      1.0  0.97670  0.66408  0.72027  1.0000
  H   H546      1.0  0.85510  0.71567  0.75351  1.0000
  H   H547      1.0  0.88049  0.56402  0.84745  1.0000
  H   H548      1.0  0.84974  0.70414  0.69717  1.0000
  H   H549      1.0  0.95245  0.94017  0.65098  1.0000
  H   H550      1.0  0.90795  0.69886  0.65166  1.0000
  C   C457      1.0  0.95674  0.96852  0.63328  1.0000
  H   H551      1.0  0.92427  0.55278  0.87580  1.0000
  C   C458      1.0  0.78711  0.54519  0.80619  1.0000
  C   C459      1.0  0.88999  0.59329  0.74803  1.0000
  H   H552      1.0  0.92347  0.95998  0.50385  1.0000
  C   C460      1.0  0.91423  0.66280  0.72902  1.0000
  C   C461      1.0  0.95799  0.60321  0.73677  1.0000
  C   C462      1.0  0.90269  0.95129  0.52925  1.0000
  N   N32       1.0  0.92250  0.93822  0.56919  1.0000
  C   C463      1.0  0.89264  0.92050  0.59792  1.0000
  C   C464      1.0  0.77312  0.64349  0.90753  1.0000
  C   C465      1.0  0.89951  0.58177  0.95244  1.0000
  C   C466      1.0  0.84010  0.59308  0.91287  1.0000
  C   C467      1.0  0.92994  0.73289  0.75164  1.0000
  C   C468      1.0  0.92318  0.71750  0.67650  1.0000
  H   H553      1.0  0.91975  0.72628  0.78466  1.0000
  C   C469      1.0  0.00661  0.78368  0.69485  1.0000
  C   C470      1.0  0.80251  0.57534  0.91203  1.0000
  H   H554      1.0  0.74755  0.66274  0.90560  1.0000
  C   C471      1.0  0.00667  0.79793  0.61914  1.0000
  C   C472      1.0  0.80949  0.66182  0.90753  1.0000
  H   H555      1.0  0.97345  0.91716  0.53712  1.0000
  H   H556      1.0  0.90804  0.60530  0.87111  1.0000
  H   H557      1.0  0.79756  0.54218  0.91259  1.0000
  H   H558      1.0  0.98516  0.99709  0.68710  1.0000
  H   H559      1.0  0.88532  0.92559  0.51500  1.0000
  C   C473      1.0  0.73433  0.97247  0.73815  1.0000
  H   H560      1.0  0.86440  0.75476  0.71503  1.0000
  C   C474      1.0  0.76966  0.60038  0.90957  1.0000
  H   H561      1.0  0.74126  0.58620  0.90854  1.0000
  S   S125      1.0  0.69196  0.74772  0.89363  1.0000
  C   C475      1.0  0.80130  0.50551  0.81654  1.0000
  C   C476      1.0  0.89812  0.57277  0.87587  1.0000
  C   C477      1.0  0.74858  0.55593  0.81487  1.0000
  H   H562      1.0  0.96143  0.72714  0.75080  1.0000
  H   H563      1.0  0.93190  0.54451  0.75333  1.0000
  H   H564      1.0  0.85232  0.50908  0.89383  1.0000
  S   S126      1.0  0.99501  0.93230  0.86962  1.0000
  H   H565      1.0  0.87376  0.89770  0.58111  1.0000
  H   H566      1.0  0.86616  0.57266  0.75542  1.0000
  H   H567      1.0  0.91122  0.61368  0.94809  1.0000
  H   H568      1.0  0.92507  0.56146  0.95746  1.0000
  H   H569      1.0  0.88305  0.97798  0.53511  1.0000
  H   H570      1.0  0.85126  0.51650  0.95109  1.0000
  H   H571      1.0  0.89532  0.50440  0.92428  1.0000
  C   C478      1.0  0.94347  0.97270  0.59055  1.0000
  S   S127      1.0  0.67461  0.53767  0.84285  1.0000
  C   C479      1.0  0.99633  0.80957  0.66089  1.0000
  H   H572      1.0  0.99896  0.81774  0.59258  1.0000
  H   H573      1.0  0.68561  0.97275  0.87004  1.0000
  H   H574      1.0  0.67984  0.96587  0.81353  1.0000
  C   C480      1.0  0.99928  0.53526  0.93423  1.0000
  H   H575      1.0  0.99742  0.55936  0.91023  1.0000
  H   H576      1.0  0.99950  0.79263  0.72717  1.0000
  S   S128      1.0  0.84895  0.99830  0.75050  1.0000
