data_image0
_chemical_formula_structural       CH2FeS2FeS2FeHSH3S2HFeS2FeSCFeSFeS4C4H4CSHC8H4C6H4NHC2HCH4CSH5CHCHSHC3HCNHC4HC5H2CH2CH4C2HNC9H15C2HCFeC2H3FeHC3HCHCHCH2C2SH3NHCFeH2CHCHFeHSHC2HNH2SH2CFeCH4CHFeS2CSHSCHFeS2HFeHSH2S2HFeS2FeSHFeSFeS3H2C4H4C6H5CHC8H6NCH2C3H4CNH4C3HCHC3HCHCH6NSHC2HC5HCHC2HNC5H2CH3FeH6CHCH2NC5HSCH4SCFeCH2CH3CH6C2SH3CHCHCSC2FeS2HS2FeSHSHCSFeS2FeS2FeSFeS3HC7H4C7H4NC6H4C3SHC3H5C6H4CH2CHNC9H14CHCH2C4FeH2CHNC7HCH11CFeHNC2HC3HCH4C2HS2C5H5FeHSH4CH4CFeHFeCHCH2CHFeCH2CSCHCHNFeS2HFeSHSFeSCHSFeS2FeS2FeSFeS3C6H3C2HC6SH2C2HC7H4CHSC5H3C7H4CNC3H3CHCH2C2HC2HC3H2NC9H15CHCH3C2SH3CHC2H4C2H2CH3FeC2NHCSHC3H2CH6C2SCHCHCHNSC3HNH4SH2C3HNH3CH4CHN2CH2SH6CHCH4CHCFeH5CH3CH2C2HCHCHCH3CFeCS3CSFeH3CSFeHSHCFeS2FeS2FeSFeS3FeS2FeS2FeSFeS2C3HC4H3C7H4CHC7H5CH3C2H2C6H4C3H2CH2NC9H13NC9H10C2HCSC4HCH7C2HCHCN2C6H11NCHCH2CFeC2H6CSCH3CHC3H6SNH6CHCH3CHC2H4CHCSHCSCFeS2CSHFeH2CFeSHFeS2FeS2FeSFeS3FeS2FeS2Fe2S3CS2H2C3H2C6H4C6H5C2HCHC7H4CH2C3H2CNC2NC7HCSFeH7CH2CH3C2HCH2CHC2FeCNC9H14CHCHSH5S2HC3H3CH2CHC2H2NCH2CHCHC2NHCH9C2H3CHCHFeCSH4C2H7C2H2CS2CHCHCHSCFeCHSFeSFeSCFeS2FeSFeS3HCSHFeS2FeS2FeS2FeSFeS3HSHC6H4C3H2C6H4C2H4C6H4SHNH4C2H4SCHCNC4HCHCHCH3CH4FeHCHNC9H15NC9H11FeHCH2C2HC2HC3FeC2HC3HCHNCH5CFeH2CHCHS2H5SH6SH2C3NCH2C2H3C5HC2H3CHSCHFeH2CFeHSH2SFeS2FeS2Fe2S3NHSHFeS2FeS2FeS2FeSFeS3C6H4C9H4C2SH3C2H2C6H4CNH3CHC2H3C4HC3H2SCH3C2HCH3SCH2NHNH3CH6CH3NC2HNCH3C2HCHCH3CHCH6CHC3H3C6H2C4HCFeHC3HS2HCHC3H2C2HCH8C2HC3H2C2H2CHCHFeHCHFeS2HSCFeSFeS2FeS2FeSFeS3FeS2FeSFeCH2C6H4C6H4FeCH2C7H5C4H5C6H5C3NC9H13C2SCH2CNCHC2HC2HCH4CH4CHNC6HCH11C3N2C6H2SH11C2H4CH2CSH2FeC3HCSHCSH2SHC3H2FeCH3CHSCHCHCHC2HCFeS2CSHFeSFeS2FeS2FeSFeS3FeCSHFeS2C6H4NC7H4C6H5CH2C8H3C6H10CH2CSCH2CHCHCHCNC4H4C2H3CHC3FeNCH7CHCH3CH3C2H2CNCHC4H4C2H3CH3CH3SCH3NC9H14CSH6C2H2CHCHCNH3FeS2FeS2CFeHSNHSHFeS2FeSCFeSFeS3C4SCH2SHSHC7H4C8H4CSC4HC4H4C2HFeC2H2C2H4C2NC9H11NH2NSHC4H4C2H4SHCFeC2HNC2HCSCHCH3CHCH3C2H4CHSH7CH3C2NC2HCH3C2H6CH3CH2CHCH4CH2CSHC2FeS2H6FeS2CSCSFeSH2FeS2FeSCFeSFeS3HC6HCH3C7H4CH2C6H4C2H5CH2CHCNH5CHCH2CHCSHC3HCSCHCH2C3HCNC5HFeCH8C2SFeHC2H2SH2CHCHNH4CH3NH2NC9H7CHFeH2CH6CHCH
_chemical_formula_sum              "C1020 H1224 Fe136 S272 N68"
_cell_length_a       62.6864
_cell_length_b       61.4219
_cell_length_c       47.83
_cell_angle_alpha    90.0662
_cell_angle_beta     90.8673
_cell_angle_gamma    120.199

_space_group_name_H-M_alt    "P 1"
_space_group_IT_number       1

loop_
  _space_group_symop_operation_xyz
  'x, y, z'

loop_
  _atom_site_type_symbol
  _atom_site_label
  _atom_site_symmetry_multiplicity
  _atom_site_fract_x
  _atom_site_fract_y
  _atom_site_fract_z
  _atom_site_occupancy
  C   C1        1.0  0.30672  0.38521  0.18944  1.0000
  H   H1        1.0  0.29212  0.36414  0.22728  1.0000
  H   H2        1.0  0.31359  0.33599  0.04476  1.0000
  Fe  Fe1       1.0  0.27775  0.13761  0.46221  1.0000
  S   S1        1.0  0.29310  0.14160  0.41790  1.0000
  S   S2        1.0  0.23675  0.12409  0.46160  1.0000
  Fe  Fe2       1.0  0.14523  0.28554  0.46560  1.0000
  S   S3        1.0  0.17343  0.31823  0.43885  1.0000
  S   S4        1.0  0.11925  0.24607  0.45024  1.0000
  Fe  Fe3       1.0  0.02296  0.38562  0.14368  1.0000
  H   H3        1.0  0.25163  0.32556  0.05324  1.0000
  S   S5        1.0  0.05504  0.37785  0.15070  1.0000
  H   H4        1.0  0.06734  0.34288  0.05378  1.0000
  H   H5        1.0  0.05510  0.34133  0.08808  1.0000
  H   H6        1.0  0.17320  0.11040  0.47407  1.0000
  S   S6        1.0  0.00663  0.40236  0.17225  1.0000
  S   S7        1.0  0.02228  0.40761  0.10638  1.0000
  H   H7        1.0  0.01246  0.48627  0.99845  1.0000
  Fe  Fe4       1.0  0.19321  0.39173  0.28963  1.0000
  S   S8        1.0  0.18327  0.38502  0.24339  1.0000
  S   S9        1.0  0.16769  0.35737  0.31605  1.0000
  Fe  Fe5       1.0  0.22998  0.44829  0.28069  1.0000
  S   S10       1.0  0.22098  0.44447  0.23481  1.0000
  C   C2        1.0  0.18088  0.10812  0.49426  1.0000
  Fe  Fe6       1.0  0.18106  0.42037  0.24577  1.0000
  S   S11       1.0  0.15086  0.42910  0.23185  1.0000
  Fe  Fe7       1.0  0.22431  0.40963  0.23626  1.0000
  S   S12       1.0  0.24834  0.40951  0.20041  1.0000
  S   S13       1.0  0.18983  0.42656  0.29201  1.0000
  S   S14       1.0  0.23439  0.41389  0.28208  1.0000
  S   S15       1.0  0.26273  0.48768  0.29014  1.0000
  C   C3        1.0  0.29098  0.37690  0.21256  1.0000
  C   C4        1.0  0.27352  0.38466  0.21673  1.0000
  C   C5        1.0  0.27126  0.40056  0.19750  1.0000
  C   C6        1.0  0.28714  0.40906  0.17450  1.0000
  H   H8        1.0  0.31630  0.25100  0.24706  1.0000
  H   H9        1.0  0.26136  0.37778  0.23441  1.0000
  H   H10       1.0  0.28562  0.42139  0.15948  1.0000
  H   H11       1.0  0.25358  0.35844  0.14860  1.0000
  C   C7        1.0  0.21277  0.28452  0.40482  1.0000
  S   S16       1.0  0.05180  0.23462  0.47049  1.0000
  H   H12       1.0  0.03522  0.32181  0.06034  1.0000
  C   C8        1.0  0.02105  0.20936  0.47659  1.0000
  C   C9        1.0  0.05111  0.34088  0.06520  1.0000
  C   C10       1.0  0.08169  0.39259  0.17327  1.0000
  C   C11       1.0  0.09824  0.38336  0.17365  1.0000
  C   C12       1.0  0.11938  0.39411  0.19145  1.0000
  C   C13       1.0  0.12429  0.41432  0.20917  1.0000
  C   C14       1.0  0.10774  0.42351  0.20882  1.0000
  C   C15       1.0  0.08657  0.41273  0.19108  1.0000
  H   H13       1.0  0.09468  0.36777  0.16004  1.0000
  H   H14       1.0  0.13195  0.38688  0.19124  1.0000
  H   H15       1.0  0.11124  0.43909  0.22240  1.0000
  H   H16       1.0  0.07403  0.42000  0.19120  1.0000
  C   C16       1.0  0.17118  0.32892  0.40480  1.0000
  C   C17       1.0  0.19153  0.35097  0.39450  1.0000
  C   C18       1.0  0.19083  0.36007  0.36756  1.0000
  C   C19       1.0  0.16976  0.34709  0.35041  1.0000
  C   C20       1.0  0.14945  0.32497  0.36067  1.0000
  C   C21       1.0  0.15010  0.31596  0.38767  1.0000
  H   H17       1.0  0.20793  0.36120  0.40753  1.0000
  H   H18       1.0  0.20660  0.37708  0.36008  1.0000
  H   H19       1.0  0.13307  0.31466  0.34765  1.0000
  H   H20       1.0  0.13433  0.29895  0.39519  1.0000
  N   N1        1.0  0.04584  0.36107  0.05741  1.0000
  H   H21       1.0  0.24169  0.20719  0.43979  1.0000
  C   C22       1.0  0.24451  0.24103  0.45656  1.0000
  C   C23       1.0  0.02079  0.33881  0.01419  1.0000
  H   H22       1.0  0.21074  0.30580  0.45219  1.0000
  C   C24       1.0  0.21819  0.21768  0.41741  1.0000
  H   H23       1.0  0.30670  0.14875  0.36026  1.0000
  H   H24       1.0  0.17279  0.27054  0.43601  1.0000
  H   H25       1.0  0.27945  0.06628  0.36318  1.0000
  H   H26       1.0  0.29122  0.36168  0.13069  1.0000
  C   C25       1.0  0.16953  0.17725  0.46955  1.0000
  S   S17       1.0  0.14298  0.20167  0.47620  1.0000
  H   H27       1.0  0.15490  0.16532  0.45493  1.0000
  H   H28       1.0  0.18906  0.15673  0.46471  1.0000
  H   H29       1.0  0.17683  0.24888  0.45759  1.0000
  H   H30       1.0  0.28035  0.47883  0.23568  1.0000
  H   H31       1.0  0.01851  0.37111  0.06608  1.0000
  C   C26       1.0  0.04128  0.36022  0.02681  1.0000
  H   H32       1.0  0.00444  0.22701  0.45289  1.0000
  C   C27       1.0  0.29490  0.47760  0.22384  1.0000
  H   H33       1.0  0.31433  0.34502  0.11981  1.0000
  S   S18       1.0  0.11723  0.28610  0.49433  1.0000
  H   H34       1.0  0.17100  0.24313  0.42094  1.0000
  C   C28       1.0  0.23559  0.22083  0.43785  1.0000
  C   C29       1.0  0.00624  0.48318  0.13744  1.0000
  C   C30       1.0  0.29838  0.08129  0.36641  1.0000
  H   H35       1.0  0.01532  0.40380  0.03662  1.0000
  C   C31       1.0  0.00074  0.46767  0.00670  1.0000
  N   N2        1.0  0.29861  0.34628  0.07952  1.0000
  H   H36       1.0  0.22438  0.03528  0.47012  1.0000
  C   C32       1.0  0.29580  0.33406  0.05178  1.0000
  C   C33       1.0  0.30491  0.40165  0.17059  1.0000
  C   C34       1.0  0.31514  0.08884  0.34453  1.0000
  C   C35       1.0  0.27542  0.34376  0.09019  1.0000
  H   H37       1.0  0.07263  0.39736  0.01625  1.0000
  C   C36       1.0  0.27492  0.35294  0.11733  1.0000
  C   C37       1.0  0.00092  0.21090  0.46537  1.0000
  C   C38       1.0  0.25343  0.35122  0.12780  1.0000
  C   C39       1.0  0.23184  0.34040  0.11159  1.0000
  C   C40       1.0  0.20757  0.18698  0.49465  1.0000
  H   H38       1.0  0.06938  0.38565  0.09079  1.0000
  H   H39       1.0  0.28511  0.43525  0.24878  1.0000
  C   C41       1.0  0.18882  0.17217  0.47524  1.0000
  H   H40       1.0  0.21477  0.32292  0.07230  1.0000
  H   H41       1.0  0.00723  0.33815  0.06854  1.0000
  C   C42       1.0  0.23596  0.25812  0.45510  1.0000
  H   H42       1.0  0.08462  0.38926  0.05847  1.0000
  H   H43       1.0  0.25747  0.24282  0.47295  1.0000
  H   H44       1.0  0.30862  0.44933  0.27624  1.0000
  H   H45       1.0  0.18486  0.46831  0.26792  1.0000
  C   C43       1.0  0.25306  0.33289  0.07414  1.0000
  C   C44       1.0  0.20775  0.02010  0.47893  1.0000
  H   H46       1.0  0.21524  0.33921  0.11980  1.0000
  N   N3        1.0  0.10509  0.35931  0.28378  1.0000
  C   C45       1.0  0.12306  0.38346  0.29761  1.0000
  C   C46       1.0  0.09720  0.33874  0.30442  1.0000
  C   C47       1.0  0.11831  0.35444  0.26131  1.0000
  C   C48       1.0  0.08342  0.36075  0.27347  1.0000
  C   C49       1.0  0.06888  0.36537  0.29244  1.0000
  C   C50       1.0  0.07616  0.35786  0.24474  1.0000
  C   C51       1.0  0.04858  0.36724  0.28320  1.0000
  C   C52       1.0  0.05574  0.35963  0.23577  1.0000
  C   C53       1.0  0.04208  0.36445  0.25490  1.0000
  H   H47       1.0  0.11543  0.38767  0.31629  1.0000
  H   H48       1.0  0.13984  0.38317  0.30509  1.0000
  H   H49       1.0  0.12910  0.39950  0.28292  1.0000
  H   H50       1.0  0.08934  0.34216  0.32346  1.0000
  H   H51       1.0  0.11305  0.33665  0.31187  1.0000
  H   H52       1.0  0.08304  0.32035  0.29515  1.0000
  H   H53       1.0  0.12594  0.36994  0.24575  1.0000
  H   H54       1.0  0.13428  0.35315  0.26986  1.0000
  H   H55       1.0  0.10612  0.33623  0.25033  1.0000
  H   H56       1.0  0.07325  0.36775  0.31457  1.0000
  H   H57       1.0  0.08607  0.35450  0.22863  1.0000
  H   H58       1.0  0.03789  0.37101  0.29803  1.0000
  H   H59       1.0  0.05065  0.35759  0.21371  1.0000
  H   H60       1.0  0.02649  0.36614  0.24766  1.0000
  H   H61       1.0  0.28418  0.45615  0.27403  1.0000
  C   C54       1.0  0.00550  0.39346  0.01794  1.0000
  C   C55       1.0  0.21875  0.29325  0.45406  1.0000
  H   H62       1.0  0.28216  0.31352  0.05237  1.0000
  C   C56       1.0  0.98909  0.47585  0.15887  1.0000
  Fe  Fe8       1.0  0.09201  0.24535  0.48131  1.0000
  C   C57       1.0  0.02369  0.35700  0.07253  1.0000
  C   C58       1.0  0.21812  0.25542  0.43451  1.0000
  H   H63       1.0  0.23285  0.29487  0.40037  1.0000
  H   H64       1.0  0.23904  0.30545  0.45179  1.0000
  H   H65       1.0  0.18975  0.09670  0.49002  1.0000
  Fe  Fe9       1.0  0.00326  0.42218  0.13404  1.0000
  H   H66       1.0  0.21090  0.20159  0.40331  1.0000
  C   C59       1.0  0.31711  0.37336  0.07668  1.0000
  C   C60       1.0  0.30837  0.33475  0.09946  1.0000
  C   C61       1.0  0.06687  0.38544  0.06761  1.0000
  H   H67       1.0  0.19575  0.23117  0.39976  1.0000
  C   C62       1.0  0.18104  0.25819  0.43691  1.0000
  H   H68       1.0  0.20312  0.27049  0.38775  1.0000
  C   C63       1.0  0.29694  0.45276  0.26120  1.0000
  H   H69       1.0  0.28535  0.46131  0.20906  1.0000
  C   C64       1.0  0.23164  0.33126  0.08485  1.0000
  H   H70       1.0  0.02686  0.35869  0.09560  1.0000
  H   H71       1.0  0.06373  0.40138  0.06282  1.0000
  C   C65       1.0  0.01607  0.18828  0.49258  1.0000
  C   C66       1.0  0.30577  0.09332  0.39237  1.0000
  S   S19       1.0  0.01835  0.46407  0.12626  1.0000
  H   H72       1.0  0.19330  0.49226  0.29391  1.0000
  H   H73       1.0  0.29423  0.31485  0.10380  1.0000
  H   H74       1.0  0.21471  0.28566  0.47569  1.0000
  N   N4        1.0  0.20805  0.27266  0.43276  1.0000
  H   H75       1.0  0.20599  0.29820  0.40334  1.0000
  C   C67       1.0  0.20960  0.23471  0.41563  1.0000
  Fe  Fe10      1.0  0.23402  0.09678  0.49506  1.0000
  H   H76       1.0  0.00803  0.32298  0.02653  1.0000
  H   H77       1.0  0.24322  0.27290  0.47074  1.0000
  C   C68       1.0  0.19284  0.02572  0.49541  1.0000
  H   H78       1.0  0.29016  0.34293  0.03515  1.0000
  C   C69       1.0  0.05681  0.38017  0.00871  1.0000
  H   H79       1.0  0.31694  0.40842  0.15281  1.0000
  Fe  Fe11      1.0  0.13491  0.23371  0.48580  1.0000
  H   H80       1.0  0.16542  0.48544  0.23597  1.0000
  S   S20       1.0  0.28678  0.16804  0.49464  1.0000
  H   H81       1.0  0.31057  0.38268  0.06165  1.0000
  C   C70       1.0  0.00033  0.46501  0.03579  1.0000
  C   C71       1.0  0.19925  0.48778  0.27402  1.0000
  H   H82       1.0  0.19643  0.47852  0.21926  1.0000
  N   N5        1.0  0.31209  0.47448  0.24283  1.0000
  H   H83       1.0  0.30851  0.07896  0.32478  1.0000
  H   H84       1.0  0.29259  0.08805  0.40909  1.0000
  S   S21       1.0  0.27428  0.10845  0.49387  1.0000
  H   H85       1.0  0.21655  0.48750  0.27865  1.0000
  H   H86       1.0  0.31982  0.43297  0.23915  1.0000
  C   C72       1.0  0.16878  0.19735  0.48284  1.0000
  Fe  Fe12      1.0  0.24560  0.15289  0.49569  1.0000
  C   C73       1.0  0.20114  0.99475  0.47377  1.0000
  H   H87       1.0  0.13646  0.06963  0.48427  1.0000
  H   H88       1.0  0.01134  0.48121  0.04930  1.0000
  H   H89       1.0  0.32113  0.38376  0.09690  1.0000
  H   H90       1.0  0.11820  0.36589  0.64634  1.0000
  C   C74       1.0  0.28913  0.29534  0.74228  1.0000
  H   H91       1.0  0.02642  0.47856  0.95671  1.0000
  Fe  Fe13      1.0  0.28078  0.13821  0.52627  1.0000
  S   S22       1.0  0.29632  0.14197  0.57096  1.0000
  S   S23       1.0  0.24026  0.12495  0.52900  1.0000
  C   C75       1.0  0.99945  0.47884  0.83435  1.0000
  S   S24       1.0  0.20014  0.05740  0.50282  1.0000
  H   H92       1.0  0.31720  0.44275  0.78853  1.0000
  S   S25       1.0  0.00905  0.45877  0.81937  1.0000
  C   C76       1.0  0.20911  0.01508  0.57157  1.0000
  H   H93       1.0  0.23596  0.04558  0.54685  1.0000
  Fe  Fe14      1.0  0.13206  0.27097  0.52739  1.0000
  S   S26       1.0  0.13533  0.27999  0.57456  1.0000
  S   S27       1.0  0.10571  0.23015  0.51555  1.0000
  H   H94       1.0  0.14729  0.39080  0.68571  1.0000
  Fe  Fe15      1.0  0.02161  0.38411  0.83079  1.0000
  H   H95       1.0  0.01467  0.46007  0.92537  1.0000
  S   S28       1.0  0.04821  0.37245  0.81192  1.0000
  H   H96       1.0  0.13534  0.34831  0.67757  1.0000
  H   H97       1.0  0.09766  0.37618  0.65767  1.0000
  S   S29       1.0  0.03266  0.41832  0.85767  1.0000
  S   S30       1.0  0.23209  0.18115  0.50364  1.0000
  H   H98       1.0  0.02717  0.35693  0.94616  1.0000
  Fe  Fe16      1.0  0.19670  0.40075  0.68645  1.0000
  S   S31       1.0  0.18261  0.38494  0.72929  1.0000
  S   S32       1.0  0.17922  0.38415  0.64335  1.0000
  Fe  Fe17      1.0  0.23444  0.45332  0.71073  1.0000
  S   S33       1.0  0.22223  0.44093  0.75456  1.0000
  H   H99       1.0  0.12235  0.15653  0.52554  1.0000
  Fe  Fe18      1.0  0.22322  0.40584  0.74283  1.0000
  S   S34       1.0  0.24111  0.39263  0.77618  1.0000
  Fe  Fe19      1.0  0.18313  0.42140  0.73773  1.0000
  S   S35       1.0  0.15448  0.43093  0.75435  1.0000
  S   S36       1.0  0.23704  0.41907  0.69943  1.0000
  S   S37       1.0  0.19566  0.43648  0.69447  1.0000
  H   H100      1.0  0.03281  0.42010  0.98995  1.0000
  H   H101      1.0  0.12565  0.34127  0.71291  1.0000
  C   C77       1.0  0.28523  0.39659  0.75769  1.0000
  C   C78       1.0  0.26954  0.39255  0.78007  1.0000
  C   C79       1.0  0.27676  0.38869  0.80681  1.0000
  C   C80       1.0  0.29952  0.38951  0.81132  1.0000
  H   H102      1.0  0.16495  0.47623  0.72480  1.0000
  H   H103      1.0  0.27986  0.39910  0.73687  1.0000
  H   H104      1.0  0.26477  0.38532  0.82430  1.0000
  H   H105      1.0  0.32007  0.40095  0.74475  1.0000
  C   C81       1.0  0.07817  0.38945  0.79688  1.0000
  C   C82       1.0  0.08870  0.41461  0.78872  1.0000
  C   C83       1.0  0.11193  0.42683  0.77571  1.0000
  C   C84       1.0  0.12508  0.41420  0.77071  1.0000
  C   C85       1.0  0.11460  0.38905  0.77888  1.0000
  C   C86       1.0  0.09137  0.37685  0.79191  1.0000
  H   H106      1.0  0.07880  0.42455  0.79223  1.0000
  H   H107      1.0  0.11962  0.44620  0.76940  1.0000
  H   H108      1.0  0.12438  0.37901  0.77539  1.0000
  H   H109      1.0  0.08347  0.35740  0.79812  1.0000
  H   H110      1.0  0.16448  0.17048  0.54341  1.0000
  C   C87       1.0  0.99139  0.16921  0.49730  1.0000
  H   H111      1.0  0.18259  0.14379  0.53837  1.0000
  C   C88       1.0  0.01332  0.45933  0.94862  1.0000
  C   C89       1.0  0.22706  0.02557  0.55118  1.0000
  C   C90       1.0  0.14883  0.30944  0.59299  1.0000
  C   C91       1.0  0.15347  0.31004  0.62200  1.0000
  C   C92       1.0  0.16338  0.33273  0.63766  1.0000
  C   C93       1.0  0.16834  0.35514  0.62458  1.0000
  C   C94       1.0  0.16345  0.35448  0.59563  1.0000
  C   C95       1.0  0.15401  0.33190  0.57988  1.0000
  H   H112      1.0  0.14955  0.29282  0.63242  1.0000
  H   H113      1.0  0.16699  0.33280  0.65985  1.0000
  H   H114      1.0  0.16712  0.37162  0.58521  1.0000
  H   H115      1.0  0.15049  0.33184  0.55766  1.0000
  H   H116      1.0  0.29567  0.28319  0.81218  1.0000
  H   H117      1.0  0.99969  0.32149  0.97638  1.0000
  N   N6        1.0  0.16144  0.09609  0.51544  1.0000
  C   C96       1.0  0.05820  0.32604  0.74300  1.0000
  H   H118      1.0  0.18762  0.22803  0.51222  1.0000
  H   H119      1.0  0.10490  0.32321  0.68421  1.0000
  C   C97       1.0  0.14390  0.06996  0.50564  1.0000
  C   C98       1.0  0.04882  0.34229  0.74471  1.0000
  C   C99       1.0  0.15340  0.15169  0.53459  1.0000
  H   H120      1.0  0.30604  0.47252  0.73141  1.0000
  H   H121      1.0  0.01576  0.20162  0.59148  1.0000
  H   H122      1.0  0.16343  0.47992  0.77798  1.0000
  H   H123      1.0  0.19536  0.48108  0.72858  1.0000
  C   C100      1.0  0.01618  0.23733  0.53649  1.0000
  N   N7        1.0  0.30142  0.47593  0.77543  1.0000
  H   H124      1.0  0.03419  0.33850  0.75920  1.0000
  H   H125      1.0  0.05196  0.37690  0.73078  1.0000
  H   H126      1.0  0.26152  0.28567  0.70967  1.0000
  H   H127      1.0  0.08664  0.34307  0.65405  1.0000
  C   C101      1.0  0.16352  0.13608  0.53183  1.0000
  C   C102      1.0  0.01529  0.40277  0.99138  1.0000
  C   C103      1.0  0.27056  0.29736  0.72797  1.0000
  H   H128      1.0  0.29365  0.28180  0.73410  1.0000
  C   C104      1.0  0.26355  0.31439  0.73705  1.0000
  H   H129      1.0  0.19280  0.48268  0.77874  1.0000
  C   C105      1.0  0.23893  0.48572  0.61157  1.0000
  C   C106      1.0  0.29364  0.46152  0.74874  1.0000
  C   C107      1.0  0.12966  0.14385  0.52450  1.0000
  H   H130      1.0  0.12639  0.40083  0.69590  1.0000
  C   C108      1.0  0.07843  0.36955  0.71078  1.0000
  H   H131      1.0  0.22805  0.46607  0.61745  1.0000
  C   C109      1.0  0.03142  0.35752  0.96834  1.0000
  H   H132      1.0  0.12833  0.06006  0.52029  1.0000
  H   H133      1.0  0.30483  0.38685  0.83211  1.0000
  H   H134      1.0  0.05049  0.30944  0.75601  1.0000
  H   H135      1.0  0.05129  0.26551  0.59738  1.0000
  H   H136      1.0  0.20433  0.02713  0.58322  1.0000
  H   H137      1.0  0.24920  0.31597  0.72591  1.0000
  N   N8        1.0  0.32094  0.30895  0.78213  1.0000
  S   S38       1.0  0.01657  0.40230  0.93391  1.0000
  H   H138      1.0  0.27459  0.45655  0.74236  1.0000
  C   C110      1.0  0.00277  0.38980  0.96672  1.0000
  C   C111      1.0  0.20699  0.20730  0.50765  1.0000
  H   H139      1.0  0.08577  0.38679  0.69905  1.0000
  C   C112      1.0  0.14983  0.11171  0.51945  1.0000
  C   C113      1.0  0.99078  0.22445  0.53069  1.0000
  C   C114      1.0  0.30130  0.31054  0.76627  1.0000
  C   C115      1.0  0.23297  0.01020  0.53568  1.0000
  C   C116      1.0  0.11571  0.12011  0.51216  1.0000
  H   H140      1.0  0.08439  0.31826  0.72543  1.0000
  C   C117      1.0  0.27508  0.32950  0.76047  1.0000
  H   H141      1.0  0.31069  0.14387  0.62842  1.0000
  C   C118      1.0  0.17120  0.00552  0.50649  1.0000
  C   C119      1.0  0.05891  0.36399  0.72864  1.0000
  H   H142      1.0  0.28947  0.18246  0.61292  1.0000
  N   N9        1.0  0.05318  0.24235  0.56495  1.0000
  C   C120      1.0  0.05827  0.25226  0.59406  1.0000
  C   C121      1.0  0.06175  0.22397  0.56198  1.0000
  C   C122      1.0  0.06834  0.26381  0.54625  1.0000
  C   C123      1.0  0.02633  0.22971  0.55861  1.0000
  C   C124      1.0  0.17292  0.09418  0.54205  1.0000
  H   H143      1.0  0.06328  0.39439  0.96649  1.0000
  H   H144      1.0  0.24645  0.01839  0.51928  1.0000
  C   C125      1.0  0.18788  0.21257  0.50170  1.0000
  H   H145      1.0  0.21309  0.48297  0.57984  1.0000
  H   H146      1.0  0.04955  0.23704  0.60971  1.0000
  H   H147      1.0  0.07850  0.26260  0.59903  1.0000
  Fe  Fe20      1.0  0.00186  0.42086  0.83603  1.0000
  H   H148      1.0  0.05282  0.20811  0.57681  1.0000
  H   H149      1.0  0.08203  0.23297  0.56604  1.0000
  H   H150      1.0  0.05767  0.21569  0.54046  1.0000
  H   H151      1.0  0.06338  0.27879  0.54777  1.0000
  H   H152      1.0  0.08842  0.27287  0.55153  1.0000
  H   H153      1.0  0.06628  0.25751  0.52405  1.0000
  C   C126      1.0  0.30804  0.39752  0.76222  1.0000
  H   H154      1.0  0.18059  0.08134  0.53990  1.0000
  C   C127      1.0  0.31979  0.20636  0.58693  1.0000
  H   H155      1.0  0.26965  0.34280  0.76749  1.0000
  H   H156      1.0  0.13590  0.38573  0.72092  1.0000
  N   N10       1.0  0.10988  0.36038  0.69029  1.0000
  C   C128      1.0  0.13072  0.38549  0.69852  1.0000
  C   C129      1.0  0.11919  0.34239  0.69142  1.0000
  C   C130      1.0  0.10273  0.36142  0.66084  1.0000
  C   C131      1.0  0.08868  0.35359  0.70874  1.0000
  C   C132      1.0  0.07784  0.33148  0.72533  1.0000
  H   H157      1.0  0.02018  0.44674  0.95601  1.0000
  S   S39       1.0  0.99247  0.38819  0.80667  1.0000
  C   C133      1.0  0.29373  0.32775  0.77484  1.0000
  H   H158      1.0  0.02748  0.25257  0.52262  1.0000
  H   H159      1.0  0.15926  0.08690  0.55913  1.0000
  H   H160      1.0  0.15941  0.00949  0.51919  1.0000
  H   H161      1.0  0.22139  0.21899  0.52262  1.0000
  S   S40       1.0  0.99432  0.35773  0.86257  1.0000
  C   C134      1.0  0.12550  0.10414  0.50965  1.0000
  Fe  Fe21      1.0  0.00366  0.39246  0.88797  1.0000
  C   C135      1.0  0.00945  0.20863  0.57448  1.0000
  H   H162      1.0  0.03119  0.18654  0.50115  1.0000
  H   H163      1.0  0.18883  0.11251  0.54903  1.0000
  C   C136      1.0  0.01592  0.33763  0.98543  1.0000
  H   H164      1.0  0.29033  0.46985  0.81847  1.0000
  H   H165      1.0  0.26506  0.45651  0.79346  1.0000
  H   H166      1.0  0.30230  0.34015  0.79269  1.0000
  C   C137      1.0  0.28418  0.46040  0.79766  1.0000
  H   H167      1.0  0.99301  0.48775  0.95877  1.0000
  H   H168      1.0  0.28239  0.44153  0.79942  1.0000
  H   H169      1.0  0.30941  0.19804  0.56768  1.0000
  H   H170      1.0  0.15310  0.05847  0.50404  1.0000
  H   H171      1.0  0.31228  0.19911  0.65658  1.0000
  H   H172      1.0  0.09737  0.11430  0.50397  1.0000
  C   C138      1.0  0.31310  0.30167  0.81139  1.0000
  C   C139      1.0  0.31548  0.39419  0.78908  1.0000
  S   S41       1.0  0.16211  0.27327  0.49998  1.0000
  H   H173      1.0  0.11383  0.08620  0.49946  1.0000
  H   H174      1.0  0.30990  0.31567  0.82243  1.0000
  H   H175      1.0  0.29364  0.44352  0.75014  1.0000
  C   C140      1.0  0.30854  0.19763  0.61258  1.0000
  H   H176      1.0  0.19578  0.12716  0.50107  1.0000
  C   C141      1.0  0.05182  0.37869  0.97993  1.0000
  H   H177      1.0  0.31074  0.27085  0.77064  1.0000
  C   C142      1.0  0.18479  0.49112  0.72646  1.0000
  S   S42       1.0  0.26822  0.49235  0.70515  1.0000
  C   C143      1.0  0.02068  0.77609  0.45600  1.0000
  C   C144      1.0  0.08295  0.54120  0.16584  1.0000
  Fe  Fe22      1.0  0.13453  0.84831  0.47084  1.0000
  S   S43       1.0  0.14550  0.82309  0.44687  1.0000
  S   S44       1.0  0.11865  0.87192  0.45569  1.0000
  H   H178      1.0  0.28016  0.58096  0.25060  1.0000
  S   S45       1.0  0.01994  0.59745  0.12207  1.0000
  S   S46       1.0  0.05062  0.84113  0.47838  1.0000
  Fe  Fe23      1.0  0.02424  0.63057  0.14736  1.0000
  S   S47       1.0  0.06367  0.66373  0.15584  1.0000
  H   H179      1.0  0.09338  0.60877  0.13954  1.0000
  S   S48       1.0  0.27292  0.58380  0.35510  1.0000
  H   H180      1.0  0.25295  0.90802  0.16873  1.0000
  C   C145      1.0  0.99090  0.51664  0.15702  1.0000
  S   S49       1.0  0.29599  0.65322  0.37478  1.0000
  Fe  Fe24      1.0  0.19906  0.80190  0.30186  1.0000
  S   S50       1.0  0.18802  0.79445  0.25615  1.0000
  S   S51       1.0  0.18904  0.82832  0.32491  1.0000
  Fe  Fe25      1.0  0.22775  0.77322  0.29808  1.0000
  S   S52       1.0  0.21909  0.76466  0.25217  1.0000
  S   S53       1.0  0.24706  0.75923  0.32798  1.0000
  Fe  Fe26      1.0  0.22775  0.80523  0.24902  1.0000
  S   S54       1.0  0.24777  0.83131  0.21200  1.0000
  Fe  Fe27      1.0  0.18015  0.75475  0.26277  1.0000
  S   S55       1.0  0.14538  0.71584  0.25439  1.0000
  S   S56       1.0  0.23903  0.81427  0.29430  1.0000
  S   S57       1.0  0.18864  0.76171  0.30915  1.0000
  H   H181      1.0  0.22453  0.87789  0.20165  1.0000
  C   C146      1.0  0.30130  0.89745  0.17850  1.0000
  C   C147      1.0  0.28762  0.71500  0.31338  1.0000
  C   C148      1.0  0.28069  0.72465  0.29050  1.0000
  C   C149      1.0  0.26865  0.73859  0.29451  1.0000
  C   C150      1.0  0.26342  0.74307  0.32155  1.0000
  C   C151      1.0  0.27048  0.73354  0.34442  1.0000
  C   C152      1.0  0.28244  0.71953  0.34040  1.0000
  H   H182      1.0  0.28458  0.72126  0.26950  1.0000
  H   H183      1.0  0.26339  0.74581  0.27670  1.0000
  H   H184      1.0  0.26653  0.73688  0.36542  1.0000
  H   H185      1.0  0.28766  0.71227  0.35821  1.0000
  C   C153      1.0  0.26512  0.51407  0.30860  1.0000
  C   C154      1.0  0.24650  0.51209  0.32601  1.0000
  C   C155      1.0  0.24934  0.53356  0.34023  1.0000
  C   C156      1.0  0.27082  0.55725  0.33739  1.0000
  C   C157      1.0  0.28950  0.55920  0.32009  1.0000
  C   C158      1.0  0.28665  0.53773  0.30583  1.0000
  C   C159      1.0  0.00750  0.52368  0.13504  1.0000
  H   H186      1.0  0.23485  0.53183  0.35368  1.0000
  H   H187      1.0  0.01915  0.78742  0.41404  1.0000
  H   H188      1.0  0.30127  0.53953  0.29260  1.0000
  H   H189      1.0  0.31337  0.71435  0.46024  1.0000
  N   N11       1.0  0.20309  0.50597  0.25162  1.0000
  C   C160      1.0  0.12232  0.70260  0.22711  1.0000
  C   C161      1.0  0.12601  0.71296  0.20035  1.0000
  C   C162      1.0  0.10780  0.70088  0.17905  1.0000
  C   C163      1.0  0.08541  0.67853  0.18417  1.0000
  C   C164      1.0  0.08150  0.66840  0.21110  1.0000
  C   C165      1.0  0.09995  0.68018  0.23223  1.0000
  H   H190      1.0  0.14307  0.73007  0.19590  1.0000
  H   H191      1.0  0.11111  0.70899  0.15840  1.0000
  H   H192      1.0  0.06434  0.65149  0.21567  1.0000
  H   H193      1.0  0.09675  0.67201  0.25284  1.0000
  C   C166      1.0  0.31621  0.91100  0.20150  1.0000
  C   C167      1.0  0.99039  0.60408  0.01639  1.0000
  C   C168      1.0  0.31653  0.95217  0.01568  1.0000
  S   S58       1.0  0.99778  0.63542  0.11884  1.0000
  H   H194      1.0  0.31178  0.98331  0.00459  1.0000
  C   C169      1.0  0.29006  0.87509  0.23150  1.0000
  C   C170      1.0  0.27467  0.86181  0.20868  1.0000
  C   C171      1.0  0.28066  0.87310  0.18214  1.0000
  H   H195      1.0  0.05095  0.61526  0.18372  1.0000
  H   H196      1.0  0.19081  0.84782  0.48714  1.0000
  H   H197      1.0  0.28631  0.86655  0.25192  1.0000
  H   H198      1.0  0.21287  0.99076  0.46099  1.0000
  H   H199      1.0  0.30611  0.57727  0.31769  1.0000
  C   C172      1.0  0.15757  0.82505  0.41281  1.0000
  C   C173      1.0  0.16229  0.80601  0.40391  1.0000
  C   C174      1.0  0.17191  0.80666  0.37719  1.0000
  C   C175      1.0  0.17696  0.82643  0.35896  1.0000
  C   C176      1.0  0.17236  0.84553  0.36793  1.0000
  C   C177      1.0  0.16274  0.84488  0.39465  1.0000
  H   H200      1.0  0.15831  0.79052  0.41768  1.0000
  H   H201      1.0  0.17529  0.79182  0.37064  1.0000
  H   H202      1.0  0.17615  0.86092  0.35407  1.0000
  H   H203      1.0  0.15924  0.85967  0.40112  1.0000
  C   C178      1.0  0.25606  0.58059  0.28212  1.0000
  H   H204      1.0  0.18064  0.78491  0.48304  1.0000
  H   H205      1.0  0.30546  0.90585  0.15800  1.0000
  C   C179      1.0  0.23314  0.56682  0.29452  1.0000
  H   H206      1.0  0.18145  0.51876  0.22930  1.0000
  N   N12       1.0  0.18221  0.68605  0.30808  1.0000
  C   C180      1.0  0.15531  0.67608  0.30388  1.0000
  C   C181      1.0  0.18952  0.69966  0.33533  1.0000
  C   C182      1.0  0.19510  0.70428  0.28543  1.0000
  C   C183      1.0  0.18931  0.66640  0.30781  1.0000
  C   C184      1.0  0.17192  0.64031  0.30416  1.0000
  C   C185      1.0  0.21445  0.67322  0.31125  1.0000
  C   C186      1.0  0.17947  0.62236  0.30420  1.0000
  C   C187      1.0  0.22183  0.65522  0.31117  1.0000
  C   C188      1.0  0.20436  0.62981  0.30772  1.0000
  H   H207      1.0  0.14432  0.66266  0.32054  1.0000
  H   H208      1.0  0.15078  0.69149  0.30449  1.0000
  H   H209      1.0  0.14874  0.66690  0.28296  1.0000
  H   H210      1.0  0.18027  0.68665  0.35297  1.0000
  H   H211      1.0  0.18484  0.71491  0.33616  1.0000
  H   H212      1.0  0.20973  0.70909  0.33950  1.0000
  H   H213      1.0  0.19142  0.69465  0.26473  1.0000
  H   H214      1.0  0.18888  0.71829  0.28372  1.0000
  H   H215      1.0  0.21540  0.71535  0.28895  1.0000
  H   H216      1.0  0.15242  0.63330  0.30122  1.0000
  H   H217      1.0  0.22867  0.69264  0.31405  1.0000
  H   H218      1.0  0.16595  0.60255  0.30150  1.0000
  H   H219      1.0  0.24127  0.66113  0.31382  1.0000
  H   H220      1.0  0.21020  0.61592  0.30778  1.0000
  C   C189      1.0  0.08607  0.56542  0.16634  1.0000
  H   H221      1.0  0.26963  0.59882  0.29078  1.0000
  C   C190      1.0  0.31048  0.89955  0.22795  1.0000
  H   H222      1.0  0.02865  0.51299  0.10903  1.0000
  H   H223      1.0  0.06078  0.58973  0.13303  1.0000
  C   C191      1.0  0.07504  0.60432  0.14728  1.0000
  C   C192      1.0  0.26198  0.57038  0.25958  1.0000
  C   C193      1.0  0.25635  0.91200  0.19096  1.0000
  C   C194      1.0  0.21602  0.54277  0.28444  1.0000
  Fe  Fe28      1.0  0.14384  0.90144  0.48753  1.0000
  H   H224      1.0  0.30443  0.49495  0.21118  1.0000
  H   H225      1.0  0.03310  0.55100  0.20090  1.0000
  C   C195      1.0  0.99728  0.62948  0.01366  1.0000
  H   H226      1.0  0.29966  0.95497  0.23549  1.0000
  N   N13       1.0  0.22815  0.88103  0.26068  1.0000
  C   C196      1.0  0.24170  0.87069  0.27610  1.0000
  C   C197      1.0  0.22031  0.89386  0.28094  1.0000
  C   C198      1.0  0.20541  0.85937  0.24846  1.0000
  C   C199      1.0  0.24457  0.89910  0.23956  1.0000
  C   C200      1.0  0.26640  0.92149  0.24810  1.0000
  C   C201      1.0  0.24009  0.89476  0.21026  1.0000
  C   C202      1.0  0.28263  0.93845  0.22860  1.0000
  H   H227      1.0  0.23597  0.90835  0.29374  1.0000
  C   C203      1.0  0.27758  0.93374  0.20009  1.0000
  H   H228      1.0  0.25903  0.88555  0.28618  1.0000
  H   H229      1.0  0.23039  0.85784  0.29300  1.0000
  H   H230      1.0  0.24661  0.85967  0.26181  1.0000
  H   H231      1.0  0.19887  0.53255  0.29544  1.0000
  H   H232      1.0  0.20693  0.88030  0.29622  1.0000
  H   H233      1.0  0.21123  0.90312  0.27000  1.0000
  H   H234      1.0  0.20983  0.84771  0.23445  1.0000
  H   H235      1.0  0.19332  0.84641  0.26499  1.0000
  H   H236      1.0  0.19420  0.86573  0.23653  1.0000
  H   H237      1.0  0.27144  0.92571  0.26995  1.0000
  H   H238      1.0  0.21666  0.84261  0.48756  1.0000
  C   C204      1.0  0.04505  0.52542  0.19098  1.0000
  Fe  Fe29      1.0  0.30477  0.62477  0.35606  1.0000
  H   H239      1.0  0.26908  0.86301  0.16425  1.0000
  N   N14       1.0  0.07098  0.59557  0.17670  1.0000
  C   C205      1.0  0.04906  0.59638  0.18673  1.0000
  C   C206      1.0  0.09257  0.61359  0.19396  1.0000
  H   H240      1.0  0.02880  0.50969  0.19991  1.0000
  C   C207      1.0  0.06817  0.57015  0.17832  1.0000
  C   C208      1.0  0.04779  0.54946  0.19130  1.0000
  C   C209      1.0  0.00722  0.76144  0.47842  1.0000
  H   H241      1.0  0.03201  0.58258  0.17512  1.0000
  C   C210      1.0  0.06230  0.52118  0.17783  1.0000
  H   H242      1.0  0.09016  0.60792  0.21630  1.0000
  H   H243      1.0  0.09530  0.63298  0.19291  1.0000
  H   H244      1.0  0.10999  0.61494  0.18687  1.0000
  H   H245      1.0  0.07430  0.62199  0.14466  1.0000
  C   C211      1.0  0.19616  0.83308  0.48702  1.0000
  C   C212      1.0  0.00860  0.77531  0.43105  1.0000
  H   H246      1.0  0.25108  0.53942  0.23222  1.0000
  S   S59       1.0  0.17272  0.94291  0.47808  1.0000
  S   S60       1.0  0.99459  0.60680  0.17801  1.0000
  C   C213      1.0  0.17957  0.97454  0.48496  1.0000
  C   C214      1.0  0.01974  0.82225  0.49084  1.0000
  C   C215      1.0  0.99979  0.81904  0.47375  1.0000
  C   C216      1.0  0.21076  0.49786  0.22626  1.0000
  C   C217      1.0  0.22136  0.53176  0.26142  1.0000
  H   H247      1.0  0.22787  0.49701  0.23033  1.0000
  H   H248      1.0  0.21382  0.51065  0.20841  1.0000
  H   H249      1.0  0.14873  0.79532  0.49172  1.0000
  H   H250      1.0  0.29065  0.94655  0.18506  1.0000
  H   H251      1.0  0.22922  0.57445  0.31294  1.0000
  Fe  Fe30      1.0  0.31526  0.67751  0.33790  1.0000
  H   H252      1.0  0.09627  0.53775  0.15555  1.0000
  S   S61       1.0  0.30246  0.69730  0.30695  1.0000
  H   H253      1.0  0.10231  0.58031  0.15665  1.0000
  H   H254      1.0  0.00357  0.82842  0.45380  1.0000
  H   H255      1.0  0.18959  0.82361  0.46622  1.0000
  H   H256      1.0  0.28656  0.67126  0.44219  1.0000
  C   C218      1.0  0.24500  0.54632  0.24929  1.0000
  H   H257      1.0  0.17033  0.50688  0.26362  1.0000
  H   H258      1.0  0.05932  0.50220  0.17646  1.0000
  H   H259      1.0  0.23010  0.49398  0.32895  1.0000
  H   H260      1.0  0.04606  0.59230  0.20943  1.0000
  C   C219      1.0  0.01529  0.50711  0.12551  1.0000
  Fe  Fe31      1.0  0.09120  0.85424  0.49081  1.0000
  H   H261      1.0  0.01484  0.54211  0.12589  1.0000
  Fe  Fe32      1.0  0.98917  0.57395  0.15114  1.0000
  C   C220      1.0  0.27020  0.65644  0.48205  1.0000
  H   H262      1.0  0.31603  0.63662  0.45626  1.0000
  C   C221      1.0  0.28553  0.67552  0.46399  1.0000
  H   H263      1.0  0.04043  0.78888  0.45834  1.0000
  H   H264      1.0  0.25914  0.63736  0.47405  1.0000
  C   C222      1.0  0.30061  0.69990  0.47423  1.0000
  H   H265      1.0  0.00089  0.64104  0.03215  1.0000
  Fe  Fe33      1.0  0.99149  0.60059  0.09592  1.0000
  C   C223      1.0  0.17910  0.50430  0.24488  1.0000
  H   H266      1.0  0.31228  0.49949  0.27484  1.0000
  H   H267      1.0  0.31980  0.95729  0.03769  1.0000
  C   C224      1.0  0.31812  0.93169  0.00589  1.0000
  S   S62       1.0  0.32144  0.64796  0.31787  1.0000
  C   C225      1.0  0.31205  0.96682  0.99698  1.0000
  H   H268      1.0  0.26074  0.78185  0.76396  1.0000
  C   C226      1.0  0.26681  0.56547  0.74947  1.0000
  H   H269      1.0  0.15264  0.50295  0.74838  1.0000
  N   N15       1.0  0.07923  0.68107  0.89505  1.0000
  Fe  Fe34      1.0  0.13230  0.86131  0.53268  1.0000
  S   S63       1.0  0.14637  0.86288  0.57774  1.0000
  S   S64       1.0  0.11555  0.88546  0.52146  1.0000
  H   H270      1.0  0.05674  0.59429  0.94735  1.0000
  Fe  Fe35      1.0  0.02136  0.62388  0.83420  1.0000
  S   S65       1.0  0.05905  0.64340  0.81247  1.0000
  H   H271      1.0  0.27217  0.74176  0.63037  1.0000
  S   S66       1.0  0.01803  0.60509  0.87587  1.0000
  Fe  Fe36      1.0  0.30123  0.63139  0.65750  1.0000
  S   S67       1.0  0.26940  0.59328  0.67115  1.0000
  C   C227      1.0  0.22391  0.55404  0.74450  1.0000
  H   H272      1.0  0.05001  0.65973  0.94099  1.0000
  S   S68       1.0  0.29050  0.64688  0.62090  1.0000
  Fe  Fe37      1.0  0.18967  0.78857  0.68458  1.0000
  S   S69       1.0  0.18578  0.80703  0.72312  1.0000
  S   S70       1.0  0.17215  0.78695  0.64149  1.0000
  Fe  Fe38      1.0  0.21667  0.76590  0.71747  1.0000
  S   S71       1.0  0.21334  0.78245  0.75843  1.0000
  S   S72       1.0  0.23662  0.74328  0.72175  1.0000
  Fe  Fe39      1.0  0.17419  0.76980  0.74434  1.0000
  S   S73       1.0  0.13888  0.75399  0.77040  1.0000
  Fe  Fe40      1.0  0.22519  0.81793  0.73404  1.0000
  S   S74       1.0  0.25600  0.85862  0.74423  1.0000
  S   S75       1.0  0.17670  0.75092  0.70527  1.0000
  S   S76       1.0  0.22986  0.80180  0.69354  1.0000
  C   C228      1.0  0.27817  0.71949  0.66091  1.0000
  C   C229      1.0  0.27422  0.71130  0.68862  1.0000
  C   C230      1.0  0.26146  0.71876  0.70680  1.0000
  C   C231      1.0  0.25231  0.73434  0.69757  1.0000
  C   C232      1.0  0.25631  0.74259  0.66987  1.0000
  C   C233      1.0  0.26919  0.73523  0.65171  1.0000
  H   H273      1.0  0.28100  0.69923  0.69607  1.0000
  H   H274      1.0  0.25850  0.71225  0.72817  1.0000
  H   H275      1.0  0.24947  0.75462  0.66243  1.0000
  C   C234      1.0  0.28617  0.81582  0.72620  1.0000
  C   C235      1.0  0.07644  0.61902  0.91350  1.0000
  H   H276      1.0  0.27968  0.94486  0.92071  1.0000
  C   C236      1.0  0.26824  0.51989  0.69398  1.0000
  C   C237      1.0  0.29087  0.54264  0.69233  1.0000
  C   C238      1.0  0.29166  0.56516  0.68452  1.0000
  C   C239      1.0  0.26975  0.56516  0.67851  1.0000
  C   C240      1.0  0.24717  0.54230  0.67965  1.0000
  C   C241      1.0  0.24641  0.51974  0.68716  1.0000
  S   S77       1.0  0.16149  0.87862  0.50017  1.0000
  H   H277      1.0  0.31268  0.79146  0.76830  1.0000
  H   H278      1.0  0.23015  0.54214  0.67504  1.0000
  C   C242      1.0  0.19702  0.98917  0.57655  1.0000
  C   C243      1.0  0.09899  0.68924  0.87400  1.0000
  H   H279      1.0  0.18305  0.98192  0.59237  1.0000
  C   C244      1.0  0.21543  0.82891  0.58344  1.0000
  C   C245      1.0  0.08068  0.67430  0.80058  1.0000
  C   C246      1.0  0.07695  0.69482  0.80353  1.0000
  C   C247      1.0  0.09494  0.71896  0.79423  1.0000
  C   C248      1.0  0.11686  0.72300  0.78172  1.0000
  C   C249      1.0  0.12062  0.70249  0.77891  1.0000
  C   C250      1.0  0.10269  0.67839  0.78831  1.0000
  H   H280      1.0  0.06015  0.69209  0.81278  1.0000
  H   H281      1.0  0.09177  0.73462  0.79653  1.0000
  H   H282      1.0  0.13736  0.70520  0.76950  1.0000
  H   H283      1.0  0.10590  0.66275  0.78600  1.0000
  C   C251      1.0  0.31182  0.90673  0.81483  1.0000
  H   H284      1.0  0.10318  0.70731  0.86396  1.0000
  S   S78       1.0  0.32151  0.63888  0.55899  1.0000
  C   C252      1.0  0.29518  0.88084  0.81880  1.0000
  C   C253      1.0  0.27776  0.86589  0.79777  1.0000
  C   C254      1.0  0.27679  0.87658  0.77227  1.0000
  C   C255      1.0  0.29331  0.90250  0.76841  1.0000
  C   C256      1.0  0.05273  0.62702  0.94688  1.0000
  H   H285      1.0  0.15448  0.82149  0.51330  1.0000
  H   H286      1.0  0.26510  0.84614  0.80133  1.0000
  H   H287      1.0  0.29275  0.91109  0.74888  1.0000
  C   C257      1.0  0.28788  0.56518  0.55756  1.0000
  C   C258      1.0  0.15211  0.84089  0.59585  1.0000
  C   C259      1.0  0.14591  0.81748  0.58427  1.0000
  C   C260      1.0  0.15197  0.80119  0.59867  1.0000
  C   C261      1.0  0.16411  0.80795  0.62496  1.0000
  C   C262      1.0  0.16968  0.83105  0.63695  1.0000
  C   C263      1.0  0.16374  0.84741  0.62244  1.0000
  H   H288      1.0  0.13651  0.81202  0.56418  1.0000
  H   H289      1.0  0.14742  0.78331  0.58925  1.0000
  H   H290      1.0  0.17894  0.83653  0.65716  1.0000
  H   H291      1.0  0.16848  0.86538  0.63176  1.0000
  C   C264      1.0  0.08246  0.64146  0.89978  1.0000
  N   N16       1.0  0.29632  0.81321  0.75344  1.0000
  C   C265      1.0  0.21591  0.52842  0.75063  1.0000
  C   C266      1.0  0.24455  0.52062  0.58289  1.0000
  C   C267      1.0  0.31064  0.91749  0.78950  1.0000
  H   H292      1.0  0.28106  0.79610  0.79324  1.0000
  H   H293      1.0  0.18425  0.94844  0.61077  1.0000
  H   H294      1.0  0.00774  0.53797  0.82520  1.0000
  C   C268      1.0  0.19676  0.82764  0.53744  1.0000
  H   H295      1.0  0.29839  0.73239  0.54760  1.0000
  C   C269      1.0  0.98964  0.79478  0.52503  1.0000
  H   H296      1.0  0.28623  0.57950  0.74808  1.0000
  H   H297      1.0  0.29358  0.77881  0.73794  1.0000
  C   C270      1.0  0.99928  0.63990  0.98683  1.0000
  C   C271      1.0  0.20558  0.81694  0.55768  1.0000
  H   H298      1.0  0.27618  0.82643  0.72856  1.0000
  C   C272      1.0  0.26978  0.66166  0.51046  1.0000
  C   C273      1.0  0.26757  0.57654  0.59234  1.0000
  H   H299      1.0  0.08285  0.60683  0.90544  1.0000
  C   C274      1.0  0.19744  0.93116  0.54904  1.0000
  C   C275      1.0  0.30711  0.79688  0.74857  1.0000
  C   C276      1.0  0.25962  0.54054  0.75544  1.0000
  H   H300      1.0  0.26198  0.57504  0.61457  1.0000
  H   H301      1.0  0.30092  0.82549  0.71056  1.0000
  N   N17       1.0  0.10149  0.75221  0.68707  1.0000
  C   C277      1.0  0.12390  0.76964  0.70356  1.0000
  C   C278      1.0  0.10913  0.74739  0.65958  1.0000
  C   C279      1.0  0.08737  0.76531  0.68166  1.0000
  C   C280      1.0  0.08745  0.72827  0.70244  1.0000
  C   C281      1.0  0.09778  0.71263  0.70718  1.0000
  C   C282      1.0  0.06368  0.72004  0.71361  1.0000
  C   C283      1.0  0.08496  0.68998  0.72164  1.0000
  C   C284      1.0  0.05116  0.69746  0.72835  1.0000
  C   C285      1.0  0.06176  0.68246  0.73232  1.0000
  H   H302      1.0  0.13606  0.76162  0.70741  1.0000
  H   H303      1.0  0.13527  0.78785  0.69264  1.0000
  H   H304      1.0  0.11912  0.77369  0.72454  1.0000
  H   H305      1.0  0.12316  0.74144  0.66167  1.0000
  H   H306      1.0  0.11802  0.76466  0.64655  1.0000
  H   H307      1.0  0.09305  0.73255  0.64751  1.0000
  H   H308      1.0  0.08260  0.77125  0.70150  1.0000
  H   H309      1.0  0.09833  0.78290  0.66949  1.0000
  H   H310      1.0  0.07015  0.75316  0.66932  1.0000
  H   H311      1.0  0.11614  0.71809  0.70032  1.0000
  H   H312      1.0  0.05446  0.73081  0.71158  1.0000
  H   H313      1.0  0.09342  0.67857  0.72542  1.0000
  H   H314      1.0  0.03324  0.69166  0.73712  1.0000
  H   H315      1.0  0.05225  0.66524  0.74427  1.0000
  H   H316      1.0  0.20456  0.79906  0.55451  1.0000
  C   C286      1.0  0.30910  0.96103  0.96841  1.0000
  H   H317      1.0  0.07201  0.69954  0.92929  1.0000
  C   C287      1.0  0.27542  0.52684  0.61800  1.0000
  H   H318      1.0  0.26682  0.81200  0.77690  1.0000
  H   H319      1.0  0.02941  0.81226  0.53015  1.0000
  H   H320      1.0  0.14783  0.96500  0.50990  1.0000
  C   C288      1.0  0.30980  0.69839  0.56383  1.0000
  C   C289      1.0  0.31143  0.91358  0.91906  1.0000
  S   S79       1.0  0.98939  0.58870  0.81514  1.0000
  H   H321      1.0  0.14971  0.79290  0.52909  1.0000
  H   H322      1.0  0.25051  0.56843  0.57917  1.0000
  H   H323      1.0  0.22120  0.82000  0.59904  1.0000
  C   C290      1.0  0.15842  0.80579  0.51121  1.0000
  H   H324      1.0  0.00430  0.65945  0.98497  1.0000
  C   C291      1.0  0.08721  0.70211  0.91550  1.0000
  C   C292      1.0  0.19252  0.94077  0.59618  1.0000
  H   H325      1.0  0.09339  0.67546  0.85643  1.0000
  H   H326      1.0  0.09350  0.72045  0.90492  1.0000
  H   H327      1.0  0.31658  0.59823  0.59578  1.0000
  H   H328      1.0  0.20822  0.87972  0.57608  1.0000
  C   C293      1.0  0.01443  0.81004  0.51666  1.0000
  C   C294      1.0  0.18350  0.49398  0.77673  1.0000
  H   H329      1.0  0.21736  0.93783  0.55266  1.0000
  H   H330      1.0  0.25480  0.59143  0.73815  1.0000
  C   C295      1.0  0.23054  0.49529  0.59044  1.0000
  H   H331      1.0  0.22896  0.50231  0.68798  1.0000
  H   H332      1.0  0.15903  0.93767  0.53831  1.0000
  H   H333      1.0  0.17529  0.53197  0.76451  1.0000
  Fe  Fe41      1.0  0.99218  0.61887  0.88722  1.0000
  C   C296      1.0  0.22080  0.98421  0.54023  1.0000
  C   C297      1.0  0.16239  0.93485  0.56061  1.0000
  N   N18       1.0  0.18955  0.50848  0.75034  1.0000
  H   H334      1.0  0.30975  0.51010  0.75379  1.0000
  C   C298      1.0  0.31523  0.92571  0.97732  1.0000
  S   S80       1.0  0.29424  0.71080  0.63695  1.0000
  H   H335      1.0  0.18347  0.92018  0.60058  1.0000
  C   C299      1.0  0.17230  0.51834  0.74740  1.0000
  C   C300      1.0  0.05651  0.67697  0.88042  1.0000
  C   C301      1.0  0.00843  0.50309  0.82335  1.0000
  H   H336      1.0  0.30913  0.58264  0.68391  1.0000
  H   H337      1.0  0.19417  0.93272  0.52635  1.0000
  C   C302      1.0  0.00068  0.51939  0.83392  1.0000
  H   H338      1.0  0.30630  0.97338  0.95471  1.0000
  H   H339      1.0  0.18706  0.91065  0.55376  1.0000
  H   H340      1.0  0.27112  0.55705  0.54389  1.0000
  H   H341      1.0  0.04077  0.62115  0.96484  1.0000
  H   H342      1.0  0.29794  0.55496  0.55305  1.0000
  H   H343      1.0  0.30286  0.57977  0.62605  1.0000
  C   C303      1.0  0.24902  0.57217  0.74392  1.0000
  C   C304      1.0  0.20818  0.86259  0.57055  1.0000
  S   S81       1.0  0.99738  0.63981  0.84652  1.0000
  C   C305      1.0  0.27539  0.80025  0.77276  1.0000
  H   H344      1.0  0.05029  0.66165  0.86451  1.0000
  C   C306      1.0  0.31068  0.94034  0.95763  1.0000
  H   H345      1.0  0.22374  0.86046  0.61015  1.0000
  C   C307      1.0  0.28483  0.68643  0.52159  1.0000
  H   H346      1.0  0.29585  0.87223  0.83824  1.0000
  N   N19       1.0  0.28559  0.69252  0.55170  1.0000
  S   S82       1.0  0.31843  0.66864  0.68069  1.0000
  C   C308      1.0  0.31504  0.83762  0.76606  1.0000
  C   C309      1.0  0.26751  0.53719  0.59635  1.0000
  C   C310      1.0  0.26606  0.67163  0.56807  1.0000
  H   H347      1.0  0.27842  0.59699  0.58734  1.0000
  N   N20       1.0  0.18911  0.94544  0.56646  1.0000
  H   H348      1.0  0.21248  0.94948  0.60180  1.0000
  H   H349      1.0  0.17421  0.52763  0.72687  1.0000
  H   H350      1.0  0.01666  0.76299  0.49815  1.0000
  H   H351      1.0  0.15175  0.91425  0.56482  1.0000
  S   S83       1.0  0.10609  0.82910  0.50445  1.0000
  H   H352      1.0  0.05943  0.69414  0.86930  1.0000
  H   H353      1.0  0.27254  0.79713  0.71699  1.0000
  C   C311      1.0  0.05846  0.64937  0.93323  1.0000
  C   C312      1.0  0.20247  0.97289  0.56101  1.0000
  C   C313      1.0  0.21682  0.85172  0.58981  1.0000
  H   H354      1.0  0.24732  0.66600  0.55969  1.0000
  N   N21       1.0  0.28207  0.56386  0.58772  1.0000
  H   H355      1.0  0.30788  0.54292  0.69743  1.0000
  H   H356      1.0  0.26543  0.71194  0.54477  1.0000
  H   H357      1.0  0.28019  0.92435  0.89460  1.0000
  C   C314      1.0  0.07387  0.65756  0.90951  1.0000
  H   H358      1.0  0.17852  0.77761  0.51919  1.0000
  H   H359      1.0  0.26666  0.67709  0.59045  1.0000
  H   H360      1.0  0.29974  0.58503  0.55065  1.0000
  H   H361      1.0  0.19052  0.85923  0.53126  1.0000
  C   C315      1.0  0.23458  0.52220  0.75584  1.0000
  H   H362      1.0  0.30749  0.61783  0.50366  1.0000
  N   N22       1.0  0.18527  0.81505  0.51044  1.0000
  N   N23       1.0  0.30794  0.93495  0.92716  1.0000
  C   C316      1.0  0.19809  0.85069  0.54486  1.0000
  H   H363      1.0  0.30943  0.91021  0.89599  1.0000
  H   H364      1.0  0.21125  0.56057  0.73945  1.0000
  S   S84       1.0  0.99645  0.63888  0.92911  1.0000
  H   H365      1.0  0.31212  0.86288  0.73556  1.0000
  H   H366      1.0  0.11643  0.69189  0.88358  1.0000
  H   H367      1.0  0.04095  0.67137  0.89503  1.0000
  H   H368      1.0  0.02146  0.50930  0.80648  1.0000
  H   H369      1.0  0.26841  0.91236  0.92879  1.0000
  H   H370      1.0  0.10270  0.70404  0.92902  1.0000
  C   C317      1.0  0.06169  0.61186  0.93704  1.0000
  H   H371      1.0  0.09336  0.64542  0.88123  1.0000
  C   C318      1.0  0.29886  0.49854  0.77178  1.0000
  H   H372      1.0  0.23726  0.52719  0.56643  1.0000
  H   H373      1.0  0.27353  0.53522  0.75855  1.0000
  H   H374      1.0  0.15418  0.94363  0.57364  1.0000
  H   H375      1.0  0.20834  0.79880  0.50415  1.0000
  C   C319      1.0  0.26131  0.50144  0.62526  1.0000
  H   H376      1.0  0.22563  0.97339  0.52660  1.0000
  C   C320      1.0  0.28295  0.92886  0.91744  1.0000
  Fe  Fe42      1.0  0.31032  0.68463  0.64240  1.0000
  H   H377      1.0  0.19004  0.50146  0.70633  1.0000
  H   H378      1.0  0.31331  0.72429  0.50962  1.0000
  H   H379      1.0  0.18872  0.50665  0.79534  1.0000
  H   H380      1.0  0.26848  0.65488  0.56837  1.0000
  H   H381      1.0  0.31169  0.70424  0.58614  1.0000
  C   C321      1.0  0.28253  0.71481  0.55555  1.0000
  H   H382      1.0  0.28131  0.71863  0.57813  1.0000
  H   H383      1.0  0.22996  0.50294  0.75930  1.0000
  H   H384      1.0  0.29749  0.89567  0.92878  1.0000
  C   C322      1.0  0.30586  0.57848  0.60335  1.0000
  H   H385      1.0  0.31218  0.68165  0.56286  1.0000
  H   H386      1.0  0.25793  0.64586  0.52332  1.0000
  C   C323      1.0  0.99458  0.62517  0.96244  1.0000
  C   C324      1.0  0.16460  0.98016  0.50136  1.0000
  H   H387      1.0  0.30455  0.51041  0.79108  1.0000
  C   C325      1.0  0.30045  0.70533  0.50258  1.0000
  H   H388      1.0  0.29231  0.53795  0.62990  1.0000
  C   C326      1.0  0.18845  0.79317  0.50408  1.0000
  H   H389      1.0  0.31794  0.57021  0.60066  1.0000
  C   C327      1.0  0.31880  0.63802  0.50153  1.0000
  H   H390      1.0  0.26766  0.49394  0.64189  1.0000
  H   H391      1.0  0.27938  0.49322  0.76682  1.0000
  H   H392      1.0  0.31722  0.90993  0.97121  1.0000
  C   C328      1.0  0.32098  0.86126  0.75435  1.0000
  Fe  Fe43      1.0  0.38447  0.02638  0.14784  1.0000
  C   C329      1.0  0.34645  0.49084  0.20815  1.0000
  S   S85       1.0  0.38627  0.06453  0.15254  1.0000
  S   S86       1.0  0.59277  0.99979  0.16264  1.0000
  S   S87       1.0  0.41138  0.02546  0.11757  1.0000
  C   C330      1.0  0.34931  0.44700  0.21090  1.0000
  S   S88       1.0  0.39338  0.00684  0.18153  1.0000
  Fe  Fe44      1.0  0.62498  0.02380  0.13467  1.0000
  H   H393      1.0  0.64560  0.02196  0.05970  1.0000
  H   H394      1.0  0.45867  0.48916  0.03158  1.0000
  H   H395      1.0  0.39148  0.37855  0.24396  1.0000
  C   C331      1.0  0.36367  0.48841  0.19219  1.0000
  S   S89       1.0  0.60078  0.01779  0.09642  1.0000
  Fe  Fe45      1.0  0.63148  0.31075  0.34495  1.0000
  H   H396      1.0  0.60709  0.49032  0.24083  1.0000
  S   S90       1.0  0.58996  0.28483  0.35175  1.0000
  H   H397      1.0  0.35929  0.13140  0.28234  1.0000
  C   C332      1.0  0.65165  0.06805  0.06141  1.0000
  Fe  Fe46      1.0  0.40757  0.20880  0.31185  1.0000
  S   S91       1.0  0.38362  0.18917  0.27422  1.0000
  S   S92       1.0  0.39704  0.20730  0.35786  1.0000
  Fe  Fe47      1.0  0.45508  0.23351  0.27709  1.0000
  S   S93       1.0  0.43421  0.21527  0.23685  1.0000
  S   S94       1.0  0.49626  0.26289  0.27595  1.0000
  Fe  Fe48      1.0  0.40676  0.22618  0.25174  1.0000
  S   S95       1.0  0.38735  0.24134  0.22330  1.0000
  Fe  Fe49      1.0  0.41287  0.17984  0.26206  1.0000
  S   S96       1.0  0.40451  0.13905  0.25593  1.0000
  S   S97       1.0  0.42872  0.24630  0.29037  1.0000
  S   S98       1.0  0.43574  0.19765  0.30129  1.0000
  Fe  Fe50      1.0  0.40220  0.37127  0.15773  1.0000
  S   S99       1.0  0.39878  0.40341  0.17569  1.0000
  S   S100      1.0  0.42065  0.35361  0.18355  1.0000
  Fe  Fe51      1.0  0.37910  0.37337  0.10124  1.0000
  S   S101      1.0  0.37282  0.40454  0.11560  1.0000
  S   S102      1.0  0.36957  0.35238  0.05933  1.0000
  Fe  Fe52      1.0  0.41154  0.42187  0.13383  1.0000
  S   S103      1.0  0.43648  0.46306  0.12259  1.0000
  Fe  Fe53      1.0  0.36048  0.38385  0.15639  1.0000
  S   S104      1.0  0.41822  0.39157  0.11736  1.0000
  S   S105      1.0  0.36351  0.35083  0.14054  1.0000
  C   C333      1.0  0.37039  0.36433  0.02517  1.0000
  C   C334      1.0  0.36980  0.38654  0.02074  1.0000
  C   C335      1.0  0.36069  0.09619  0.31527  1.0000
  H   H398      1.0  0.37010  0.39771  0.03838  1.0000
  C   C336      1.0  0.47668  0.47644  0.15826  1.0000
  C   C337      1.0  0.46714  0.48294  0.13521  1.0000
  C   C338      1.0  0.44163  0.28970  0.15957  1.0000
  C   C339      1.0  0.37991  0.31052  0.26233  1.0000
  H   H399      1.0  0.38861  0.23886  0.13629  1.0000
  H   H400      1.0  0.56987  0.32759  0.37898  1.0000
  H   H401      1.0  0.46544  0.45863  0.16850  1.0000
  C   C340      1.0  0.33188  0.44914  0.22681  1.0000
  C   C341      1.0  0.41067  0.32221  0.19468  1.0000
  C   C342      1.0  0.42634  0.31793  0.21235  1.0000
  C   C343      1.0  0.41953  0.29342  0.22142  1.0000
  C   C344      1.0  0.39689  0.27278  0.21286  1.0000
  C   C345      1.0  0.38113  0.27711  0.19538  1.0000
  C   C346      1.0  0.38791  0.30160  0.18635  1.0000
  H   H402      1.0  0.44400  0.33365  0.21892  1.0000
  H   H403      1.0  0.43188  0.29046  0.23482  1.0000
  H   H404      1.0  0.36356  0.26131  0.18871  1.0000
  H   H405      1.0  0.37553  0.30438  0.17286  1.0000
  C   C347      1.0  0.51637  0.00710  0.15389  1.0000
  H   H406      1.0  0.45605  0.29472  0.17531  1.0000
  C   C348      1.0  0.34371  0.17666  0.41712  1.0000
  C   C349      1.0  0.56471  0.27756  0.32858  1.0000
  C   C350      1.0  0.56694  0.29259  0.30560  1.0000
  C   C351      1.0  0.54589  0.28740  0.28934  1.0000
  C   C352      1.0  0.52245  0.26691  0.29549  1.0000
  C   C353      1.0  0.52043  0.25123  0.31772  1.0000
  C   C354      1.0  0.54135  0.25679  0.33442  1.0000
  H   H407      1.0  0.58476  0.30859  0.30079  1.0000
  H   H408      1.0  0.54774  0.29955  0.27206  1.0000
  H   H409      1.0  0.50276  0.23495  0.32217  1.0000
  H   H410      1.0  0.53945  0.24490  0.35197  1.0000
  H   H411      1.0  0.35028  0.42985  0.21162  1.0000
  C   C355      1.0  0.58251  0.26308  0.43013  1.0000
  H   H412      1.0  0.39397  0.14493  0.31252  1.0000
  H   H413      1.0  0.47706  0.06851  0.14587  1.0000
  H   H414      1.0  0.57008  0.27064  0.43464  1.0000
  C   C356      1.0  0.60588  0.00428  0.00868  1.0000
  C   C357      1.0  0.38943  0.36003  0.24976  1.0000
  H   H415      1.0  0.63406  0.47836  0.26467  1.0000
  H   H416      1.0  0.34225  0.13915  0.30638  1.0000
  C   C358      1.0  0.39051  0.08456  0.18173  1.0000
  C   C359      1.0  0.39404  0.10877  0.17683  1.0000
  C   C360      1.0  0.39840  0.12573  0.19913  1.0000
  C   C361      1.0  0.39914  0.11863  0.22675  1.0000
  C   C362      1.0  0.39555  0.09440  0.23167  1.0000
  C   C363      1.0  0.39127  0.07747  0.20937  1.0000
  H   H417      1.0  0.39351  0.11451  0.15557  1.0000
  H   H418      1.0  0.40110  0.14424  0.19490  1.0000
  H   H419      1.0  0.39614  0.08866  0.25290  1.0000
  H   H420      1.0  0.38855  0.05894  0.21358  1.0000
  C   C364      1.0  0.36641  0.19068  0.40334  1.0000
  C   C365      1.0  0.36774  0.18975  0.37402  1.0000
  C   C366      1.0  0.34599  0.17475  0.35858  1.0000
  H   H421      1.0  0.38306  0.20220  0.41556  1.0000
  H   H422      1.0  0.34659  0.17403  0.33606  1.0000
  C   C367      1.0  0.43268  0.42253  0.99893  1.0000
  H   H423      1.0  0.37401  0.10188  0.29780  1.0000
  H   H424      1.0  0.58223  0.26048  0.40699  1.0000
  N   N24       1.0  0.47120  0.26462  0.37228  1.0000
  C   C368      1.0  0.45814  0.27673  0.35931  1.0000
  C   C369      1.0  0.46763  0.24349  0.35407  1.0000
  C   C370      1.0  0.45912  0.25381  0.39930  1.0000
  C   C371      1.0  0.49797  0.28295  0.37506  1.0000
  C   C372      1.0  0.51171  0.29584  0.35121  1.0000
  C   C373      1.0  0.51141  0.28749  0.40074  1.0000
  C   C374      1.0  0.53725  0.31201  0.35286  1.0000
  C   C375      1.0  0.53703  0.30363  0.40208  1.0000
  C   C376      1.0  0.54994  0.31568  0.37814  1.0000
  H   H425      1.0  0.46401  0.28284  0.33752  1.0000
  H   H426      1.0  0.43780  0.26347  0.35788  1.0000
  H   H427      1.0  0.46141  0.29355  0.37161  1.0000
  H   H428      1.0  0.47358  0.24964  0.33229  1.0000
  H   H429      1.0  0.44793  0.22844  0.35266  1.0000
  H   H430      1.0  0.47832  0.23478  0.36214  1.0000
  H   H431      1.0  0.46123  0.26878  0.41412  1.0000
  H   H432      1.0  0.43887  0.24060  0.39639  1.0000
  H   H433      1.0  0.46656  0.24255  0.40923  1.0000
  H   H434      1.0  0.50300  0.29277  0.33076  1.0000
  H   H435      1.0  0.50265  0.27852  0.41997  1.0000
  H   H436      1.0  0.54738  0.32106  0.33414  1.0000
  H   H437      1.0  0.32489  0.33476  0.09117  1.0000
  N   N25       1.0  0.46632  0.09152  0.16934  1.0000
  C   C377      1.0  0.48516  0.08517  0.16032  1.0000
  C   C378      1.0  0.44657  0.06904  0.18336  1.0000
  C   C379      1.0  0.45575  0.09647  0.14379  1.0000
  C   C380      1.0  0.47611  0.11351  0.18858  1.0000
  C   C381      1.0  0.46026  0.12186  0.19877  1.0000
  C   C382      1.0  0.50118  0.12706  0.19795  1.0000
  C   C383      1.0  0.46882  0.14239  0.21714  1.0000
  C   C384      1.0  0.50962  0.14770  0.21626  1.0000
  C   C385      1.0  0.49348  0.15534  0.22583  1.0000
  H   H438      1.0  0.50039  0.10099  0.14890  1.0000
  H   H439      1.0  0.43023  0.07089  0.18789  1.0000
  H   H440      1.0  0.46970  0.11389  0.13325  1.0000
  H   H441      1.0  0.44883  0.08060  0.12843  1.0000
  H   H442      1.0  0.43960  0.09872  0.14831  1.0000
  H   H443      1.0  0.44102  0.11250  0.19262  1.0000
  H   H444      1.0  0.51463  0.12209  0.19149  1.0000
  H   H445      1.0  0.45617  0.14823  0.22469  1.0000
  H   H446      1.0  0.50784  0.48822  0.18653  1.0000
  H   H447      1.0  0.50007  0.17131  0.24003  1.0000
  C   C386      1.0  0.44073  0.44950  0.03944  1.0000
  C   C387      1.0  0.32333  0.16060  0.37238  1.0000
  H   H448      1.0  0.64238  0.28082  0.44420  1.0000
  C   C388      1.0  0.36063  0.31381  0.25088  1.0000
  S   S106      1.0  0.45622  0.01419  0.16848  1.0000
  C   C389      1.0  0.49952  0.01309  0.16594  1.0000
  C   C390      1.0  0.35817  0.33973  0.21419  1.0000
  C   C391      1.0  0.37607  0.28652  0.26820  1.0000
  C   C392      1.0  0.33396  0.26772  0.25156  1.0000
  H   H449      1.0  0.50392  0.02266  0.18601  1.0000
  C   C393      1.0  0.43126  0.42554  0.02774  1.0000
  H   H450      1.0  0.39126  0.13508  0.34789  1.0000
  H   H451      1.0  0.49295  0.07985  0.17841  1.0000
  H   H452      1.0  0.60418  0.01331  0.02725  1.0000
  H   H453      1.0  0.42250  0.40915  0.04107  1.0000
  H   H454      1.0  0.37841  0.46463  0.18110  1.0000
  H   H455      1.0  0.39116  0.28428  0.27613  1.0000
  H   H456      1.0  0.36500  0.13637  0.37958  1.0000
  C   C394      1.0  0.33000  0.11266  0.39669  1.0000
  C   C395      1.0  0.61622  0.30845  0.48392  1.0000
  H   H457      1.0  0.33541  0.12230  0.41681  1.0000
  C   C396      1.0  0.60741  0.28426  0.47153  1.0000
  H   H458      1.0  0.64938  0.06748  0.08453  1.0000
  C   C397      1.0  0.40358  0.25824  0.13765  1.0000
  N   N26       1.0  0.36394  0.33887  0.24421  1.0000
  N   N27       1.0  0.42195  0.32136  0.10404  1.0000
  C   C398      1.0  0.42227  0.31450  0.07435  1.0000
  C   C399      1.0  0.39906  0.32225  0.10872  1.0000
  C   C400      1.0  0.44316  0.34725  0.10874  1.0000
  C   C401      1.0  0.42251  0.30228  0.12251  1.0000
  C   C402      1.0  0.44161  0.30831  0.14275  1.0000
  C   C403      1.0  0.40349  0.27662  0.12049  1.0000
  H   H459      1.0  0.40564  0.29635  0.06827  1.0000
  H   H460      1.0  0.42268  0.32891  0.05985  1.0000
  H   H461      1.0  0.43875  0.31268  0.07022  1.0000
  H   H462      1.0  0.38208  0.30408  0.10375  1.0000
  H   H463      1.0  0.39818  0.33665  0.09539  1.0000
  H   H464      1.0  0.39804  0.32705  0.13089  1.0000
  H   H465      1.0  0.46108  0.34822  0.10483  1.0000
  H   H466      1.0  0.44222  0.36114  0.09458  1.0000
  H   H467      1.0  0.44350  0.35402  0.13048  1.0000
  H   H468      1.0  0.45652  0.32731  0.14650  1.0000
  H   H469      1.0  0.38825  0.27059  0.10582  1.0000
  N   N28       1.0  0.60789  0.28033  0.44101  1.0000
  C   C404      1.0  0.62339  0.26890  0.43539  1.0000
  H   H470      1.0  0.36807  0.08993  0.33288  1.0000
  C   C405      1.0  0.61799  0.30393  0.42469  1.0000
  H   H471      1.0  0.38021  0.15597  0.33693  1.0000
  H   H472      1.0  0.63333  0.05464  0.05179  1.0000
  C   C406      1.0  0.34636  0.12418  0.30020  1.0000
  Fe  Fe54      1.0  0.41827  0.00361  0.15051  1.0000
  C   C407      1.0  0.34685  0.12061  0.37489  1.0000
  C   C408      1.0  0.45148  0.47057  0.02235  1.0000
  H   H473      1.0  0.61577  0.24985  0.44449  1.0000
  H   H474      1.0  0.62520  0.26680  0.41254  1.0000
  H   H475      1.0  0.53358  0.01208  0.16460  1.0000
  H   H476      1.0  0.63742  0.31754  0.43085  1.0000
  H   H477      1.0  0.61829  0.30030  0.40195  1.0000
  H   H478      1.0  0.60671  0.31314  0.42694  1.0000
  C   C409      1.0  0.35327  0.26518  0.26259  1.0000
  S   S107      1.0  0.65327  0.34732  0.36911  1.0000
  C   C410      1.0  0.38162  0.13923  0.33084  1.0000
  H   H479      1.0  0.32721  0.32961  0.25635  1.0000
  H   H480      1.0  0.43958  0.45174  0.06180  1.0000
  H   H481      1.0  0.37184  0.01729  0.04002  1.0000
  C   C411      1.0  0.33747  0.29164  0.24590  1.0000
  H   H482      1.0  0.34927  0.36240  0.25701  1.0000
  C   C412      1.0  0.33008  0.47133  0.22610  1.0000
  C   C413      1.0  0.42264  0.26476  0.15710  1.0000
  C   C414      1.0  0.47709  0.00678  0.15223  1.0000
  H   H483      1.0  0.43970  0.05189  0.17004  1.0000
  H   H484      1.0  0.34306  0.17737  0.43968  1.0000
  H   H485      1.0  0.42230  0.25058  0.17091  1.0000
  H   H486      1.0  0.57427  0.24396  0.43924  1.0000
  H   H487      1.0  0.54702  0.30657  0.42171  1.0000
  H   H488      1.0  0.36147  0.35866  0.20821  1.0000
  S   S108      1.0  0.32774  0.37392  0.18494  1.0000
  N   N29       1.0  0.35694  0.11716  0.32416  1.0000
  H   H489      1.0  0.45336  0.06531  0.20341  1.0000
  H   H490      1.0  0.40315  0.35800  0.23715  1.0000
  H   H491      1.0  0.33857  0.32629  0.20855  1.0000
  H   H492      1.0  0.36988  0.33534  0.20079  1.0000
  H   H493      1.0  0.39832  0.32606  0.26634  1.0000
  H   H494      1.0  0.52880  0.15784  0.22315  1.0000
  C   C415      1.0  0.36513  0.46654  0.19360  1.0000
  H   H495      1.0  0.39473  0.36136  0.27227  1.0000
  C   C416      1.0  0.37401  0.00823  0.02176  1.0000
  H   H496      1.0  0.35015  0.34226  0.28390  1.0000
  H   H497      1.0  0.35079  0.24661  0.26623  1.0000
  H   H498      1.0  0.62416  0.32552  0.47186  1.0000
  C   C417      1.0  0.59813  0.26345  0.48995  1.0000
  H   H499      1.0  0.59129  0.24453  0.48212  1.0000
  C   C418      1.0  0.33981  0.10903  0.34795  1.0000
  C   C419      1.0  0.34692  0.34345  0.26114  1.0000
  H   H500      1.0  0.34332  0.07954  0.30756  1.0000
  H   H501      1.0  0.37079  0.33316  0.00486  1.0000
  H   H502      1.0  0.33496  0.37607  0.06895  1.0000
  H   H503      1.0  0.64412  0.07429  0.19028  1.0000
  C   C420      1.0  0.51089  0.99471  0.12795  1.0000
  H   H504      1.0  0.32904  0.10801  0.29172  1.0000
  C   C421      1.0  0.37045  0.35044  0.00177  1.0000
  S   S109      1.0  0.65430  0.29451  0.36135  1.0000
  H   H505      1.0  0.32194  0.29260  0.23728  1.0000
  C   C422      1.0  0.47158  0.99432  0.12637  1.0000
  S   S110      1.0  0.65472  0.32537  0.30669  1.0000
  C   C423      1.0  0.32199  0.16138  0.40173  1.0000
  Fe  Fe55      1.0  0.39457  0.02238  0.83288  1.0000
  S   S111      1.0  0.40569  0.05100  0.79690  1.0000
  S   S112      1.0  0.41735  0.03230  0.87258  1.0000
  C   C424      1.0  0.37319  0.26446  0.66441  1.0000
  S   S113      1.0  0.59797  0.02355  0.84681  1.0000
  H   H506      1.0  0.41124  0.43805  0.94096  1.0000
  Fe  Fe56      1.0  0.62407  0.01796  0.81985  1.0000
  H   H507      1.0  0.35123  0.16325  0.65350  1.0000
  H   H508      1.0  0.34965  0.34077  0.76058  1.0000
  C   C425      1.0  0.36852  0.39425  0.99328  1.0000
  Fe  Fe57      1.0  0.63142  0.30905  0.63283  1.0000
  S   S114      1.0  0.58914  0.28491  0.63177  1.0000
  H   H509      1.0  0.33298  0.23011  0.69103  1.0000
  Fe  Fe58      1.0  0.41320  0.19931  0.67977  1.0000
  S   S115      1.0  0.38930  0.19394  0.71689  1.0000
  S   S116      1.0  0.40208  0.19259  0.63323  1.0000
  Fe  Fe59      1.0  0.46142  0.22506  0.71519  1.0000
  S   S117      1.0  0.44046  0.22214  0.75428  1.0000
  S   S118      1.0  0.50326  0.24262  0.72227  1.0000
  Fe  Fe60      1.0  0.41393  0.18221  0.73987  1.0000
  S   S119      1.0  0.40117  0.15200  0.77423  1.0000
  Fe  Fe61      1.0  0.41772  0.23405  0.72880  1.0000
  S   S120      1.0  0.40974  0.26659  0.73533  1.0000
  S   S121      1.0  0.43578  0.18476  0.70179  1.0000
  S   S122      1.0  0.44076  0.23984  0.69062  1.0000
  Fe  Fe62      1.0  0.38217  0.35198  0.84507  1.0000
  S   S123      1.0  0.39804  0.38501  0.81613  1.0000
  S   S124      1.0  0.37724  0.31288  0.83569  1.0000
  Fe  Fe63      1.0  0.37404  0.38223  0.89188  1.0000
  S   S125      1.0  0.38848  0.41671  0.86474  1.0000
  S   S126      1.0  0.36529  0.39025  0.93587  1.0000
  Fe  Fe64      1.0  0.36611  0.39007  0.82946  1.0000
  Fe  Fe65      1.0  0.41864  0.40878  0.85397  1.0000
  S   S127      1.0  0.45964  0.43563  0.86301  1.0000
  S   S128      1.0  0.34946  0.35603  0.85721  1.0000
  S   S129      1.0  0.40487  0.37517  0.88216  1.0000
  C   C426      1.0  0.47833  0.46752  0.85317  1.0000
  S   S130      1.0  0.37304  0.01657  0.93691  1.0000
  S   S131      1.0  0.60848  0.01644  0.92461  1.0000
  H   H510      1.0  0.48629  0.03311  0.73785  1.0000
  H   H511      1.0  0.45124  0.46880  0.82617  1.0000
  C   C427      1.0  0.62002  0.33878  0.69198  1.0000
  C   C428      1.0  0.36840  0.38027  0.96987  1.0000
  C   C429      1.0  0.36980  0.35850  0.97428  1.0000
  H   H512      1.0  0.46123  0.48469  0.98112  1.0000
  H   H513      1.0  0.36957  0.34744  0.95653  1.0000
  C   C430      1.0  0.38807  0.30121  0.80827  1.0000
  C   C431      1.0  0.38550  0.27715  0.81086  1.0000
  C   C432      1.0  0.39264  0.26653  0.78922  1.0000
  C   C433      1.0  0.40205  0.27965  0.76433  1.0000
  C   C434      1.0  0.40441  0.30363  0.76164  1.0000
  C   C435      1.0  0.39773  0.31446  0.78349  1.0000
  H   H514      1.0  0.37794  0.26660  0.82980  1.0000
  H   H515      1.0  0.39051  0.24803  0.79167  1.0000
  H   H516      1.0  0.41167  0.31402  0.74255  1.0000
  H   H517      1.0  0.39991  0.33297  0.78105  1.0000
  C   C436      1.0  0.56565  0.27250  0.65746  1.0000
  C   C437      1.0  0.57096  0.27400  0.68616  1.0000
  C   C438      1.0  0.55167  0.26472  0.70564  1.0000
  C   C439      1.0  0.52681  0.25360  0.69673  1.0000
  C   C440      1.0  0.52146  0.25164  0.66802  1.0000
  C   C441      1.0  0.54076  0.26103  0.64857  1.0000
  H   H518      1.0  0.58988  0.28207  0.69334  1.0000
  H   H519      1.0  0.55604  0.26620  0.72776  1.0000
  H   H520      1.0  0.50247  0.24301  0.66078  1.0000
  H   H521      1.0  0.53636  0.25955  0.62644  1.0000
  H   H522      1.0  0.51606  0.99824  0.99172  1.0000
  C   C442      1.0  0.56922  0.32915  0.67501  1.0000
  C   C443      1.0  0.38296  0.23127  0.66371  1.0000
  H   H523      1.0  0.44899  0.40763  0.95235  1.0000
  C   C444      1.0  0.33175  0.46220  0.78901  1.0000
  H   H524      1.0  0.36759  0.41120  0.99013  1.0000
  C   C445      1.0  0.64940  0.12092  0.82332  1.0000
  C   C446      1.0  0.40322  0.07844  0.79066  1.0000
  C   C447      1.0  0.41250  0.09180  0.76562  1.0000
  C   C448      1.0  0.41169  0.11399  0.75997  1.0000
  C   C449      1.0  0.40177  0.12338  0.77945  1.0000
  C   C450      1.0  0.39230  0.10987  0.80436  1.0000
  C   C451      1.0  0.39294  0.08758  0.80993  1.0000
  H   H525      1.0  0.42022  0.08485  0.75035  1.0000
  H   H526      1.0  0.41853  0.12366  0.74042  1.0000
  H   H527      1.0  0.38445  0.11677  0.81957  1.0000
  H   H528      1.0  0.38565  0.07760  0.82924  1.0000
  C   C452      1.0  0.62518  0.37351  0.72001  1.0000
  H   H529      1.0  0.37569  0.21064  0.66353  1.0000
  H   H530      1.0  0.58264  0.35298  0.74181  1.0000
  C   C453      1.0  0.37102  0.18025  0.58707  1.0000
  C   C454      1.0  0.37246  0.17834  0.61632  1.0000
  C   C455      1.0  0.35051  0.16521  0.63110  1.0000
  H   H531      1.0  0.38786  0.19028  0.57540  1.0000
  H   H532      1.0  0.61237  0.38738  0.67152  1.0000
  C   C456      1.0  0.54688  0.32841  0.72529  1.0000
  N   N30       1.0  0.36250  0.23674  0.66336  1.0000
  C   C457      1.0  0.32752  0.15409  0.61677  1.0000
  C   C458      1.0  0.34844  0.22624  0.68943  1.0000
  N   N31       1.0  0.46826  0.04251  0.78562  1.0000
  C   C459      1.0  0.32684  0.48188  0.78285  1.0000
  C   C460      1.0  0.46329  0.04651  0.81490  1.0000
  C   C461      1.0  0.47140  0.06428  0.76903  1.0000
  C   C462      1.0  0.49036  0.03983  0.78300  1.0000
  C   C463      1.0  0.50579  0.04198  0.80623  1.0000
  C   C464      1.0  0.34463  0.22478  0.58606  1.0000
  C   C465      1.0  0.50081  0.00239  0.87091  1.0000
  H   H533      1.0  0.39526  0.23907  0.64548  1.0000
  C   C466      1.0  0.61570  0.31141  0.51289  1.0000
  S   S132      1.0  0.63327  0.99827  0.85379  1.0000
  Fe  Fe66      1.0  0.42042  0.99794  0.86424  1.0000
  H   H534      1.0  0.33416  0.29519  0.74894  1.0000
  H   H535      1.0  0.46000  0.03037  0.82834  1.0000
  H   H536      1.0  0.44645  0.04812  0.81634  1.0000
  H   H537      1.0  0.47869  0.06411  0.82423  1.0000
  H   H538      1.0  0.47306  0.06171  0.74633  1.0000
  H   H539      1.0  0.45521  0.06707  0.77111  1.0000
  H   H540      1.0  0.48823  0.08195  0.77598  1.0000
  C   C467      1.0  0.60561  0.01401  0.98204  1.0000
  H   H541      1.0  0.62304  0.33009  0.52200  1.0000
  H   H542      1.0  0.63987  0.38521  0.66879  1.0000
  C   C468      1.0  0.32606  0.15597  0.58752  1.0000
  H   H543      1.0  0.54426  0.01114  0.91794  1.0000
  H   H544      1.0  0.50218  0.04539  0.82732  1.0000
  H   H545      1.0  0.42902  0.02062  0.77720  1.0000
  C   C469      1.0  0.53157  0.03289  0.77690  1.0000
  C   C470      1.0  0.37564  0.00544  0.97060  1.0000
  H   H546      1.0  0.35870  0.45160  0.80022  1.0000
  C   C471      1.0  0.37335  0.01723  0.99474  1.0000
  H   H547      1.0  0.47918  0.47793  0.94474  1.0000
  H   H548      1.0  0.50633  0.01274  0.89052  1.0000
  C   C472      1.0  0.53243  0.31441  0.70243  1.0000
  H   H549      1.0  0.43181  0.44738  0.91194  1.0000
  C   C473      1.0  0.46984  0.47924  0.83472  1.0000
  C   C474      1.0  0.51711  0.99652  0.85745  1.0000
  Fe  Fe67      1.0  0.60494  0.00123  0.87984  1.0000
  C   C475      1.0  0.45301  0.46779  0.99352  1.0000
  N   N32       1.0  0.48018  0.18246  0.78351  1.0000
  C   C476      1.0  0.46964  0.17462  0.75488  1.0000
  C   C477      1.0  0.47466  0.20209  0.79306  1.0000
  C   C478      1.0  0.50743  0.19440  0.78217  1.0000
  C   C479      1.0  0.46999  0.16013  0.80187  1.0000
  C   C480      1.0  0.45498  0.15721  0.82522  1.0000
  C   C481      1.0  0.47455  0.14013  0.79624  1.0000
  C   C482      1.0  0.44555  0.13577  0.84194  1.0000
  C   C483      1.0  0.46485  0.11870  0.81301  1.0000
  C   C484      1.0  0.45043  0.11655  0.83584  1.0000
  H   H550      1.0  0.47716  0.19089  0.74036  1.0000
  H   H551      1.0  0.47352  0.16046  0.74554  1.0000
  H   H552      1.0  0.44927  0.16622  0.75489  1.0000
  H   H553      1.0  0.45437  0.19477  0.79303  1.0000
  H   H554      1.0  0.48275  0.21872  0.77897  1.0000
  H   H555      1.0  0.48231  0.20917  0.81441  1.0000
  H   H556      1.0  0.51324  0.18194  0.77217  1.0000
  H   H557      1.0  0.51558  0.21191  0.76938  1.0000
  H   H558      1.0  0.51604  0.19960  0.80345  1.0000
  H   H559      1.0  0.44959  0.17081  0.83060  1.0000
  H   H560      1.0  0.48513  0.14067  0.77839  1.0000
  H   H561      1.0  0.43354  0.13358  0.85912  1.0000
  H   H562      1.0  0.46780  0.10328  0.80789  1.0000
  H   H563      1.0  0.44222  0.09954  0.84823  1.0000
  C   C485      1.0  0.47750  0.99524  0.85907  1.0000
  H   H564      1.0  0.34169  0.28955  0.78326  1.0000
  C   C486      1.0  0.54491  0.00756  0.94066  1.0000
  H   H565      1.0  0.44165  0.41436  0.91845  1.0000
  S   S133      1.0  0.34501  0.39665  0.79353  1.0000
  H   H566      1.0  0.57695  0.32773  0.65548  1.0000
  H   H567      1.0  0.34722  0.17087  0.55029  1.0000
  H   H568      1.0  0.32735  0.30010  0.82402  1.0000
  H   H569      1.0  0.58049  0.48281  0.79822  1.0000
  H   H570      1.0  0.39488  0.23927  0.68270  1.0000
  S   S134      1.0  0.64866  0.04421  0.78508  1.0000
  S   S135      1.0  0.45811  0.00356  0.87692  1.0000
  H   H571      1.0  0.38641  0.27411  0.64732  1.0000
  C   C487      1.0  0.34800  0.16921  0.57274  1.0000
  C   C488      1.0  0.47251  0.45752  0.94215  1.0000
  C   C489      1.0  0.43848  0.41522  0.94118  1.0000
  H   H572      1.0  0.60407  0.03073  0.98044  1.0000
  H   H573      1.0  0.35347  0.23085  0.56601  1.0000
  H   H574      1.0  0.63756  0.10566  0.83704  1.0000
  C   C490      1.0  0.49696  0.03475  0.75651  1.0000
  H   H575      1.0  0.53514  0.00239  0.86648  1.0000
  H   H576      1.0  0.52142  0.02651  0.73338  1.0000
  C   C491      1.0  0.60764  0.00250  0.95752  1.0000
  H   H577      1.0  0.44346  0.00246  0.78626  1.0000
  C   C492      1.0  0.43098  0.44952  0.93502  1.0000
  C   C493      1.0  0.44403  0.44370  0.98095  1.0000
  H   H578      1.0  0.37085  0.03333  0.99253  1.0000
  H   H579      1.0  0.38381  0.27276  0.68431  1.0000
  N   N33       1.0  0.44639  0.44134  0.95045  1.0000
  C   C494      1.0  0.34745  0.22621  0.63743  1.0000
  H   H580      1.0  0.48496  0.45306  0.95457  1.0000
  H   H581      1.0  0.53230  0.30364  0.65971  1.0000
  C   C495      1.0  0.35831  0.23463  0.61087  1.0000
  H   H582      1.0  0.60658  0.29310  0.55282  1.0000
  C   C496      1.0  0.57258  0.34293  0.72318  1.0000
  H   H583      1.0  0.43694  0.46959  0.93916  1.0000
  C   C497      1.0  0.61936  0.37396  0.67051  1.0000
  C   C498      1.0  0.34393  0.33386  0.78222  1.0000
  N   N34       1.0  0.61178  0.35737  0.69534  1.0000
  H   H584      1.0  0.61417  0.32556  0.70987  1.0000
  C   C499      1.0  0.58457  0.34366  0.69786  1.0000
  H   H585      1.0  0.53831  0.01886  0.95188  1.0000
  H   H586      1.0  0.50935  0.47239  0.87826  1.0000
  H   H587      1.0  0.35953  0.33315  0.79273  1.0000
  H   H588      1.0  0.56467  0.01527  0.94670  1.0000
  H   H589      1.0  0.53728  0.03972  0.82107  1.0000
  H   H590      1.0  0.47509  0.45492  0.91962  1.0000
  H   H591      1.0  0.62232  0.36212  0.73913  1.0000
  H   H592      1.0  0.61232  0.32724  0.67258  1.0000
  H   H593      1.0  0.36041  0.23461  0.70846  1.0000
  C   C500      1.0  0.52615  0.03873  0.80299  1.0000
  C   C501      1.0  0.56730  0.48863  0.79055  1.0000
  H   H594      1.0  0.34104  0.20554  0.69071  1.0000
  H   H595      1.0  0.61259  0.36322  0.65053  1.0000
  H   H596      1.0  0.35846  0.26948  0.66278  1.0000
  C   C502      1.0  0.50261  0.48133  0.86400  1.0000
  H   H597      1.0  0.55047  0.47806  0.80340  1.0000
  C   C503      1.0  0.59777  0.26666  0.51889  1.0000
  H   H598      1.0  0.51259  0.30256  0.70438  1.0000
  Fe  Fe68      1.0  0.38224  0.00592  0.89463  1.0000
  C   C504      1.0  0.60659  0.29060  0.53033  1.0000
  S   S136      1.0  0.35865  0.99858  0.85542  1.0000
  H   H599      1.0  0.53806  0.32757  0.74490  1.0000
  H   H600      1.0  0.64556  0.38418  0.71687  1.0000
  H   H601      1.0  0.61950  0.38770  0.72400  1.0000
  H   H602      1.0  0.37766  0.24845  0.60906  1.0000
  C   C505      1.0  0.44608  0.01942  0.77484  1.0000
  C   C506      1.0  0.54356  0.31503  0.67727  1.0000
  H   H603      1.0  0.64044  0.34811  0.69082  1.0000
  H   H604      1.0  0.59082  0.25055  0.53263  1.0000
  H   H605      1.0  0.56214  0.48197  0.76850  1.0000
  H   H606      1.0  0.34191  0.34849  0.79352  1.0000
  H   H607      1.0  0.41833  0.40230  0.94413  1.0000
  H   H608      1.0  0.64645  0.09602  0.79004  1.0000
  H   H609      1.0  0.63018  0.99794  0.75388  1.0000
  C   C507      1.0  0.32698  0.29027  0.77053  1.0000
  C   C508      1.0  0.37521  0.49178  0.79650  1.0000
  H   H610      1.0  0.54675  0.02929  0.77489  1.0000
  H   H611      1.0  0.42446  0.40339  0.99125  1.0000
  C   C509      1.0  0.51714  0.03112  0.75364  1.0000
  S   S137      1.0  0.65294  0.30254  0.59961  1.0000
  S   S138      1.0  0.64721  0.34977  0.62141  1.0000
  C   C510      1.0  0.35554  0.46711  0.79572  1.0000
  H   H612      1.0  0.44708  0.01606  0.75223  1.0000
  C   C511      1.0  0.65442  0.11552  0.79678  1.0000
  H   H613      1.0  0.65426  0.00116  0.79415  1.0000
  C   C512      1.0  0.32204  0.20729  0.63757  1.0000
  H   H614      1.0  0.61652  0.78601  0.35504  1.0000
  S   S139      1.0  0.38855  0.96595  0.13445  1.0000
  C   C513      1.0  0.40485  0.95310  0.20878  1.0000
  Fe  Fe69      1.0  0.36283  0.97013  0.16345  1.0000
  C   C514      1.0  0.41851  0.92354  0.21897  1.0000
  H   H615      1.0  0.32194  0.90970  0.24587  1.0000
  S   S140      1.0  0.57093  0.95715  0.11171  1.0000
  Fe  Fe70      1.0  0.59682  0.96673  0.14864  1.0000
  S   S141      1.0  0.60246  0.94078  0.17892  1.0000
  Fe  Fe71      1.0  0.63227  0.60791  0.15769  1.0000
  S   S142      1.0  0.59948  0.60570  0.17922  1.0000
  C   C515      1.0  0.34430  0.87582  0.15563  1.0000
  Fe  Fe72      1.0  0.60753  0.59974  0.09915  1.0000
  S   S143      1.0  0.57275  0.59643  0.11650  1.0000
  S   S144      1.0  0.61505  0.59147  0.05454  1.0000
  Fe  Fe73      1.0  0.59799  0.62961  0.14458  1.0000
  S   S145      1.0  0.58970  0.66203  0.14823  1.0000
  Fe  Fe74      1.0  0.57617  0.57285  0.15021  1.0000
  S   S146      1.0  0.54534  0.53740  0.16998  1.0000
  S   S147      1.0  0.63265  0.63452  0.12473  1.0000
  S   S148      1.0  0.60909  0.57348  0.13128  1.0000
  H   H616      1.0  0.62091  0.92329  0.05472  1.0000
  C   C516      1.0  0.63197  0.80276  0.36402  1.0000
  S   S149      1.0  0.35260  0.69670  0.35926  1.0000
  H   H617      1.0  0.32737  0.86150  0.14557  1.0000
  Fe  Fe75      1.0  0.35778  0.66582  0.34168  1.0000
  S   S150      1.0  0.39085  0.67122  0.31635  1.0000
  S   S151      1.0  0.34147  0.64031  0.37891  1.0000
  Fe  Fe76      1.0  0.53534  0.76966  0.29012  1.0000
  S   S152      1.0  0.53540  0.76017  0.24466  1.0000
  S   S153      1.0  0.50349  0.76085  0.31960  1.0000
  Fe  Fe77      1.0  0.59227  0.80230  0.29335  1.0000
  S   S154      1.0  0.59626  0.79557  0.24773  1.0000
  S   S155      1.0  0.62563  0.82958  0.32063  1.0000
  Fe  Fe78      1.0  0.56395  0.80166  0.23979  1.0000
  S   S156      1.0  0.55876  0.82305  0.20327  1.0000
  Fe  Fe79      1.0  0.56776  0.75488  0.25575  1.0000
  S   S157      1.0  0.57279  0.72048  0.24920  1.0000
  S   S158      1.0  0.56203  0.81115  0.28458  1.0000
  S   S159      1.0  0.56564  0.76170  0.30194  1.0000
  H   H618      1.0  0.63840  0.85805  0.41644  1.0000
  S   S160      1.0  0.35184  0.98997  0.13129  1.0000
  H   H619      1.0  0.38556  0.74793  0.32991  1.0000
  C   C517      1.0  0.47227  0.73570  0.31828  1.0000
  C   C518      1.0  0.46395  0.71574  0.29908  1.0000
  C   C519      1.0  0.43906  0.69614  0.29897  1.0000
  C   C520      1.0  0.42213  0.69621  0.31795  1.0000
  C   C521      1.0  0.43039  0.71629  0.33698  1.0000
  C   C522      1.0  0.45531  0.73584  0.33717  1.0000
  H   H620      1.0  0.47671  0.71533  0.28440  1.0000
  H   H621      1.0  0.43287  0.68077  0.28409  1.0000
  H   H622      1.0  0.41763  0.71667  0.35169  1.0000
  H   H623      1.0  0.46148  0.75118  0.35208  1.0000
  C   C523      1.0  0.61082  0.60121  0.02072  1.0000
  C   C524      1.0  0.60507  0.62029  0.01695  1.0000
  C   C525      1.0  0.60545  0.85206  0.15145  1.0000
  H   H624      1.0  0.60261  0.62936  0.03501  1.0000
  H   H625      1.0  0.40498  0.79153  0.27798  1.0000
  C   C526      1.0  0.58637  0.67878  0.17686  1.0000
  C   C527      1.0  0.58324  0.69954  0.17123  1.0000
  C   C528      1.0  0.57957  0.71287  0.19300  1.0000
  C   C529      1.0  0.57871  0.70542  0.22079  1.0000
  C   C530      1.0  0.58207  0.68481  0.22646  1.0000
  C   C531      1.0  0.58596  0.67163  0.20473  1.0000
  H   H626      1.0  0.58352  0.70529  0.14981  1.0000
  H   H627      1.0  0.57700  0.72861  0.18819  1.0000
  H   H628      1.0  0.58136  0.67877  0.24782  1.0000
  H   H629      1.0  0.58840  0.65582  0.20954  1.0000
  C   C532      1.0  0.50624  0.52291  0.13214  1.0000
  C   C533      1.0  0.51565  0.51654  0.15545  1.0000
  H   H630      1.0  0.51754  0.54069  0.12187  1.0000
  H   H631      1.0  0.36569  0.90184  0.21950  1.0000
  H   H632      1.0  0.55538  0.94969  0.02332  1.0000
  H   H633      1.0  0.60255  0.83687  0.16532  1.0000
  C   C534      1.0  0.56971  0.85591  0.19861  1.0000
  C   C535      1.0  0.55933  0.86343  0.17701  1.0000
  C   C536      1.0  0.56846  0.88918  0.17120  1.0000
  C   C537      1.0  0.58860  0.90790  0.18654  1.0000
  C   C538      1.0  0.59876  0.90037  0.20837  1.0000
  C   C539      1.0  0.58931  0.87463  0.21453  1.0000
  H   H634      1.0  0.54414  0.84918  0.16458  1.0000
  H   H635      1.0  0.55991  0.89443  0.15484  1.0000
  H   H636      1.0  0.61423  0.91457  0.22053  1.0000
  H   H637      1.0  0.59760  0.86927  0.23115  1.0000
  S   S161      1.0  0.37418  0.97263  0.05816  1.0000
  H   H638      1.0  0.41474  0.72617  0.27821  1.0000
  N   N35       1.0  0.41050  0.93448  0.19632  1.0000
  H   H639      1.0  0.43594  0.93812  0.22939  1.0000
  H   H640      1.0  0.42180  0.90859  0.21056  1.0000
  H   H641      1.0  0.42154  0.96948  0.21834  1.0000
  H   H642      1.0  0.44884  0.81802  0.26787  1.0000
  C   C540      1.0  0.59337  0.86663  0.11048  1.0000
  C   C541      1.0  0.48841  0.98835  0.11434  1.0000
  H   H643      1.0  0.58090  0.86176  0.09273  1.0000
  H   H644      1.0  0.32860  0.86854  0.19649  1.0000
  H   H645      1.0  0.43738  0.93557  0.16763  1.0000
  H   H646      1.0  0.57610  0.82776  0.12326  1.0000
  S   S162      1.0  0.63000  0.99121  0.12274  1.0000
  C   C542      1.0  0.45604  0.78738  0.26741  1.0000
  H   H647      1.0  0.40209  0.92052  0.13908  1.0000
  C   C543      1.0  0.63560  0.73847  0.28438  1.0000
  N   N36       1.0  0.37863  0.74034  0.28578  1.0000
  C   C544      1.0  0.37033  0.71314  0.28835  1.0000
  C   C545      1.0  0.37378  0.74884  0.31279  1.0000
  C   C546      1.0  0.36318  0.74276  0.26358  1.0000
  C   C547      1.0  0.40512  0.75607  0.27909  1.0000
  H   H648      1.0  0.45442  0.98937  0.11555  1.0000
  C   C548      1.0  0.42104  0.74598  0.27601  1.0000
  H   H649      1.0  0.38041  0.70983  0.30561  1.0000
  C   C549      1.0  0.63420  0.52964  0.23914  1.0000
  H   H650      1.0  0.38085  0.95881  0.00300  1.0000
  C   C550      1.0  0.62610  0.89663  0.14126  1.0000
  H   H651      1.0  0.35034  0.70176  0.29320  1.0000
  H   H652      1.0  0.37296  0.70515  0.26868  1.0000
  H   H653      1.0  0.37734  0.76845  0.31203  1.0000
  C   C551      1.0  0.59050  0.84698  0.12772  1.0000
  H   H654      1.0  0.36689  0.73731  0.24279  1.0000
  H   H655      1.0  0.34308  0.73042  0.26768  1.0000
  H   H656      1.0  0.36640  0.76222  0.26206  1.0000
  H   H657      1.0  0.59190  0.92868  0.08469  1.0000
  Fe  Fe80      1.0  0.56887  0.99166  0.12344  1.0000
  H   H658      1.0  0.63702  0.83293  0.45730  1.0000
  C   C552      1.0  0.41588  0.78251  0.27584  1.0000
  H   H659      1.0  0.39063  0.94483  0.22520  1.0000
  N   N37       1.0  0.51981  0.59919  0.17403  1.0000
  C   C553      1.0  0.52190  0.60269  0.14324  1.0000
  C   C554      1.0  0.54166  0.59809  0.18420  1.0000
  C   C555      1.0  0.49735  0.57452  0.17923  1.0000
  C   C556      1.0  0.51865  0.61964  0.18915  1.0000
  C   C557      1.0  0.51525  0.61830  0.21853  1.0000
  C   C558      1.0  0.52199  0.64178  0.17575  1.0000
  C   C559      1.0  0.51499  0.63776  0.23346  1.0000
  C   C560      1.0  0.52150  0.66102  0.19087  1.0000
  C   C561      1.0  0.51811  0.65908  0.21965  1.0000
  H   H660      1.0  0.53956  0.61983  0.13758  1.0000
  H   H661      1.0  0.52193  0.58663  0.13243  1.0000
  H   H662      1.0  0.50622  0.60416  0.13422  1.0000
  H   H663      1.0  0.55884  0.61653  0.18124  1.0000
  H   H664      1.0  0.54367  0.58341  0.17285  1.0000
  H   H665      1.0  0.54072  0.59349  0.20676  1.0000
  H   H666      1.0  0.48036  0.57492  0.17309  1.0000
  H   H667      1.0  0.49745  0.55897  0.16722  1.0000
  H   H668      1.0  0.49578  0.56888  0.20149  1.0000
  H   H669      1.0  0.51343  0.60247  0.23031  1.0000
  H   H670      1.0  0.52587  0.64517  0.15376  1.0000
  H   H671      1.0  0.51294  0.63665  0.25597  1.0000
  H   H672      1.0  0.52478  0.67807  0.18041  1.0000
  H   H673      1.0  0.51871  0.67453  0.23138  1.0000
  H   H674      1.0  0.54010  0.96846  0.05770  1.0000
  N   N38       1.0  0.55973  0.79552  0.38423  1.0000
  C   C562      1.0  0.53676  0.79050  0.39827  1.0000
  C   C563      1.0  0.56313  0.81202  0.36001  1.0000
  C   C564      1.0  0.55627  0.77139  0.37306  1.0000
  C   C565      1.0  0.58077  0.80654  0.40447  1.0000
  C   C566      1.0  0.60223  0.83052  0.40075  1.0000
  C   C567      1.0  0.58040  0.79289  0.42860  1.0000
  C   C568      1.0  0.62199  0.83997  0.41996  1.0000
  C   C569      1.0  0.60043  0.80240  0.44745  1.0000
  C   C570      1.0  0.62123  0.82585  0.44306  1.0000
  H   H675      1.0  0.52073  0.78277  0.38325  1.0000
  H   H676      1.0  0.53149  0.77642  0.41518  1.0000
  H   H677      1.0  0.53884  0.80807  0.40766  1.0000
  H   H678      1.0  0.56530  0.83038  0.36673  1.0000
  H   H679      1.0  0.54695  0.80327  0.34531  1.0000
  H   H680      1.0  0.57947  0.81564  0.34761  1.0000
  H   H681      1.0  0.55110  0.75689  0.38944  1.0000
  H   H682      1.0  0.54123  0.76302  0.35686  1.0000
  H   H683      1.0  0.57350  0.77427  0.36333  1.0000
  H   H684      1.0  0.60460  0.84213  0.38280  1.0000
  H   H685      1.0  0.56477  0.77454  0.43283  1.0000
  Fe  Fe81      1.0  0.37968  0.98806  0.10311  1.0000
  H   H686      1.0  0.62201  0.53471  0.22831  1.0000
  C   C571      1.0  0.44608  0.76153  0.27030  1.0000
  H   H687      1.0  0.64702  0.77068  0.24414  1.0000
  H   H688      1.0  0.58825  0.91907  0.12058  1.0000
  C   C572      1.0  0.37653  0.98697  0.02498  1.0000
  C   C573      1.0  0.36512  0.89065  0.13983  1.0000
  H   H689      1.0  0.40463  0.91504  0.23569  1.0000
  C   C574      1.0  0.32365  0.64860  0.47459  1.0000
  C   C575      1.0  0.62532  0.77048  0.29296  1.0000
  H   H690      1.0  0.42760  0.95823  0.16073  1.0000
  C   C576      1.0  0.61143  0.89208  0.11658  1.0000
  C   C577      1.0  0.38681  0.90954  0.15269  1.0000
  C   C578      1.0  0.59108  0.91407  0.09912  1.0000
  Fe  Fe82      1.0  0.60380  0.98380  0.08668  1.0000
  C   C579      1.0  0.36648  0.89884  0.19737  1.0000
  C   C580      1.0  0.44096  0.79786  0.27009  1.0000
  H   H691      1.0  0.32253  0.92100  0.02054  1.0000
  C   C581      1.0  0.62315  0.87680  0.15822  1.0000
  C   C582      1.0  0.43177  0.94830  0.17749  1.0000
  C   C583      1.0  0.50073  0.49327  0.16845  1.0000
  H   H692      1.0  0.60139  0.89046  0.05978  1.0000
  C   C584      1.0  0.38810  0.91428  0.18198  1.0000
  H   H693      1.0  0.61850  0.57501  0.99942  1.0000
  N   N39       1.0  0.61391  0.91256  0.09811  1.0000
  C   C585      1.0  0.34504  0.87977  0.18436  1.0000
  H   H694      1.0  0.39745  0.96067  0.19266  1.0000
  H   H695      1.0  0.44837  0.96326  0.18887  1.0000
  H   H696      1.0  0.60004  0.79145  0.46541  1.0000
  H   H697      1.0  0.35933  0.71017  0.49329  1.0000
  H   H698      1.0  0.65032  0.73367  0.28121  1.0000
  C   C586      1.0  0.33820  0.67468  0.47146  1.0000
  Fe  Fe83      1.0  0.33379  0.67018  0.39510  1.0000
  H   H699      1.0  0.63391  0.90472  0.06738  1.0000
  H   H700      1.0  0.47554  0.79927  0.26321  1.0000
  C   C587      1.0  0.61770  0.90746  0.06879  1.0000
  H   H701      1.0  0.63145  0.79086  0.29445  1.0000
  C   C588      1.0  0.63997  0.82612  0.35147  1.0000
  H   H702      1.0  0.57432  0.89602  0.09315  1.0000
  S   S163      1.0  0.34200  0.94222  0.19877  1.0000
  S   S164      1.0  0.61060  0.97103  0.04440  1.0000
  H   H703      1.0  0.47479  0.51145  0.10439  1.0000
  H   H704      1.0  0.63659  0.95260  0.09142  1.0000
  H   H705      1.0  0.35414  0.73689  0.31897  1.0000
  H   H706      1.0  0.33501  0.51489  0.24900  1.0000
  H   H707      1.0  0.36434  0.88779  0.11737  1.0000
  S   S165      1.0  0.34386  0.68921  0.43818  1.0000
  H   H708      1.0  0.34592  0.50809  0.20622  1.0000
  H   H709      1.0  0.45797  0.75350  0.26841  1.0000
  H   H710      1.0  0.63235  0.94370  0.12727  1.0000
  H   H711      1.0  0.62329  0.73158  0.26542  1.0000
  H   H712      1.0  0.64237  0.57254  0.08390  1.0000
  H   H713      1.0  0.63811  0.78282  0.39749  1.0000
  S   S166      1.0  0.53121  0.98668  0.11143  1.0000
  H   H714      1.0  0.37593  0.50352  0.17855  1.0000
  H   H715      1.0  0.48400  0.97879  0.09426  1.0000
  C   C589      1.0  0.48201  0.50627  0.12225  1.0000
  C   C590      1.0  0.53801  0.97061  0.03547  1.0000
  C   C591      1.0  0.60860  0.98311  0.01120  1.0000
  N   N40       1.0  0.64617  0.76598  0.28895  1.0000
  C   C592      1.0  0.37903  0.97533  0.00084  1.0000
  H   H716      1.0  0.63393  0.88069  0.17743  1.0000
  H   H717      1.0  0.63945  0.91535  0.14850  1.0000
  C   C593      1.0  0.63490  0.93775  0.10612  1.0000
  C   C594      1.0  0.62589  0.50466  0.24620  1.0000
  H   H718      1.0  0.62383  0.72734  0.30206  1.0000
  H   H719      1.0  0.61523  0.76145  0.31240  1.0000
  H   H720      1.0  0.61184  0.76270  0.27522  1.0000
  C   C595      1.0  0.52706  0.98427  0.02635  1.0000
  C   C596      1.0  0.54646  0.95993  0.01604  1.0000
  C   C597      1.0  0.64428  0.80101  0.38815  1.0000
  C   C598      1.0  0.61406  0.58978  0.99684  1.0000
  C   C599      1.0  0.64167  0.49805  0.25995  1.0000
  H   H721      1.0  0.33910  0.49605  0.27489  1.0000
  C   C600      1.0  0.32526  0.49720  0.26107  1.0000
  C   C601      1.0  0.52451  0.98730  0.99771  1.0000
  H   H722      1.0  0.52063  0.99260  0.04173  1.0000
  H   H723      1.0  0.65420  0.56959  0.11721  1.0000
  H   H724      1.0  0.65275  0.93797  0.10602  1.0000
  C   C602      1.0  0.34796  0.68998  0.49553  1.0000
  H   H725      1.0  0.59864  0.64286  0.98713  1.0000
  S   S167      1.0  0.38658  0.97225  0.88842  1.0000
  C   C603      1.0  0.60286  0.62794  0.98970  1.0000
  H   H726      1.0  0.60894  0.70871  0.92946  1.0000
  Fe  Fe84      1.0  0.36481  0.96579  0.84800  1.0000
  H   H727      1.0  0.34532  0.96389  0.92063  1.0000
  H   H728      1.0  0.41761  0.76746  0.70720  1.0000
  C   C604      1.0  0.34324  0.67940  0.52245  1.0000
  Fe  Fe85      1.0  0.60086  0.96198  0.83681  1.0000
  H   H729      1.0  0.52647  0.84794  0.71213  1.0000
  S   S168      1.0  0.60418  0.92656  0.83207  1.0000
  H   H730      1.0  0.64980  0.94023  0.79029  1.0000
  H   H731      1.0  0.58668  0.55389  0.75300  1.0000
  S   S169      1.0  0.57335  0.96371  0.86542  1.0000
  Fe  Fe86      1.0  0.60752  0.63163  0.82735  1.0000
  S   S170      1.0  0.59826  0.59408  0.80869  1.0000
  S   S171      1.0  0.61758  0.66541  0.79876  1.0000
  Fe  Fe87      1.0  0.60295  0.61211  0.88786  1.0000
  S   S172      1.0  0.59276  0.57307  0.87337  1.0000
  S   S173      1.0  0.60374  0.62752  0.93198  1.0000
  Fe  Fe88      1.0  0.62337  0.59260  0.84182  1.0000
  Fe  Fe89      1.0  0.56859  0.57716  0.84105  1.0000
  S   S174      1.0  0.52942  0.54937  0.82591  1.0000
  S   S175      1.0  0.63505  0.63149  0.85850  1.0000
  S   S176      1.0  0.57640  0.61484  0.85750  1.0000
  N   N41       1.0  0.53015  0.98034  0.94708  1.0000
  H   H732      1.0  0.33034  0.91750  0.92483  1.0000
  S   S177      1.0  0.34650  0.69525  0.62164  1.0000
  H   H733      1.0  0.34557  0.52306  0.77885  1.0000
  Fe  Fe90      1.0  0.35375  0.67719  0.65896  1.0000
  S   S178      1.0  0.38831  0.69494  0.68749  1.0000
  S   S179      1.0  0.33672  0.63869  0.63854  1.0000
  Fe  Fe91      1.0  0.59598  0.78648  0.68121  1.0000
  S   S180      1.0  0.60542  0.79915  0.72651  1.0000
  S   S181      1.0  0.62067  0.78574  0.64672  1.0000
  Fe  Fe92      1.0  0.53963  0.76250  0.69071  1.0000
  S   S182      1.0  0.54531  0.77339  0.73611  1.0000
  S   S183      1.0  0.50363  0.74225  0.66488  1.0000
  Fe  Fe93      1.0  0.57655  0.81103  0.72245  1.0000
  S   S184      1.0  0.57710  0.84837  0.73014  1.0000
  Fe  Fe94      1.0  0.57342  0.76045  0.73685  1.0000
  S   S185      1.0  0.56837  0.73303  0.77230  1.0000
  S   S186      1.0  0.56931  0.80050  0.67654  1.0000
  S   S187      1.0  0.56567  0.74739  0.69211  1.0000
  C   C605      1.0  0.42019  0.70721  0.68078  1.0000
  C   C606      1.0  0.43736  0.71741  0.70320  1.0000
  C   C607      1.0  0.46291  0.72808  0.69888  1.0000
  C   C608      1.0  0.47165  0.72880  0.67195  1.0000
  C   C609      1.0  0.45447  0.71822  0.64962  1.0000
  C   C610      1.0  0.42890  0.70749  0.65396  1.0000
  H   H734      1.0  0.43080  0.71723  0.72404  1.0000
  H   H735      1.0  0.47573  0.73569  0.71640  1.0000
  H   H736      1.0  0.46097  0.71853  0.62872  1.0000
  H   H737      1.0  0.41598  0.69972  0.63651  1.0000
  C   C611      1.0  0.33802  0.88392  0.76751  1.0000
  C   C612      1.0  0.64958  0.95527  0.74855  1.0000
  C   C613      1.0  0.47716  0.79516  0.68363  1.0000
  C   C614      1.0  0.58114  0.71307  0.77766  1.0000
  C   C615      1.0  0.60121  0.71568  0.76253  1.0000
  C   C616      1.0  0.61177  0.70060  0.76894  1.0000
  C   C617      1.0  0.60215  0.68237  0.79012  1.0000
  C   C618      1.0  0.58154  0.67917  0.80459  1.0000
  C   C619      1.0  0.57135  0.69465  0.79865  1.0000
  H   H738      1.0  0.60904  0.72975  0.74639  1.0000
  H   H739      1.0  0.62768  0.70328  0.75756  1.0000
  H   H740      1.0  0.57383  0.66519  0.82078  1.0000
  H   H741      1.0  0.55594  0.69254  0.81064  1.0000
  C   C620      1.0  0.63978  0.55531  0.73812  1.0000
  C   C621      1.0  0.50994  0.51822  0.83767  1.0000
  S   S188      1.0  0.59333  0.98136  0.80174  1.0000
  H   H742      1.0  0.53690  0.51706  0.86500  1.0000
  H   H743      1.0  0.65399  0.53393  0.75821  1.0000
  H   H744      1.0  0.57103  0.51560  0.83701  1.0000
  C   C622      1.0  0.60607  0.61649  0.96582  1.0000
  C   C623      1.0  0.61157  0.59723  0.96959  1.0000
  H   H745      1.0  0.55862  0.97383  0.93136  1.0000
  H   H746      1.0  0.61417  0.58825  0.95154  1.0000
  C   C624      1.0  0.59506  0.90422  0.80401  1.0000
  C   C625      1.0  0.58600  0.90748  0.77838  1.0000
  C   C626      1.0  0.58045  0.89009  0.75621  1.0000
  C   C627      1.0  0.58355  0.86903  0.75938  1.0000
  C   C628      1.0  0.59211  0.86547  0.78520  1.0000
  C   C629      1.0  0.59794  0.88304  0.80726  1.0000
  H   H747      1.0  0.58347  0.92349  0.77557  1.0000
  H   H748      1.0  0.57388  0.89311  0.73638  1.0000
  H   H749      1.0  0.59462  0.84943  0.78805  1.0000
  H   H750      1.0  0.60491  0.88028  0.82697  1.0000
  C   C630      1.0  0.52170  0.81677  0.67229  1.0000
  N   N42       1.0  0.49994  0.67854  0.70952  1.0000
  H   H751      1.0  0.49550  0.83297  0.72367  1.0000
  H   H752      1.0  0.50241  0.84549  0.68890  1.0000
  H   H753      1.0  0.51253  0.60548  0.75610  1.0000
  C   C631      1.0  0.34401  0.86102  0.80472  1.0000
  H   H754      1.0  0.63692  0.71385  0.84007  1.0000
  C   C632      1.0  0.61037  0.97144  0.98669  1.0000
  C   C633      1.0  0.48700  0.97650  0.81993  1.0000
  H   H755      1.0  0.61243  0.95502  0.98832  1.0000
  H   H756      1.0  0.54986  0.51584  0.76492  1.0000
  H   H757      1.0  0.49528  0.79358  0.73483  1.0000
  C   C634      1.0  0.61030  0.74975  0.83827  1.0000
  C   C635      1.0  0.44659  0.76956  0.64719  1.0000
  C   C636      1.0  0.58554  0.67135  0.89195  1.0000
  C   C637      1.0  0.60968  0.98091  0.96000  1.0000
  H   H758      1.0  0.40845  0.75056  0.65901  1.0000
  C   C638      1.0  0.62079  0.56084  0.73710  1.0000
  C   C639      1.0  0.58632  0.52454  0.82182  1.0000
  C   C640      1.0  0.49298  0.63445  0.71023  1.0000
  H   H759      1.0  0.34169  0.90171  0.75867  1.0000
  H   H760      1.0  0.63743  0.78075  0.59288  1.0000
  S   S189      1.0  0.53085  0.97728  0.81342  1.0000
  C   C641      1.0  0.48566  0.50443  0.82688  1.0000
  H   H761      1.0  0.50091  0.69832  0.74733  1.0000
  H   H762      1.0  0.45270  0.97657  0.82426  1.0000
  H   H763      1.0  0.60086  0.52023  0.82852  1.0000
  C   C642      1.0  0.59860  0.52968  0.77361  1.0000
  C   C643      1.0  0.62995  0.98060  0.74652  1.0000
  H   H764      1.0  0.35136  0.69139  0.54066  1.0000
  C   C644      1.0  0.51030  0.98363  0.83182  1.0000
  H   H765      1.0  0.46020  0.79514  0.72322  1.0000
  H   H766      1.0  0.50080  0.97203  0.91701  1.0000
  H   H767      1.0  0.64636  0.84108  0.64627  1.0000
  S   S190      1.0  0.39943  0.98887  0.82326  1.0000
  C   C645      1.0  0.64589  0.91432  0.75881  1.0000
  H   H768      1.0  0.46485  0.65366  0.68867  1.0000
  H   H769      1.0  0.53295  0.69121  0.68583  1.0000
  N   N43       1.0  0.65165  0.97941  0.75735  1.0000
  H   H770      1.0  0.51222  0.70091  0.67209  1.0000
  N   N44       1.0  0.61127  0.69265  0.89010  1.0000
  H   H771      1.0  0.48858  0.59729  0.71185  1.0000
  H   H772      1.0  0.54098  0.50998  0.80073  1.0000
  H   H773      1.0  0.53593  0.96973  0.90591  1.0000
  C   C646      1.0  0.61179  0.71274  0.87249  1.0000
  H   H774      1.0  0.58508  0.74975  0.86806  1.0000
  H   H775      1.0  0.50516  0.66915  0.66748  1.0000
  H   H776      1.0  0.47066  0.68464  0.69465  1.0000
  H   H777      1.0  0.38657  0.53078  0.79093  1.0000
  H   H778      1.0  0.53014  0.71082  0.73018  1.0000
  H   H779      1.0  0.50525  0.77942  0.70919  1.0000
  C   C647      1.0  0.50298  0.65857  0.72311  1.0000
  H   H780      1.0  0.58642  0.71832  0.89822  1.0000
  H   H781      1.0  0.58458  0.65530  0.90387  1.0000
  H   H782      1.0  0.52556  0.68043  0.75958  1.0000
  N   N45       1.0  0.57756  0.51627  0.79270  1.0000
  C   C648      1.0  0.34736  0.50687  0.78357  1.0000
  C   C649      1.0  0.65060  0.83459  0.62725  1.0000
  H   H783      1.0  0.46267  0.66336  0.72352  1.0000
  N   N46       1.0  0.50293  0.81097  0.69404  1.0000
  C   C650      1.0  0.53854  0.96684  0.92844  1.0000
  H   H784      1.0  0.49676  0.98260  0.95000  1.0000
  H   H785      1.0  0.59471  0.54528  0.82399  1.0000
  H   H786      1.0  0.32317  0.93732  0.78603  1.0000
  C   C651      1.0  0.63869  0.53745  0.75681  1.0000
  C   C652      1.0  0.47340  0.66955  0.70391  1.0000
  H   H787      1.0  0.52085  0.79931  0.66422  1.0000
  C   C653      1.0  0.43264  0.77293  0.69280  1.0000
  H   H788      1.0  0.60902  0.76314  0.82458  1.0000
  C   C654      1.0  0.47114  0.78505  0.65597  1.0000
  H   H789      1.0  0.32553  0.71392  0.55273  1.0000
  H   H790      1.0  0.51937  0.82703  0.65445  1.0000
  H   H791      1.0  0.48503  0.78818  0.64090  1.0000
  C   C655      1.0  0.50973  0.62006  0.74702  1.0000
  H   H792      1.0  0.44241  0.76146  0.62629  1.0000
  C   C656      1.0  0.51995  0.64354  0.76010  1.0000
  H   H793      1.0  0.54085  0.82892  0.68077  1.0000
  H   H794      1.0  0.57746  0.66411  0.87077  1.0000
  H   H795      1.0  0.61988  0.67371  0.85806  1.0000
  H   H796      1.0  0.53077  0.64711  0.77924  1.0000
  H   H797      1.0  0.48290  0.63020  0.69057  1.0000
  H   H798      1.0  0.49187  0.95129  0.94642  1.0000
  C   C657      1.0  0.62584  0.72145  0.84770  1.0000
  H   H799      1.0  0.50696  0.71645  0.71611  1.0000
  C   C658      1.0  0.45710  0.78865  0.70175  1.0000
  C   C659      1.0  0.50773  0.79766  0.71688  1.0000
  C   C660      1.0  0.49626  0.61551  0.72213  1.0000
  H   H800      1.0  0.52691  0.80901  0.72541  1.0000
  H   H801      1.0  0.36171  0.90147  0.80340  1.0000
  H   H802      1.0  0.32646  0.95348  0.88926  1.0000
  C   C661      1.0  0.51308  0.68517  0.68259  1.0000
  C   C662      1.0  0.42740  0.76343  0.66558  1.0000
  C   C663      1.0  0.55692  0.52103  0.78680  1.0000
  C   C664      1.0  0.50989  0.70196  0.72663  1.0000
  C   C665      1.0  0.50689  0.83535  0.70512  1.0000
  C   C666      1.0  0.51673  0.66260  0.74846  1.0000
  H   H803      1.0  0.52810  0.94616  0.93200  1.0000
  H   H804      1.0  0.62583  0.66743  0.89283  1.0000
  C   C667      1.0  0.47060  0.98222  0.83352  1.0000
  C   C668      1.0  0.63970  0.80873  0.62193  1.0000
  C   C669      1.0  0.32842  0.65334  0.52561  1.0000
  C   C670      1.0  0.51831  0.50661  0.85645  1.0000
  H   H805      1.0  0.56245  0.54108  0.79066  1.0000
  C   C671      1.0  0.34933  0.88382  0.79274  1.0000
  Fe  Fe95      1.0  0.56813  0.98578  0.83119  1.0000
  H   H806      1.0  0.48170  0.96662  0.80003  1.0000
  C   C672      1.0  0.59666  0.74198  0.86264  1.0000
  C   C673      1.0  0.64758  0.94879  0.71972  1.0000
  C   C674      1.0  0.59747  0.72388  0.87966  1.0000
  H   H807      1.0  0.38068  0.97530  0.95566  1.0000
  S   S191      1.0  0.33391  0.92437  0.84197  1.0000
  S   S192      1.0  0.64816  0.57526  0.83558  1.0000
  H   H808      1.0  0.47907  0.51325  0.81225  1.0000
  C   C675      1.0  0.32719  0.83823  0.79162  1.0000
  H   H809      1.0  0.62091  0.68787  0.93224  1.0000
  C   C676      1.0  0.62507  0.73974  0.83103  1.0000
  C   C677      1.0  0.60045  0.54829  0.75452  1.0000
  C   C678      1.0  0.62061  0.70254  0.91871  1.0000
  H   H810      1.0  0.61131  0.97186  0.94138  1.0000
  H   H811      1.0  0.63975  0.71893  0.91819  1.0000
  C   C679      1.0  0.53288  0.97662  0.97727  1.0000
  C   C680      1.0  0.37114  0.51162  0.79042  1.0000
  H   H812      1.0  0.57323  0.67661  0.90279  1.0000
  C   C681      1.0  0.50381  0.97120  0.93992  1.0000
  H   H813      1.0  0.63568  0.96791  0.79807  1.0000
  H   H814      1.0  0.39365  0.49548  0.80171  1.0000
  H   H815      1.0  0.62208  0.57529  0.72308  1.0000
  H   H816      1.0  0.64469  0.90064  0.77397  1.0000
  H   H817      1.0  0.63521  0.74543  0.81169  1.0000
  H   H818      1.0  0.32343  0.97370  0.91365  1.0000
  H   H819      1.0  0.35260  0.86109  0.82459  1.0000
  H   H820      1.0  0.32328  0.82105  0.80203  1.0000
  C   C682      1.0  0.62654  0.68241  0.87914  1.0000
  C   C683      1.0  0.37881  0.98459  0.97387  1.0000
  H   H821      1.0  0.61928  0.51227  0.78960  1.0000
  C   C684      1.0  0.61861  0.52501  0.77455  1.0000
  C   C685      1.0  0.32649  0.95742  0.91201  1.0000
  C   C686      1.0  0.64323  0.90826  0.73044  1.0000
  H   H822      1.0  0.61244  0.96409  0.75360  1.0000
  H   H823      1.0  0.62914  0.98091  0.72335  1.0000
  C   C687      1.0  0.64890  0.93736  0.76791  1.0000
  C   C688      1.0  0.65271  0.98289  0.78818  1.0000
  H   H824      1.0  0.64634  0.69719  0.87791  1.0000
  H   H825      1.0  0.55170  0.95468  0.97358  1.0000
  C   C689      1.0  0.54413  0.96292  0.98734  1.0000
  H   H826      1.0  0.64209  0.92065  0.68884  1.0000
  C   C690      1.0  0.64571  0.80071  0.59718  1.0000
  H   H827      1.0  0.64807  0.96147  0.70378  1.0000
  Fe  Fe96      1.0  0.32675  0.65608  0.60272  1.0000
  H   H828      1.0  0.63989  0.88992  0.72366  1.0000
  C   C691      1.0  0.64427  0.92554  0.71090  1.0000
  H   H829      1.0  0.32362  0.80646  0.73513  1.0000
  Fe  Fe97      1.0  0.85888  0.14391  0.45931  1.0000
  S   S193      1.0  0.84905  0.16869  0.43204  1.0000
  S   S194      1.0  0.87193  0.11571  0.45327  1.0000
  H   H830      1.0  0.73239  0.24628  0.17380  1.0000
  S   S195      1.0  0.96492  0.39103  0.12237  1.0000
  C   C692      1.0  0.82097  0.28985  0.25107  1.0000
  Fe  Fe98      1.0  0.96909  0.36970  0.15864  1.0000
  S   S196      1.0  0.94120  0.34857  0.19362  1.0000
  Fe  Fe99      1.0  0.77727  0.22912  0.28272  1.0000
  S   S197      1.0  0.76949  0.22340  0.23646  1.0000
  S   S198      1.0  0.77311  0.25774  0.30927  1.0000
  Fe  Fe100     1.0  0.79751  0.19257  0.28514  1.0000
  S   S199      1.0  0.79102  0.18481  0.23866  1.0000
  S   S200      1.0  0.81303  0.16970  0.30603  1.0000
  Fe  Fe101     1.0  0.80713  0.22683  0.23430  1.0000
  S   S201      1.0  0.83452  0.24812  0.19926  1.0000
  Fe  Fe102     1.0  0.75423  0.18192  0.24475  1.0000
  S   S202      1.0  0.71547  0.14942  0.23241  1.0000
  S   S203      1.0  0.81576  0.23460  0.28021  1.0000
  S   S204      1.0  0.75989  0.18765  0.29157  1.0000
  Fe  Fe103     1.0  0.67941  0.31194  0.32509  1.0000
  S   S205      1.0  0.70415  0.34830  0.34800  1.0000
  S   S206      1.0  0.69158  0.29079  0.29578  1.0000
  Fe  Fe104     1.0  0.67829  0.36116  0.33164  1.0000
  S   S207      1.0  0.69127  0.39619  0.30439  1.0000
  Fe  Fe105     1.0  0.67725  0.33164  0.38354  1.0000
  C   C693      1.0  0.79085  0.29067  0.21985  1.0000
  H   H831      1.0  0.73779  0.33171  0.44290  1.0000
  H   H832      1.0  0.67853  0.30205  0.48158  1.0000
  C   C694      1.0  0.70677  0.42923  0.31073  1.0000
  C   C695      1.0  0.71461  0.44551  0.28767  1.0000
  C   C696      1.0  0.72807  0.47186  0.29143  1.0000
  C   C697      1.0  0.67267  0.48339  0.28905  1.0000
  C   C698      1.0  0.72509  0.46605  0.34146  1.0000
  C   C699      1.0  0.71218  0.43965  0.33770  1.0000
  H   H833      1.0  0.71050  0.43768  0.26670  1.0000
  H   H834      1.0  0.70259  0.01758  0.27988  1.0000
  H   H835      1.0  0.67803  0.03155  0.06242  1.0000
  H   H836      1.0  0.70627  0.42739  0.35563  1.0000
  C   C700      1.0  0.74959  0.26580  0.30586  1.0000
  C   C701      1.0  0.73215  0.25647  0.28396  1.0000
  C   C702      1.0  0.71450  0.26424  0.28134  1.0000
  C   C703      1.0  0.71376  0.28105  0.30081  1.0000
  C   C704      1.0  0.73106  0.29019  0.32289  1.0000
  C   C705      1.0  0.74896  0.28272  0.32526  1.0000
  H   H837      1.0  0.73231  0.24338  0.26892  1.0000
  H   H838      1.0  0.70116  0.25699  0.26424  1.0000
  H   H839      1.0  0.73076  0.30313  0.33801  1.0000
  H   H840      1.0  0.76232  0.29001  0.34233  1.0000
  Fe  Fe106     1.0  0.90050  0.13819  0.48739  1.0000
  C   C706      1.0  0.70362  0.07762  0.25327  1.0000
  H   H841      1.0  0.67998  0.09941  0.01626  1.0000
  H   H842      1.0  0.77329  0.25242  0.16150  1.0000
  C   C707      1.0  0.67975  0.36520  0.49093  1.0000
  C   C708      1.0  0.86407  0.27630  0.19829  1.0000
  C   C709      1.0  0.87576  0.28464  0.17239  1.0000
  C   C710      1.0  0.89914  0.30673  0.17044  1.0000
  C   C711      1.0  0.91122  0.32094  0.19444  1.0000
  C   C712      1.0  0.89944  0.31267  0.22035  1.0000
  C   C713      1.0  0.87614  0.29048  0.22234  1.0000
  H   H843      1.0  0.86670  0.27391  0.15360  1.0000
  H   H844      1.0  0.90785  0.31272  0.15035  1.0000
  H   H845      1.0  0.90864  0.32335  0.23910  1.0000
  H   H846      1.0  0.86773  0.28430  0.24250  1.0000
  H   H847      1.0  0.95129  0.30505  0.20295  1.0000
  C   C714      1.0  0.98297  0.37095  0.02021  1.0000
  C   C715      1.0  0.71451  0.12212  0.18490  1.0000
  C   C716      1.0  0.70125  0.12507  0.20640  1.0000
  C   C717      1.0  0.67578  0.10755  0.20811  1.0000
  H   H848      1.0  0.82811  0.16754  0.48305  1.0000
  H   H849      1.0  0.80969  0.27924  0.19015  1.0000
  H   H850      1.0  0.73408  0.13528  0.18328  1.0000
  H   H851      1.0  0.87002  0.20407  0.48188  1.0000
  H   H852      1.0  0.66350  0.03848  0.08987  1.0000
  C   C718      1.0  0.83843  0.16797  0.39701  1.0000
  C   C719      1.0  0.83652  0.15040  0.37701  1.0000
  C   C720      1.0  0.82860  0.15116  0.34938  1.0000
  C   C721      1.0  0.82225  0.16928  0.34141  1.0000
  C   C722      1.0  0.82392  0.18669  0.36146  1.0000
  C   C723      1.0  0.83206  0.18608  0.38900  1.0000
  H   H853      1.0  0.84141  0.13640  0.38274  1.0000
  H   H854      1.0  0.82748  0.13762  0.33408  1.0000
  H   H855      1.0  0.81916  0.20078  0.35573  1.0000
  H   H856      1.0  0.83349  0.19981  0.40421  1.0000
  H   H857      1.0  0.68394  0.36877  0.44603  1.0000
  C   C724      1.0  0.80100  0.48772  0.25544  1.0000
  C   C725      1.0  0.77162  0.26232  0.17936  1.0000
  C   C726      1.0  0.66369  0.08744  0.18865  1.0000
  N   N47       1.0  0.88138  0.22384  0.25733  1.0000
  C   C727      1.0  0.85688  0.21849  0.24661  1.0000
  C   C728      1.0  0.88405  0.20159  0.25173  1.0000
  C   C729      1.0  0.88161  0.22704  0.28818  1.0000
  C   C730      1.0  0.90106  0.24612  0.24295  1.0000
  C   C731      1.0  0.90225  0.24644  0.21330  1.0000
  C   C732      1.0  0.91929  0.26797  0.25755  1.0000
  C   C733      1.0  0.92030  0.26740  0.19917  1.0000
  C   C734      1.0  0.93730  0.28882  0.24314  1.0000
  C   C735      1.0  0.93780  0.28853  0.21405  1.0000
  H   H858      1.0  0.85350  0.21247  0.22429  1.0000
  H   H859      1.0  0.84160  0.20307  0.25844  1.0000
  H   H860      1.0  0.85508  0.23555  0.24821  1.0000
  H   H861      1.0  0.90247  0.20504  0.25896  1.0000
  H   H862      1.0  0.88207  0.19668  0.22909  1.0000
  H   H863      1.0  0.86970  0.18455  0.26265  1.0000
  H   H864      1.0  0.87898  0.24312  0.29386  1.0000
  H   H865      1.0  0.86632  0.21006  0.29825  1.0000
  H   H866      1.0  0.89902  0.22986  0.29806  1.0000
  H   H867      1.0  0.88888  0.23070  0.20073  1.0000
  H   H868      1.0  0.91986  0.26964  0.28004  1.0000
  H   H869      1.0  0.92032  0.26761  0.17649  1.0000
  H   H870      1.0  0.95066  0.30562  0.25447  1.0000
  C   C736      1.0  0.73963  0.33587  0.46516  1.0000
  C   C737      1.0  0.68142  0.33441  0.46046  1.0000
  S   S208      1.0  0.98578  0.35197  0.13221  1.0000
  C   C738      1.0  0.71861  0.05775  0.28550  1.0000
  H   H871      1.0  0.83767  0.30069  0.26466  1.0000
  H   H872      1.0  0.79509  0.30720  0.27547  1.0000
  C   C739      1.0  0.74859  0.25878  0.18631  1.0000
  N   N48       1.0  0.81304  0.30634  0.23758  1.0000
  C   C740      1.0  0.82183  0.01451  0.46962  1.0000
  H   H873      1.0  0.82537  0.27935  0.23551  1.0000
  C   C741      1.0  0.66415  0.03728  0.06673  1.0000
  C   C742      1.0  0.74633  0.27091  0.20973  1.0000
  H   H874      1.0  0.72829  0.26774  0.21544  1.0000
  C   C743      1.0  0.80877  0.32032  0.26014  1.0000
  C   C744      1.0  0.68819  0.05434  0.24032  1.0000
  H   H875      1.0  0.68056  0.38310  0.49354  1.0000
  C   C745      1.0  0.76705  0.28662  0.22635  1.0000
  H   H876      1.0  0.84045  0.31610  0.20547  1.0000
  H   H877      1.0  0.80211  0.33267  0.25145  1.0000
  H   H878      1.0  0.84990  0.33829  0.23323  1.0000
  H   H879      1.0  0.70970  0.07712  0.05878  1.0000
  C   C746      1.0  0.83352  0.32507  0.22023  1.0000
  H   H880      1.0  0.82757  0.33641  0.20770  1.0000
  H   H881      1.0  0.80608  0.27563  0.26432  1.0000
  H   H882      1.0  0.76373  0.29489  0.24451  1.0000
  H   H883      1.0  0.82592  0.33247  0.27259  1.0000
  C   C747      1.0  0.79244  0.27792  0.19587  1.0000
  H   H884      1.0  0.71092  0.11984  0.28235  1.0000
  N   N49       1.0  0.73563  0.10517  0.28920  1.0000
  C   C748      1.0  0.72045  0.11571  0.29959  1.0000
  C   C749      1.0  0.75082  0.10476  0.31315  1.0000
  C   C750      1.0  0.75284  0.12244  0.26803  1.0000
  C   C751      1.0  0.71936  0.08012  0.27619  1.0000
  C   C752      1.0  0.68783  0.03278  0.24993  1.0000
  C   C753      1.0  0.70235  0.10219  0.16522  1.0000
  H   H885      1.0  0.68624  0.47967  0.30026  1.0000
  C   C754      1.0  0.67640  0.08207  0.00630  1.0000
  H   H886      1.0  0.73451  0.48402  0.27345  1.0000
  H   H887      1.0  0.73189  0.13389  0.31099  1.0000
  H   H888      1.0  0.73819  0.36976  0.45995  1.0000
  H   H889      1.0  0.65687  0.47745  0.30332  1.0000
  H   H890      1.0  0.73909  0.09275  0.33038  1.0000
  H   H891      1.0  0.76291  0.12398  0.32226  1.0000
  H   H892      1.0  0.76354  0.09806  0.30658  1.0000
  H   H893      1.0  0.74310  0.12566  0.25032  1.0000
  H   H894      1.0  0.76571  0.14131  0.27724  1.0000
  H   H895      1.0  0.76420  0.11494  0.25914  1.0000
  H   H896      1.0  0.70316  0.09376  0.24518  1.0000
  C   C755      1.0  0.73319  0.48230  0.31838  1.0000
  C   C756      1.0  0.67687  0.08469  0.16691  1.0000
  C   C757      1.0  0.68153  0.35706  0.46395  1.0000
  N   N50       1.0  0.67055  0.06155  0.05327  1.0000
  N   N51       1.0  0.76798  0.42239  0.28780  1.0000
  C   C758      1.0  0.78693  0.41515  0.28293  1.0000
  C   C759      1.0  0.75782  0.41326  0.31602  1.0000
  C   C760      1.0  0.74754  0.40900  0.26705  1.0000
  C   C761      1.0  0.77906  0.44999  0.28454  1.0000
  C   C762      1.0  0.77936  0.46603  0.30624  1.0000
  C   C763      1.0  0.79008  0.46167  0.25893  1.0000
  H   H897      1.0  0.72986  0.05770  0.30277  1.0000
  H   H898      1.0  0.83778  0.02964  0.45968  1.0000
  S   S209      1.0  0.96989  0.35813  0.05321  1.0000
  H   H899      1.0  0.80310  0.42567  0.29737  1.0000
  H   H900      1.0  0.77941  0.39462  0.28629  1.0000
  H   H901      1.0  0.79388  0.41902  0.26123  1.0000
  H   H902      1.0  0.77233  0.42204  0.33269  1.0000
  H   H903      1.0  0.74947  0.39246  0.31775  1.0000
  H   H904      1.0  0.74273  0.41712  0.32074  1.0000
  H   H905      1.0  0.75398  0.41249  0.24515  1.0000
  H   H906      1.0  0.73751  0.38820  0.27007  1.0000
  H   H907      1.0  0.73363  0.41506  0.26898  1.0000
  H   H908      1.0  0.77085  0.45898  0.32618  1.0000
  H   H909      1.0  0.79027  0.45072  0.24134  1.0000
  C   C764      1.0  0.67156  0.06068  0.02237  1.0000
  C   C765      1.0  0.70298  0.03447  0.27247  1.0000
  H   H910      1.0  0.67575  0.01472  0.23987  1.0000
  H   H911      1.0  0.83820  0.20837  0.46201  1.0000
  H   H912      1.0  0.70603  0.10244  0.31405  1.0000
  H   H913      1.0  0.69474  0.08170  0.08823  1.0000
  C   C766      1.0  0.69486  0.08101  0.06489  1.0000
  H   H914      1.0  0.67645  0.05307  0.22271  1.0000
  H   H915      1.0  0.66528  0.10952  0.22467  1.0000
  C   C767      1.0  0.67854  0.31956  0.48404  1.0000
  S   S210      1.0  0.68704  0.32496  0.42764  1.0000
  H   H916      1.0  0.70018  0.10024  0.05765  1.0000
  H   H917      1.0  0.71281  0.10032  0.14856  1.0000
  Fe  Fe107     1.0  0.84612  0.09360  0.48854  1.0000
  C   C768      1.0  0.97623  0.19186  0.47016  1.0000
  C   C769      1.0  0.98588  0.44147  0.04774  1.0000
  C   C770      1.0  0.73996  0.35742  0.47484  1.0000
  H   H918      1.0  0.96108  0.19343  0.46134  1.0000
  C   C771      1.0  0.97205  0.42289  0.00153  1.0000
  S   S211      1.0  0.83137  0.12045  0.49205  1.0000
  H   H919      1.0  0.72896  0.47394  0.36241  1.0000
  C   C772      1.0  0.66742  0.03883  0.00734  1.0000
  S   S212      1.0  0.66257  0.06037  0.14086  1.0000
  H   H920      1.0  0.73994  0.30225  0.47644  1.0000
  H   H921      1.0  0.96885  0.48703  0.18581  1.0000
  S   S213      1.0  0.94046  0.14613  0.49339  1.0000
  H   H922      1.0  0.84244  0.23381  0.48458  1.0000
  C   C773      1.0  0.97124  0.17083  0.48625  1.0000
  C   C774      1.0  0.83312  0.21294  0.48259  1.0000
  C   C775      1.0  0.74065  0.31923  0.48411  1.0000
  H   H923      1.0  0.98583  0.43946  0.07031  1.0000
  H   H924      1.0  0.66643  0.47090  0.27020  1.0000
  Fe  Fe108     1.0  0.98429  0.37550  0.09676  1.0000
  C   C776      1.0  0.80866  0.02027  0.48878  1.0000
  H   H925      1.0  0.81289  0.20539  0.48118  1.0000
  H   H926      1.0  0.96084  0.40210  0.04008  1.0000
  H   H927      1.0  0.98206  0.45755  0.16830  1.0000
  C   C777      1.0  0.97174  0.42050  0.03066  1.0000
  H   H928      1.0  0.66332  0.02150  0.01753  1.0000
  S   S214      1.0  0.88879  0.16706  0.49144  1.0000
  C   C778      1.0  0.79036  0.49206  0.30248  1.0000
  H   H929      1.0  0.95290  0.34067  0.99701  1.0000
  C   C779      1.0  0.98165  0.49261  0.16876  1.0000
  H   H930      1.0  0.65645  0.08734  0.05506  1.0000
  C   C780      1.0  0.82576  0.17424  0.50375  1.0000
  H   H931      1.0  0.67419  0.00098  0.72272  1.0000
  C   C781      1.0  0.67540  0.16551  0.81464  1.0000
  C   C782      1.0  0.76703  0.35233  0.56551  1.0000
  H   H932      1.0  0.67664  0.01932  0.75283  1.0000
  C   C783      1.0  0.68111  0.16069  0.78753  1.0000
  Fe  Fe109     1.0  0.86172  0.14209  0.52351  1.0000
  S   S215      1.0  0.86040  0.15904  0.56580  1.0000
  S   S216      1.0  0.87526  0.11453  0.52184  1.0000
  C   C784      1.0  0.81100  0.20557  0.53887  1.0000
  S   S217      1.0  0.97364  0.39729  0.86770  1.0000
  H   H933      1.0  0.83525  0.07323  0.55882  1.0000
  Fe  Fe110     1.0  0.96596  0.36407  0.83984  1.0000
  S   S218      1.0  0.92486  0.33393  0.83379  1.0000
  Fe  Fe111     1.0  0.78591  0.19163  0.67919  1.0000
  S   S219      1.0  0.80338  0.18607  0.71803  1.0000
  S   S220      1.0  0.78207  0.17317  0.63633  1.0000
  Fe  Fe112     1.0  0.76790  0.22328  0.71041  1.0000
  S   S221      1.0  0.78452  0.21964  0.75095  1.0000
  S   S222      1.0  0.74821  0.24572  0.71744  1.0000
  Fe  Fe113     1.0  0.81784  0.22759  0.72649  1.0000
  S   S223      1.0  0.85854  0.25762  0.73495  1.0000
  Fe  Fe114     1.0  0.76833  0.17864  0.73946  1.0000
  S   S224      1.0  0.74800  0.15153  0.77539  1.0000
  S   S225      1.0  0.80210  0.23340  0.68620  1.0000
  S   S226      1.0  0.75008  0.18189  0.70024  1.0000
  Fe  Fe115     1.0  0.67712  0.35796  0.65312  1.0000
  C   C785      1.0  0.74208  0.32412  0.51284  1.0000
  S   S227      1.0  0.68852  0.38914  0.68605  1.0000
  H   H934      1.0  0.67065  0.05861  0.94031  1.0000
  Fe  Fe116     1.0  0.68292  0.31372  0.63273  1.0000
  S   S228      1.0  0.70520  0.29339  0.62967  1.0000
  S   S229      1.0  0.70185  0.35504  0.62177  1.0000
  C   C786      1.0  0.70592  0.42221  0.68015  1.0000
  C   C787      1.0  0.71323  0.43214  0.65340  1.0000
  C   C788      1.0  0.72680  0.45848  0.64964  1.0000
  C   C789      1.0  0.73330  0.47525  0.67249  1.0000
  C   C790      1.0  0.72597  0.46531  0.69925  1.0000
  C   C791      1.0  0.71233  0.43896  0.70301  1.0000
  H   H935      1.0  0.70841  0.41955  0.63560  1.0000
  H   H936      1.0  0.73231  0.46590  0.62884  1.0000
  H   H937      1.0  0.73082  0.47792  0.71704  1.0000
  H   H938      1.0  0.70683  0.43152  0.72381  1.0000
  N   N52       1.0  0.69786  0.18186  0.76946  1.0000
  C   C792      1.0  0.97456  0.48717  0.86645  1.0000
  C   C793      1.0  0.73619  0.25861  0.69264  1.0000
  C   C794      1.0  0.72396  0.27104  0.70233  1.0000
  C   C795      1.0  0.71422  0.28167  0.68348  1.0000
  C   C796      1.0  0.71668  0.28006  0.65464  1.0000
  C   C797      1.0  0.72897  0.26768  0.64499  1.0000
  C   C798      1.0  0.73863  0.25698  0.66381  1.0000
  H   H939      1.0  0.72196  0.27247  0.72456  1.0000
  H   H940      1.0  0.70486  0.29115  0.69126  1.0000
  H   H941      1.0  0.73095  0.26625  0.62274  1.0000
  H   H942      1.0  0.74792  0.24746  0.65598  1.0000
  C   C799      1.0  0.90720  0.31184  0.80657  1.0000
  C   C800      1.0  0.91739  0.31096  0.78104  1.0000
  C   C801      1.0  0.90226  0.29405  0.75964  1.0000
  C   C802      1.0  0.87679  0.27762  0.76343  1.0000
  C   C803      1.0  0.86673  0.27810  0.78921  1.0000
  C   C804      1.0  0.88179  0.29519  0.81048  1.0000
  H   H943      1.0  0.93685  0.32355  0.77763  1.0000
  H   H944      1.0  0.91036  0.29381  0.73992  1.0000
  H   H945      1.0  0.84739  0.26527  0.79289  1.0000
  H   H946      1.0  0.87371  0.29553  0.83018  1.0000
  H   H947      1.0  0.73042  0.18472  0.78871  1.0000
  C   C805      1.0  0.80536  0.21202  0.56466  1.0000
  H   H948      1.0  0.95158  0.41845  0.94757  1.0000
  H   H949      1.0  0.84700  0.10339  0.57493  1.0000
  C   C806      1.0  0.79620  0.11635  0.64887  1.0000
  C   C807      1.0  0.67648  0.07400  0.78308  1.0000
  C   C808      1.0  0.69004  0.08747  0.80682  1.0000
  C   C809      1.0  0.71181  0.11109  0.80398  1.0000
  C   C810      1.0  0.72033  0.12164  0.77748  1.0000
  C   C811      1.0  0.70669  0.10822  0.75374  1.0000
  C   C812      1.0  0.68496  0.08457  0.75657  1.0000
  C   C813      1.0  0.65983  0.14587  0.83223  1.0000
  H   H950      1.0  0.72217  0.12126  0.82251  1.0000
  H   H951      1.0  0.71298  0.11596  0.73321  1.0000
  H   H952      1.0  0.97657  0.41186  0.94555  1.0000
  C   C814      1.0  0.83802  0.16232  0.58512  1.0000
  C   C815      1.0  0.81352  0.15230  0.57585  1.0000
  C   C816      1.0  0.79673  0.15570  0.59190  1.0000
  C   C817      1.0  0.80403  0.16900  0.61750  1.0000
  C   C818      1.0  0.82843  0.17882  0.62695  1.0000
  C   C819      1.0  0.84529  0.17552  0.61081  1.0000
  H   H953      1.0  0.80733  0.14191  0.55641  1.0000
  H   H954      1.0  0.77790  0.14801  0.58444  1.0000
  H   H955      1.0  0.83435  0.18910  0.64658  1.0000
  H   H956      1.0  0.86413  0.18330  0.61830  1.0000
  H   H957      1.0  0.73568  0.21232  0.77003  1.0000
  H   H958      1.0  0.66877  0.18785  0.75425  1.0000
  H   H959      1.0  0.87151  0.22423  0.55352  1.0000
  H   H960      1.0  0.67464  0.07441  0.73803  1.0000
  H   H961      1.0  0.76075  0.39119  0.55245  1.0000
  H   H962      1.0  0.79615  0.19640  0.52363  1.0000
  C   C820      1.0  0.84719  0.22760  0.58087  1.0000
  H   H963      1.0  0.69936  0.21423  0.74974  1.0000
  H   H964      1.0  0.84239  0.11172  0.61966  1.0000
  C   C821      1.0  0.66747  0.03840  0.97811  1.0000
  S   S230      1.0  0.66006  0.31719  0.66668  1.0000
  C   C822      1.0  0.91503  0.45275  0.79165  1.0000
  H   H965      1.0  0.72087  0.31111  0.56406  1.0000
  H   H966      1.0  0.87762  0.43701  0.77674  1.0000
  C   C823      1.0  0.67152  0.05945  0.96299  1.0000
  H   H967      1.0  0.79385  0.04121  0.56246  1.0000
  C   C824      1.0  0.82344  0.22305  0.58559  1.0000
  H   H968      1.0  0.68381  0.07973  0.82736  1.0000
  C   C825      1.0  0.68750  0.19855  0.76411  1.0000
  H   H969      1.0  0.74267  0.31056  0.52672  1.0000
  C   C826      1.0  0.72268  0.32980  0.56795  1.0000
  N   N53       1.0  0.74415  0.35072  0.55401  1.0000
  C   C827      1.0  0.72234  0.19680  0.78354  1.0000
  C   C828      1.0  0.78791  0.00010  0.50136  1.0000
  C   C829      1.0  0.74471  0.37447  0.56168  1.0000
  C   C830      1.0  0.74236  0.34588  0.52348  1.0000
  H   H970      1.0  0.74023  0.37889  0.50947  1.0000
  H   H971      1.0  0.97242  0.42955  0.91894  1.0000
  H   H972      1.0  0.66346  0.02129  0.96702  1.0000
  H   H973      1.0  0.97024  0.35724  0.95021  1.0000
  C   C831      1.0  0.89504  0.47723  0.78296  1.0000
  C   C832      1.0  0.98256  0.47099  0.85612  1.0000
  H   H974      1.0  0.72419  0.33238  0.59102  1.0000
  H   H975      1.0  0.79312  0.04313  0.60001  1.0000
  H   H976      1.0  0.77097  0.04590  0.57822  1.0000
  C   C833      1.0  0.97126  0.42641  0.94195  1.0000
  H   H977      1.0  0.72741  0.37403  0.55482  1.0000
  C   C834      1.0  0.78040  0.08811  0.60887  1.0000
  C   C835      1.0  0.70194  0.17359  0.74187  1.0000
  C   C836      1.0  0.89434  0.45407  0.78316  1.0000
  Fe  Fe117     1.0  0.67060  0.34373  0.59069  1.0000
  N   N54       1.0  0.84026  0.20206  0.50616  1.0000
  C   C837      1.0  0.79064  0.05108  0.58014  1.0000
  H   H978      1.0  0.87292  0.20078  0.51848  1.0000
  H   H979      1.0  0.86091  0.23529  0.59765  1.0000
  H   H980      1.0  0.87838  0.47690  0.77621  1.0000
  H   H981      1.0  0.83488  0.13257  0.65801  1.0000
  H   H982      1.0  0.78668  0.20767  0.56890  1.0000
  H   H983      1.0  0.81562  0.10907  0.55144  1.0000
  H   H984      1.0  0.67333  0.31548  0.52868  1.0000
  C   C838      1.0  0.67730  0.35057  0.51458  1.0000
  H   H985      1.0  0.72147  0.20575  0.80332  1.0000
  C   C839      1.0  0.74107  0.36238  0.50353  1.0000
  H   H986      1.0  0.80464  0.07924  0.53434  1.0000
  H   H987      1.0  0.71093  0.16197  0.74429  1.0000
  H   H988      1.0  0.97530  0.45229  0.86455  1.0000
  C   C840      1.0  0.85302  0.22107  0.55524  1.0000
  H   H989      1.0  0.96107  0.48076  0.88282  1.0000
  H   H990      1.0  0.80565  0.16663  0.50620  1.0000
  H   H991      1.0  0.78360  0.36697  0.55456  1.0000
  C   C841      1.0  0.77665  0.10060  0.63106  1.0000
  C   C842      1.0  0.98656  0.44669  0.98861  1.0000
  H   H992      1.0  0.95261  0.47351  0.80673  1.0000
  H   H993      1.0  0.74617  0.37760  0.58474  1.0000
  C   C843      1.0  0.67436  0.00087  0.74593  1.0000
  N   N55       1.0  0.80772  0.07872  0.57923  1.0000
  C   C844      1.0  0.80257  0.08851  0.55326  1.0000
  H   H994      1.0  0.83833  0.07586  0.59616  1.0000
  C   C845      1.0  0.80404  0.09122  0.60371  1.0000
  C   C846      1.0  0.82361  0.10747  0.62230  1.0000
  C   C847      1.0  0.86668  0.20987  0.50273  1.0000
  C   C848      1.0  0.81957  0.11967  0.64458  1.0000
  H   H995      1.0  0.76476  0.07654  0.59531  1.0000
  H   H996      1.0  0.75868  0.09869  0.63408  1.0000
  H   H997      1.0  0.70512  0.32864  0.56110  1.0000
  H   H998      1.0  0.78353  0.08541  0.55228  1.0000
  C   C849      1.0  0.93652  0.47456  0.80001  1.0000
  C   C850      1.0  0.83320  0.08302  0.57739  1.0000
  H   H999      1.0  0.76955  0.35712  0.58827  1.0000
  H   H1000     1.0  0.71429  0.18999  0.72870  1.0000
  H   H1001     1.0  0.83186  0.16546  0.51989  1.0000
  C   C851      1.0  0.67607  0.32737  0.51090  1.0000
  H   H1002     1.0  0.68439  0.16265  0.72969  1.0000
  H   H1003     1.0  0.76677  0.33416  0.56361  1.0000
  H   H1004     1.0  0.91447  0.43482  0.79186  1.0000
  C   C852      1.0  0.83505  0.20996  0.53329  1.0000
  H   H1005     1.0  0.77744  0.00414  0.51613  1.0000
  H   H1006     1.0  0.96115  0.40567  0.98968  1.0000
  H   H1007     1.0  0.79341  0.12665  0.66549  1.0000
  S   S231      1.0  0.67641  0.36244  0.54811  1.0000
  C   C853      1.0  0.98010  0.36747  0.96894  1.0000
  H   H1008     1.0  0.81872  0.22710  0.60593  1.0000
  H   H1009     1.0  0.95534  0.19282  0.54064  1.0000
  H   H1010     1.0  0.98351  0.23005  0.51315  1.0000
  N   N56       1.0  0.82777  0.30728  0.73983  1.0000
  C   C854      1.0  0.81356  0.32064  0.73913  1.0000
  C   C855      1.0  0.82726  0.29787  0.71105  1.0000
  C   C856      1.0  0.81487  0.28497  0.75799  1.0000
  C   C857      1.0  0.85303  0.32424  0.75114  1.0000
  C   C858      1.0  0.87469  0.33035  0.73601  1.0000
  C   C859      1.0  0.85653  0.33491  0.77838  1.0000
  C   C860      1.0  0.89822  0.34620  0.74755  1.0000
  C   C861      1.0  0.88016  0.35043  0.78984  1.0000
  C   C862      1.0  0.90095  0.35610  0.77443  1.0000
  H   H1011     1.0  0.82318  0.33813  0.72657  1.0000
  H   H1012     1.0  0.79474  0.30861  0.72970  1.0000
  H   H1013     1.0  0.81076  0.32600  0.76036  1.0000
  H   H1014     1.0  0.83670  0.28660  0.71032  1.0000
  H   H1015     1.0  0.83614  0.31359  0.69595  1.0000
  H   H1016     1.0  0.80798  0.28515  0.70325  1.0000
  H   H1017     1.0  0.79564  0.27203  0.75034  1.0000
  H   H1018     1.0  0.82474  0.27413  0.75846  1.0000
  H   H1019     1.0  0.81353  0.28998  0.77992  1.0000
  H   H1020     1.0  0.87405  0.32246  0.71563  1.0000
  H   H1021     1.0  0.84103  0.33076  0.79138  1.0000
  H   H1022     1.0  0.91450  0.34989  0.73614  1.0000
  H   H1023     1.0  0.88250  0.35739  0.81116  1.0000
  H   H1024     1.0  0.91923  0.36728  0.78384  1.0000
  C   C863      1.0  0.97484  0.20348  0.54619  1.0000
  S   S232      1.0  0.81703  0.05203  0.49793  1.0000
  H   H1025     1.0  0.69107  0.00031  0.75309  1.0000
  H   H1026     1.0  0.68602  0.20759  0.78352  1.0000
  H   H1027     1.0  0.67363  0.12927  0.75915  1.0000
  H   H1028     1.0  0.68316  0.18454  0.82253  1.0000
  H   H1029     1.0  0.87875  0.23067  0.50447  1.0000
  H   H1030     1.0  0.96141  0.46279  0.95742  1.0000
  C   C864      1.0  0.67622  0.08134  0.97705  1.0000
  C   C865      1.0  0.67012  0.13498  0.77910  1.0000
  H   H1031     1.0  0.67941  0.09769  0.96516  1.0000
  H   H1032     1.0  0.97166  0.17904  0.57980  1.0000
  C   C866      1.0  0.97035  0.35808  0.99554  1.0000
  H   H1033     1.0  0.98786  0.15303  0.50965  1.0000
  C   C867      1.0  0.98029  0.46869  0.94996  1.0000
  H   H1034     1.0  0.98028  0.47104  0.92684  1.0000
  C   C868      1.0  0.98414  0.19564  0.56813  1.0000
  N   N57       1.0  0.98768  0.45000  0.95785  1.0000
  H   H1035     1.0  0.65597  0.14999  0.85298  1.0000
  H   H1036     1.0  0.69086  0.63744  0.09764  1.0000
  H   H1037     1.0  0.91527  0.69753  0.42105  1.0000
  Fe  Fe118     1.0  0.70979  0.84649  0.46097  1.0000
  S   S233      1.0  0.68006  0.81887  0.42987  1.0000
  S   S234      1.0  0.75109  0.86389  0.45645  1.0000
  Fe  Fe119     1.0  0.86167  0.71421  0.46204  1.0000
  S   S235      1.0  0.86269  0.68594  0.43133  1.0000
  S   S236      1.0  0.88374  0.75676  0.46148  1.0000
  C   C869      1.0  0.92944  0.71273  0.47232  1.0000
  Fe  Fe120     1.0  0.96753  0.60894  0.14789  1.0000
  H   H1038     1.0  0.66665  0.86583  0.35404  1.0000
  S   S237      1.0  0.93562  0.61675  0.15487  1.0000
  N   N58       1.0  0.83122  0.90565  0.46443  1.0000
  H   H1039     1.0  0.67282  0.81535  0.30684  1.0000
  S   S238      1.0  0.96019  0.57449  0.12354  1.0000
  H   H1040     1.0  0.66940  0.61549  0.12256  1.0000
  Fe  Fe121     1.0  0.79841  0.60466  0.28915  1.0000
  S   S239      1.0  0.80281  0.60366  0.24231  1.0000
  S   S240      1.0  0.81491  0.64353  0.31001  1.0000
  Fe  Fe122     1.0  0.76851  0.54674  0.29247  1.0000
  S   S241      1.0  0.77164  0.54203  0.24655  1.0000
  C   C870      1.0  0.66464  0.82255  0.40019  1.0000
  Fe  Fe123     1.0  0.81154  0.57292  0.25129  1.0000
  S   S242      1.0  0.84452  0.56849  0.23915  1.0000
  Fe  Fe124     1.0  0.76257  0.57323  0.24136  1.0000
  S   S243      1.0  0.73216  0.56536  0.20863  1.0000
  S   S244      1.0  0.80884  0.57536  0.29807  1.0000
  S   S245      1.0  0.75764  0.57641  0.28739  1.0000
  C   C871      1.0  0.71336  0.57930  0.20350  1.0000
  C   C872      1.0  0.71913  0.60233  0.21585  1.0000
  C   C873      1.0  0.70471  0.61353  0.20956  1.0000
  C   C874      1.0  0.68408  0.60174  0.19124  1.0000
  S   S246      1.0  0.83338  0.77852  0.46939  1.0000
  C   C875      1.0  0.69250  0.56730  0.18552  1.0000
  H   H1041     1.0  0.73509  0.61188  0.22966  1.0000
  H   H1042     1.0  0.70975  0.63164  0.21874  1.0000
  S   S247      1.0  0.82893  0.71326  0.48182  1.0000
  H   H1043     1.0  0.68777  0.54945  0.17589  1.0000
  S   S248      1.0  0.78489  0.93713  0.46639  1.0000
  H   H1044     1.0  0.96720  0.65241  0.24866  1.0000
  C   C876      1.0  0.81470  0.89786  0.48885  1.0000
  C   C877      1.0  0.91008  0.60257  0.17802  1.0000
  C   C878      1.0  0.90760  0.58491  0.19806  1.0000
  C   C879      1.0  0.88745  0.57477  0.21643  1.0000
  C   C880      1.0  0.86942  0.58204  0.21511  1.0000
  C   C881      1.0  0.87181  0.59962  0.19497  1.0000
  C   C882      1.0  0.89203  0.60984  0.17665  1.0000
  H   H1045     1.0  0.92128  0.57912  0.19952  1.0000
  H   H1046     1.0  0.88586  0.56117  0.23183  1.0000
  H   H1047     1.0  0.85809  0.60533  0.19348  1.0000
  H   H1048     1.0  0.89372  0.62352  0.16131  1.0000
  C   C883      1.0  0.68712  0.60260  0.06119  1.0000
  C   C884      1.0  0.68236  0.77098  0.35620  1.0000
  C   C885      1.0  0.84732  0.67343  0.39856  1.0000
  C   C886      1.0  0.83895  0.68620  0.38152  1.0000
  C   C887      1.0  0.82877  0.67656  0.35471  1.0000
  C   C888      1.0  0.82622  0.65374  0.34481  1.0000
  C   C889      1.0  0.83415  0.64071  0.36207  1.0000
  C   C890      1.0  0.84491  0.65068  0.38860  1.0000
  H   H1049     1.0  0.84086  0.70381  0.38869  1.0000
  H   H1050     1.0  0.82285  0.68690  0.34151  1.0000
  H   H1051     1.0  0.83234  0.62316  0.35486  1.0000
  H   H1052     1.0  0.85134  0.64064  0.40155  1.0000
  C   C891      1.0  0.81428  0.98909  0.46313  1.0000
  S   S249      1.0  0.98603  0.58917  0.04946  1.0000
  C   C892      1.0  0.93558  0.71072  0.42333  1.0000
  C   C893      1.0  0.65876  0.57363  0.09474  1.0000
  C   C894      1.0  0.86307  0.89878  0.44099  1.0000
  C   C895      1.0  0.75033  0.75161  0.49140  1.0000
  H   H1053     1.0  0.70088  0.56781  0.08559  1.0000
  C   C896      1.0  0.70978  0.58197  0.10181  1.0000
  C   C897      1.0  0.67780  0.57827  0.17966  1.0000
  C   C898      1.0  0.69418  0.79678  0.36164  1.0000
  C   C899      1.0  0.95066  0.62443  0.07251  1.0000
  H   H1054     1.0  0.88921  0.59562  0.05792  1.0000
  H   H1055     1.0  0.78324  0.81964  0.45958  1.0000
  H   H1056     1.0  0.68815  0.86265  0.39665  1.0000
  H   H1057     1.0  0.96615  0.62146  0.06668  1.0000
  C   C900      1.0  0.70488  0.51654  0.26298  1.0000
  C   C901      1.0  0.97502  0.80384  0.48214  1.0000
  H   H1058     1.0  0.70420  0.62102  0.05779  1.0000
  Fe  Fe125     1.0  0.75412  0.89764  0.47992  1.0000
  C   C902      1.0  0.67433  0.54174  0.25925  1.0000
  C   C903      1.0  0.92926  0.60511  0.02901  1.0000
  H   H1059     1.0  0.93590  0.64681  0.21311  1.0000
  H   H1060     1.0  0.93599  0.64344  0.02447  1.0000
  C   C904      1.0  0.80552  0.80192  0.46453  1.0000
  C   C905      1.0  0.84341  0.87413  0.48204  1.0000
  H   H1061     1.0  0.93386  0.75711  0.46002  1.0000
  H   H1062     1.0  0.71516  0.53677  0.25754  1.0000
  H   H1063     1.0  0.82657  0.90700  0.41960  1.0000
  H   H1064     1.0  0.68990  0.58760  0.05206  1.0000
  C   C906      1.0  0.67560  0.80245  0.31965  1.0000
  C   C907      1.0  0.81722  0.79326  0.48319  1.0000
  N   N59       1.0  0.88315  0.64878  0.28084  1.0000
  C   C908      1.0  0.88885  0.67188  0.29685  1.0000
  C   C909      1.0  0.86611  0.64611  0.25745  1.0000
  C   C910      1.0  0.86969  0.62668  0.29918  1.0000
  C   C911      1.0  0.90625  0.65021  0.27151  1.0000
  C   C912      1.0  0.91098  0.64798  0.24295  1.0000
  C   C913      1.0  0.92472  0.65344  0.29138  1.0000
  C   C914      1.0  0.93279  0.64887  0.23500  1.0000
  C   C915      1.0  0.94648  0.65432  0.28317  1.0000
  C   C916      1.0  0.95046  0.65198  0.25503  1.0000
  H   H1065     1.0  0.89990  0.68906  0.28418  1.0000
  H   H1066     1.0  0.87167  0.67171  0.30313  1.0000
  H   H1067     1.0  0.89925  0.67392  0.31660  1.0000
  H   H1068     1.0  0.87489  0.66223  0.24283  1.0000
  H   H1069     1.0  0.84920  0.64567  0.26521  1.0000
  H   H1070     1.0  0.85970  0.62819  0.24554  1.0000
  H   H1071     1.0  0.88044  0.62784  0.31834  1.0000
  H   H1072     1.0  0.85211  0.62500  0.30645  1.0000
  H   H1073     1.0  0.86510  0.60888  0.28792  1.0000
  H   H1074     1.0  0.89804  0.64520  0.22629  1.0000
  H   H1075     1.0  0.92232  0.65502  0.31346  1.0000
  N   N60       1.0  0.68383  0.51035  0.28141  1.0000
  H   H1076     1.0  0.96026  0.65664  0.29870  1.0000
  H   H1077     1.0  0.66183  0.56873  0.16594  1.0000
  N   N61       1.0  0.94155  0.72825  0.44740  1.0000
  S   S250      1.0  0.98289  0.53795  0.17201  1.0000
  H   H1078     1.0  0.69860  0.50585  0.24286  1.0000
  C   C917      1.0  0.90713  0.60956  0.06793  1.0000
  C   C918      1.0  0.84773  0.93338  0.46646  1.0000
  C   C919      1.0  0.98300  0.75971  0.42835  1.0000
  C   C920      1.0  0.93394  0.62694  0.01388  1.0000
  H   H1079     1.0  0.70433  0.54599  0.30369  1.0000
  H   H1080     1.0  0.66484  0.56754  0.24001  1.0000
  H   H1081     1.0  0.80671  0.79970  0.44225  1.0000
  H   H1082     1.0  0.82460  0.98505  0.44814  1.0000
  C   C921      1.0  0.85701  0.86190  0.47924  1.0000
  C   C922      1.0  0.66027  0.84765  0.36354  1.0000
  H   H1083     1.0  0.79007  0.50392  0.31915  1.0000
  H   H1084     1.0  0.96014  0.80201  0.46879  1.0000
  H   H1085     1.0  0.91971  0.58044  0.09559  1.0000
  H   H1086     1.0  0.80338  0.87890  0.43605  1.0000
  S   S251      1.0  0.66762  0.61771  0.18287  1.0000
  H   H1087     1.0  0.91000  0.73247  0.43886  1.0000
  C   C923      1.0  0.93036  0.74414  0.44204  1.0000
  Fe  Fe126     1.0  0.85168  0.75573  0.48453  1.0000
  C   C924      1.0  0.92146  0.58022  0.07241  1.0000
  C   C925      1.0  0.69335  0.52544  0.30763  1.0000
  H   H1088     1.0  0.90916  0.70035  0.46877  1.0000
  N   N62       1.0  0.68120  0.59867  0.09132  1.0000
  C   C926      1.0  0.79348  0.96893  0.47564  1.0000
  C   C927      1.0  0.74063  0.59930  0.13901  1.0000
  H   H1089     1.0  0.93769  0.75591  0.42314  1.0000
  C   C928      1.0  0.70208  0.59967  0.10740  1.0000
  S   S252      1.0  0.71272  0.88106  0.48157  1.0000
  C   C929      1.0  0.71495  0.61756  0.12921  1.0000
  H   H1090     1.0  0.91110  0.62870  0.06198  1.0000
  C   C930      1.0  0.73398  0.61732  0.14459  1.0000
  H   H1091     1.0  0.73373  0.56757  0.11358  1.0000
  H   H1092     1.0  0.69310  0.55677  0.26317  1.0000
  H   H1093     1.0  0.93689  0.70017  0.47761  1.0000
  C   C931      1.0  0.96867  0.74447  0.45078  1.0000
  H   H1094     1.0  0.75330  0.76017  0.47095  1.0000
  C   C932      1.0  0.72866  0.58174  0.11757  1.0000
  H   H1095     1.0  0.97446  0.76012  0.40874  1.0000
  H   H1096     1.0  0.86589  0.91273  0.42550  1.0000
  H   H1097     1.0  0.80343  0.90808  0.43962  1.0000
  C   C933      1.0  0.66647  0.51652  0.26698  1.0000
  C   C934      1.0  0.84598  0.89297  0.46284  1.0000
  H   H1098     1.0  0.71014  0.63140  0.13561  1.0000
  H   H1099     1.0  0.65832  0.74056  0.32974  1.0000
  H   H1100     1.0  0.74292  0.63054  0.16179  1.0000
  H   H1101     1.0  0.75466  0.59855  0.15187  1.0000
  C   C935      1.0  0.69099  0.81249  0.34325  1.0000
  H   H1102     1.0  0.90378  0.56437  0.06405  1.0000
  S   S253      1.0  0.74909  0.51537  0.32434  1.0000
  H   H1103     1.0  0.94463  0.69921  0.42594  1.0000
  H   H1104     1.0  0.68473  0.75884  0.37081  1.0000
  H   H1105     1.0  0.66075  0.55804  0.08594  1.0000
  H   H1106     1.0  0.71851  0.51241  0.27314  1.0000
  H   H1107     1.0  0.85909  0.94136  0.44758  1.0000
  H   H1108     1.0  0.88932  0.89093  0.42138  1.0000
  H   H1109     1.0  0.93650  0.57597  0.06861  1.0000
  C   C936      1.0  0.66319  0.77623  0.31346  1.0000
  H   H1110     1.0  0.97228  0.73607  0.49473  1.0000
  H   H1111     1.0  0.80422  0.90804  0.48975  1.0000
  H   H1112     1.0  0.90461  0.60844  0.09107  1.0000
  C   C937      1.0  0.66711  0.76071  0.33246  1.0000
  C   C938      1.0  0.79215  0.81328  0.47431  1.0000
  N   N63       1.0  0.92708  0.60462  0.05984  1.0000
  C   C939      1.0  0.67507  0.61800  0.10031  1.0000
  C   C940      1.0  0.67250  0.84593  0.38776  1.0000
  H   H1113     1.0  0.92515  0.56766  0.02288  1.0000
  C   C941      1.0  0.87654  0.88638  0.43838  1.0000
  H   H1114     1.0  0.93170  0.72475  0.49091  1.0000
  H   H1115     1.0  0.70532  0.80458  0.38054  1.0000
  H   H1116     1.0  0.67798  0.52213  0.32158  1.0000
  C   C942      1.0  0.65916  0.77885  0.26308  1.0000
  C   C943      1.0  0.92766  0.58466  0.01325  1.0000
  H   H1117     1.0  0.69972  0.83248  0.34795  1.0000
  H   H1118     1.0  0.94150  0.72076  0.40314  1.0000
  H   H1119     1.0  0.95560  0.64367  0.06576  1.0000
  H   H1120     1.0  0.94984  0.62445  0.09576  1.0000
  H   H1121     1.0  0.70589  0.52071  0.31953  1.0000
  H   H1122     1.0  0.80955  0.52306  0.27435  1.0000
  C   C944      1.0  0.87342  0.86788  0.45741  1.0000
  H   H1123     1.0  0.83699  0.94328  0.46870  1.0000
  H   H1124     1.0  0.88357  0.85798  0.45517  1.0000
  H   H1125     1.0  0.67186  0.60252  0.04871  1.0000
  C   C945      1.0  0.81554  0.89964  0.43881  1.0000
  H   H1126     1.0  0.77583  0.73906  0.48461  1.0000
  H   H1127     1.0  0.65939  0.61682  0.08780  1.0000
  C   C946      1.0  0.65833  0.54813  0.24576  1.0000
  H   H1128     1.0  0.80069  0.87743  0.48783  1.0000
  C   C947      1.0  0.98158  0.74599  0.47610  1.0000
  H   H1129     1.0  0.77695  0.70380  0.49261  1.0000
  H   H1130     1.0  0.67587  0.77717  0.26015  1.0000
  H   H1131     1.0  0.86049  0.93863  0.48489  1.0000
  H   H1132     1.0  0.80938  0.49636  0.23576  1.0000
  C   C948      1.0  0.80116  0.50288  0.27719  1.0000
  H   H1133     1.0  0.66506  0.79921  0.26321  1.0000
  H   H1134     1.0  0.85449  0.84731  0.49383  1.0000
  C   C949      1.0  0.78038  0.97469  0.49491  1.0000
  S   S254      1.0  0.93872  0.77146  0.51963  1.0000
  H   H1135     1.0  0.86349  0.63811  0.57220  1.0000
  C   C950      1.0  0.74632  0.86067  0.60380  1.0000
  C   C951      1.0  0.66248  0.81824  0.57805  1.0000
  Fe  Fe127     1.0  0.71489  0.86332  0.52216  1.0000
  S   S255      1.0  0.69798  0.86701  0.56274  1.0000
  S   S256      1.0  0.75639  0.88208  0.52165  1.0000
  H   H1136     1.0  0.82526  0.90200  0.50894  1.0000
  H   H1137     1.0  0.92997  0.57063  0.97271  1.0000
  H   H1138     1.0  0.67355  0.79717  0.65688  1.0000
  H   H1139     1.0  0.92455  0.55381  0.82141  1.0000
  H   H1140     1.0  0.68955  0.77373  0.68349  1.0000
  H   H1141     1.0  0.77235  0.71797  0.57930  1.0000
  Fe  Fe128     1.0  0.84623  0.71346  0.52360  1.0000
  S   S257      1.0  0.81788  0.68541  0.55424  1.0000
  S   S258      1.0  0.86762  0.75597  0.52730  1.0000
  C   C952      1.0  0.80654  0.58627  0.58372  1.0000
  S   S259      1.0  0.95799  0.58406  0.87152  1.0000
  C   C953      1.0  0.79384  0.59024  0.56124  1.0000
  S   S260      1.0  0.97199  0.53051  0.86835  1.0000
  Fe  Fe129     1.0  0.96491  0.60347  0.82994  1.0000
  S   S261      1.0  0.93703  0.60152  0.79653  1.0000
  H   H1142     1.0  0.80123  0.81023  0.54396  1.0000
  H   H1143     1.0  0.76037  0.56859  0.60293  1.0000
  Fe  Fe130     1.0  0.80016  0.59836  0.69093  1.0000
  S   S262      1.0  0.79720  0.60617  0.73632  1.0000
  S   S263      1.0  0.82773  0.62803  0.66106  1.0000
  Fe  Fe131     1.0  0.76525  0.54137  0.69746  1.0000
  S   S264      1.0  0.75936  0.54489  0.74334  1.0000
  C   C954      1.0  0.93741  0.49775  0.79997  1.0000
  Fe  Fe132     1.0  0.75625  0.57883  0.73143  1.0000
  S   S265      1.0  0.72903  0.59184  0.74424  1.0000
  Fe  Fe133     1.0  0.80083  0.57222  0.74585  1.0000
  S   S266      1.0  0.82322  0.57233  0.78463  1.0000
  S   S267      1.0  0.75923  0.57342  0.68525  1.0000
  S   S268      1.0  0.80660  0.56621  0.70093  1.0000
  H   H1144     1.0  0.75649  0.86881  0.62387  1.0000
  C   C955      1.0  0.70631  0.58642  0.76970  1.0000
  C   C956      1.0  0.70000  0.56875  0.79106  1.0000
  C   C957      1.0  0.68228  0.56570  0.81100  1.0000
  C   C958      1.0  0.67047  0.58009  0.80984  1.0000
  C   C959      1.0  0.67670  0.59766  0.78841  1.0000
  C   C960      1.0  0.69449  0.60079  0.76856  1.0000
  H   H1145     1.0  0.70879  0.55749  0.79229  1.0000
  C   C961      1.0  0.75998  0.72826  0.52620  1.0000
  H   H1146     1.0  0.79415  0.53822  0.57495  1.0000
  H   H1147     1.0  0.69919  0.61453  0.75219  1.0000
  H   H1148     1.0  0.80774  0.74337  0.51432  1.0000
  C   C962      1.0  0.89523  0.52398  0.78216  1.0000
  C   C963      1.0  0.90530  0.59332  0.79406  1.0000
  C   C964      1.0  0.89565  0.59520  0.76795  1.0000
  C   C965      1.0  0.87069  0.58879  0.76464  1.0000
  C   C966      1.0  0.85488  0.58031  0.78746  1.0000
  C   C967      1.0  0.86446  0.57820  0.81355  1.0000
  C   C968      1.0  0.88945  0.58460  0.81686  1.0000
  H   H1149     1.0  0.90763  0.60190  0.75012  1.0000
  H   H1150     1.0  0.86375  0.59061  0.74445  1.0000
  H   H1151     1.0  0.85249  0.57164  0.83138  1.0000
  H   H1152     1.0  0.89646  0.58296  0.83707  1.0000
  C   C969      1.0  0.80087  0.73502  0.53518  1.0000
  H   H1153     1.0  0.87965  0.51220  0.79621  1.0000
  H   H1154     1.0  0.66898  0.98292  0.79782  1.0000
  C   C970      1.0  0.82122  0.67035  0.58444  1.0000
  C   C971      1.0  0.79986  0.65256  0.59831  1.0000
  C   C972      1.0  0.80144  0.63980  0.62209  1.0000
  C   C973      1.0  0.82448  0.64455  0.63220  1.0000
  C   C974      1.0  0.84585  0.66261  0.61855  1.0000
  C   C975      1.0  0.84428  0.67547  0.59485  1.0000
  H   H1155     1.0  0.78194  0.64855  0.59059  1.0000
  H   H1156     1.0  0.78485  0.62636  0.63259  1.0000
  H   H1157     1.0  0.86378  0.66657  0.62626  1.0000
  H   H1158     1.0  0.86089  0.68919  0.58457  1.0000
  C   C976      1.0  0.67411  0.84409  0.58392  1.0000
  C   C977      1.0  0.76987  0.69604  0.51361  1.0000
  H   H1159     1.0  0.76331  0.55229  0.63218  1.0000
  H   H1160     1.0  0.71879  0.74493  0.55070  1.0000
  H   H1161     1.0  0.81232  0.72683  0.54212  1.0000
  H   H1162     1.0  0.76455  0.81862  0.58871  1.0000
  H   H1163     1.0  0.88999  0.51687  0.76028  1.0000
  C   C978      1.0  0.70036  0.78614  0.66678  1.0000
  H   H1164     1.0  0.80557  0.58774  0.83604  1.0000
  H   H1165     1.0  0.98590  0.78547  0.54503  1.0000
  C   C979      1.0  0.74351  0.73054  0.54454  1.0000
  H   H1166     1.0  0.77872  0.84493  0.61337  1.0000
  C   C980      1.0  0.79022  0.81615  0.50306  1.0000
  N   N64       1.0  0.77421  0.71592  0.53437  1.0000
  H   H1167     1.0  0.75702  0.87363  0.58661  1.0000
  H   H1168     1.0  0.72997  0.77838  0.67181  1.0000
  H   H1169     1.0  0.72533  0.76400  0.50382  1.0000
  H   H1170     1.0  0.74008  0.72294  0.56538  1.0000
  H   H1171     1.0  0.76189  0.59467  0.87884  1.0000
  C   C981      1.0  0.83216  0.60405  0.58701  1.0000
  H   H1172     1.0  0.82521  0.79095  0.52657  1.0000
  C   C982      1.0  0.93819  0.54196  0.77246  1.0000
  H   H1173     1.0  0.73745  0.83529  0.55440  1.0000
  H   H1174     1.0  0.93988  0.56090  0.77172  1.0000
  C   C983      1.0  0.96969  0.79143  0.50785  1.0000
  H   H1175     1.0  0.77109  0.52434  0.60152  1.0000
  C   C984      1.0  0.73458  0.75378  0.50992  1.0000
  S   S269      1.0  0.75042  0.50829  0.66631  1.0000
  H   H1176     1.0  0.73101  0.60424  0.89517  1.0000
  C   C985      1.0  0.93692  0.62823  0.98489  1.0000
  C   C986      1.0  0.77401  0.56807  0.61755  1.0000
  C   C987      1.0  0.76303  0.73926  0.49940  1.0000
  H   H1177     1.0  0.84323  0.60330  0.60409  1.0000
  C   C988      1.0  0.93043  0.58609  0.98422  1.0000
  S   S270      1.0  0.77348  0.83019  0.51698  1.0000
  C   C989      1.0  0.83105  0.62778  0.54714  1.0000
  H   H1178     1.0  0.78274  0.58594  0.62993  1.0000
  C   C990      1.0  0.78059  0.54075  0.58721  1.0000
  H   H1179     1.0  0.71304  0.62281  0.86348  1.0000
  H   H1180     1.0  0.76434  0.95957  0.50473  1.0000
  C   C991      1.0  0.80903  0.56291  0.62486  1.0000
  C   C992      1.0  0.72312  0.78879  0.66011  1.0000
  C   C993      1.0  0.81572  0.79665  0.51190  1.0000
  H   H1181     1.0  0.81785  0.57988  0.63874  1.0000
  C   C994      1.0  0.92431  0.53557  0.82017  1.0000
  N   N65       1.0  0.74203  0.83485  0.59906  1.0000
  C   C995      1.0  0.72720  0.82445  0.57297  1.0000
  C   C996      1.0  0.76646  0.83709  0.59455  1.0000
  C   C997      1.0  0.72835  0.81846  0.62274  1.0000
  C   C998      1.0  0.73699  0.80463  0.63837  1.0000
  C   C999      1.0  0.70516  0.81533  0.63024  1.0000
  H   H1182     1.0  0.95662  0.54520  0.77912  1.0000
  Fe  Fe134     1.0  0.75104  0.84753  0.49861  1.0000
  C   C1000     1.0  0.76778  0.70386  0.56227  1.0000
  H   H1183     1.0  0.72222  0.80452  0.56941  1.0000
  H   H1184     1.0  0.70982  0.82509  0.57320  1.0000
  H   H1185     1.0  0.89734  0.54315  0.78246  1.0000
  H   H1186     1.0  0.72885  0.86118  0.60448  1.0000
  H   H1187     1.0  0.77632  0.84989  0.57685  1.0000
  H   H1188     1.0  0.75433  0.80564  0.63417  1.0000
  H   H1189     1.0  0.69730  0.82506  0.61927  1.0000
  H   H1190     1.0  0.74985  0.68203  0.51122  1.0000
  C   C1001     1.0  0.91674  0.49986  0.79139  1.0000
  C   C1002     1.0  0.93517  0.60784  0.97010  1.0000
  S   S271      1.0  0.70961  0.82794  0.50196  1.0000
  Fe  Fe135     1.0  0.89822  0.75422  0.50410  1.0000
  H   H1191     1.0  0.72695  0.63254  0.81475  1.0000
  C   C1003     1.0  0.84414  0.62433  0.56877  1.0000
  C   C1004     1.0  0.69140  0.79938  0.65185  1.0000
  H   H1192     1.0  0.94274  0.53947  0.82770  1.0000
  H   H1193     1.0  0.77845  0.69429  0.56739  1.0000
  S   S272      1.0  0.87741  0.71173  0.50378  1.0000
  H   H1194     1.0  0.74791  0.68919  0.56314  1.0000
  H   H1195     1.0  0.76610  0.53942  0.57251  1.0000
  C   C1005     1.0  0.66783  0.85212  0.60846  1.0000
  H   H1196     1.0  0.80481  0.75070  0.54988  1.0000
  C   C1006     1.0  0.80225  0.80788  0.52170  1.0000
  H   H1197     1.0  0.80219  0.60676  0.86205  1.0000
  N   N66       1.0  0.79301  0.56494  0.60303  1.0000
  H   H1198     1.0  0.93458  0.53427  0.75074  1.0000
  H   H1199     1.0  0.75713  0.62261  0.79670  1.0000
  H   H1200     1.0  0.66682  0.81170  0.55915  1.0000
  H   H1201     1.0  0.98068  0.56985  0.99379  1.0000
  C   C1007     1.0  0.80596  0.61077  0.54336  1.0000
  H   H1202     1.0  0.79827  0.54658  0.63888  1.0000
  H   H1203     1.0  0.77799  0.57437  0.85551  1.0000
  H   H1204     1.0  0.77427  0.57784  0.55775  1.0000
  N   N67       1.0  0.91835  0.52476  0.79145  1.0000
  H   H1205     1.0  0.79471  0.62884  0.79134  1.0000
  H   H1206     1.0  0.93836  0.60923  0.94777  1.0000
  N   N68       1.0  0.78065  0.60102  0.82431  1.0000
  C   C1008     1.0  0.76704  0.58029  0.80380  1.0000
  C   C1009     1.0  0.80114  0.62269  0.80988  1.0000
  C   C1010     1.0  0.79200  0.59215  0.84561  1.0000
  C   C1011     1.0  0.76333  0.60827  0.83603  1.0000
  C   C1012     1.0  0.75517  0.60323  0.86412  1.0000
  C   C1013     1.0  0.75274  0.61920  0.81863  1.0000
  C   C1014     1.0  0.73739  0.60867  0.87387  1.0000
  C   C1015     1.0  0.73519  0.62478  0.82869  1.0000
  C   C1016     1.0  0.72733  0.61928  0.85615  1.0000
  H   H1207     1.0  0.75972  0.58618  0.78583  1.0000
  H   H1208     1.0  0.77910  0.57359  0.79508  1.0000
  H   H1209     1.0  0.75099  0.56387  0.81350  1.0000
  H   H1210     1.0  0.81488  0.61786  0.80173  1.0000
  H   H1211     1.0  0.81109  0.63920  0.82424  1.0000
  H   H1212     1.0  0.82371  0.56027  0.61549  1.0000
  H   H1213     1.0  0.94128  0.64534  0.97385  1.0000
  C   C1017     1.0  0.98359  0.51144  0.85544  1.0000
  H   H1214     1.0  0.67665  0.87205  0.61321  1.0000
  Fe  Fe136     1.0  0.98435  0.57137  0.85761  1.0000
  H   H1215     1.0  0.66781  0.60884  0.78710  1.0000
  H   H1216     1.0  0.67768  0.55209  0.82748  1.0000
  C   C1018     1.0  0.73109  0.74317  0.53638  1.0000
  H   H1217     1.0  0.95449  0.51407  0.80694  1.0000
  H   H1218     1.0  0.77953  0.68567  0.51983  1.0000
  H   H1219     1.0  0.91062  0.52253  0.83541  1.0000
  H   H1220     1.0  0.83073  0.86812  0.49919  1.0000
  H   H1221     1.0  0.98447  0.58834  0.94668  1.0000
  H   H1222     1.0  0.79579  0.61391  0.52685  1.0000
  C   C1019     1.0  0.98601  0.58949  0.99197  1.0000
  H   H1223     1.0  0.84021  0.64413  0.53379  1.0000
  C   C1020     1.0  0.98813  0.59993  0.96519  1.0000
  H   H1224     1.0  0.65579  0.56544  0.72504  1.0000
