data_image0
_chemical_formula_structural       FeS2FeS2FeSFeS2FeSFeS2FeSFeS4HCSH2C3H2C3H2CH3CHNC6H3C6H6NHCHNFeHC5HC2H3C4H2CH3NC2HCH2C3H3C3H2CHCFeH3CH4CHSHCHC3HNH2CSHC3HSH6C4H3C4HCH4C2H3CH3CHFeH2CH3C2H5CSCSHSH2SCHCFeS2FeS2FeSFeS3FeS2FeS2FeSFeS5H4C3FeHC6H4C2HC7H5C6H4C6H4FeHC6H4NH3C4HCNHCHC2HCH2CH3NC2HC2H2CH7NC9H14NCHC4H2CHCHCH2CHSCHCH3C2H9NC3H4SHCH2CH2CH5C2HCHC2H5NHCHC4H3C3H2CH2C2HSH5SC2HCH3SHC2SHC2H3C3SHCH3SFeS2FeSFeS3HSFeS2FeSFeS3HC2SHSC6H2CH3CHNCH3C2H2C6H6CHCHCFeHCH2NC3H2CH8CHC4HCH3C2H2C7FeH10C2SCHC2SHFeS2FeS2Fe2S3FeS2FeS2CFeS3FeSFeS2FeSFeCSCFeS2FeSFeSFeS3HSHSCH3C2HC3H4C6H4C6HC8HSH2C6H4C6H4C3HCH3C2HC9H3NHC5HCH4C2H4C2H5SH5CFeH6NCH3CNC3H7CH3CH5CH5CH2C4FeHSCHCH2FeCHCH3CHCNH2CH4CNC4H2C2HCHC2HFeH8CHNHFeS2FeS2FeSFeS3FeCSFeHFeHS2FeS2FeS2FeSFeS5C2SH2SHSHCSH2C6H4C7H4C6H4C6HCH2C6H5C2HC6H4C6H4C6H4C6H3CH3CH3SHC2H3C2HC2H4CHNC5H4CH5C2H3CHCNCHC3H2FeH5SH3CHSH3C2H2C2NFeC3HSH2CH3CH7C2HNC3H3CH2SH4C2HCHNHCH2C3HCFeC4HNH4C2NC3H3C3H3SHNHNH4SHCH2CFeHSC2HCHC2H3CHCH2NHCHC2H3C2SC2H4C2SCFeCH2CSHCH2NHC2HCHCHCH3CH3CH2C2FeHFeCH6NC2H2CHCSHSC4H2C2HCHCHCHC2HFeS2FeS2FeSFeS3FeS2FeS2FeSFeS3HSCH2S2H2SHC6H4C6H4CHCH2C6H4C6H4C6H4C3H2FeCH2SC4H3CHFeH2CH5C3H2CH4C3H2FeH2NH2NC2HC4HFeHCH5CHC3NC6H2CH5C2HCH4NH8C2H2CH2CHCNHCH2C2H2C2HCH3CHC2H3C3NH2CHC2H3C3H5CHC3SHNH2C2H2CH2CH2C3H2NHCH2CSHCHSH3S3C2HC2FeS2FeS2FeSFeS3FeS2FeS2FeSFeS7HC6H5C7H4C6H4CHCH5C6H5C7H5C3NH3CHSCHCH3CH5NC2HC2H3C2HCH4CFeC2HCHNHC3FeHCHSH3CH3C2H6CH2CHCNC2H5NCHC4HCHCH7CHC2HCH2CHCHC2SFeCH2CH4CHCFeH3CNCHSH2C3SC2HC2HNHCSHCFeH2C2H4CH2FeCH2C2H4C3HFeSCHC3H2CH2FeCS2H2CH2C2SNSCSHSFeC3SCSFeS2FeS2FeSFeS3HSCHFeCFeS2FeS2FeSFeS4CSHSC6H4C6H4C6HSH2C6H4C6H4C6H4C6H4C7H2NHC6H7CHCHNCHCHCHCFeC4HSH7CH2FeHCHCHCH4CH3CH6CHCHNH2CH2C3H3C2FeCHCNC9H14SCH5CHC2HCSH2CH2C2HCH2CHCH2CSCH2C2H2CFe2H2CHSHC4HCHCH9CHCHCH3FeHCH4C2H2CNHNC3HCHCHCHCH2CFeCH4C2NHCH3CH2NCH3CH4CH2C2HCHC2H2CH2S2HCH3C2N2H7FeSCHCHCHCSCH5C3SH3FeSCH3FeHCFeS2FeSHS2FeHSFe2SH3SNFeS2HSFeSFeS3C6H4C6H4SC3SHC3FeC6H4NCFeSH2C2HCH6CH4CH2CSCHC5H3C4FeHFeH2NHCHC2H2S2H9C2SH3S2CFeCHC2HC2H3SCHCHCH2C3HCH3SNH4NC8HC2H4C8HSHC2H3FeH2C2HCHNHC5FeH5CHCHCHCFeCH4C2HCH2SFeS2FeSFeS3FeSFeS2FeSFeS3C2H2CH3C6H5C3HCH2C4HCH3C2HCH2C4H3C2HCHCH2CH6NCHC2NC4HCHC5HC2FeH2CHC2NH3CH3C2H3CH2CH2CH4SHCH2SNH2CH3CH2SH4SCHSHCHCSCFeH4FeS2FeS2FeSFeS3FeS2FeS2FeSFeS4CSC2HS2C5HC6H4C6H4C2H2C6H4C6H4C2HC6H6C3HCFeCHNCH4SH2CH2CSHC2HC2HNH2C2H4CH5C2HCN2C3H4C3H2NC9H13C2H7CHSH2NHCH4C4HCH2CH4NC6HC2H4CH7CHNC9HCHFeCH9C2H2CFeH2CH3SHNH2CHCH4CH2C2H2NH3FeC2S2CHC3H4CH2CH4CHC2FeH2SH4CHFeSC2SFeSFeCSHFeS2CSFeHFeSCSCSH2NC4HC5H2CH8CSHSH2CH2CHCSCHC2H2FeHC2HCHCHSCHC2H2SHCHCH3NCSH2CFeCH3SH2C
_chemical_formula_sum              "Fe160 S320 H1440 C1200 N80"
_cell_length_a       85.1923
_cell_length_b       85.0317
_cell_length_c       37.7315
_cell_angle_alpha    90.8568
_cell_angle_beta     91.0054
_cell_angle_gamma    115.449

_space_group_name_H-M_alt    "P 1"
_space_group_IT_number       1

loop_
  _space_group_symop_operation_xyz
  'x, y, z'

loop_
  _atom_site_type_symbol
  _atom_site_label
  _atom_site_symmetry_multiplicity
  _atom_site_fract_x
  _atom_site_fract_y
  _atom_site_fract_z
  _atom_site_occupancy
  Fe  Fe1       1.0  0.03596  0.42790  0.50962  1.0000
  S   S1        1.0  0.03309  0.44032  0.56084  1.0000
  S   S2        1.0  0.01277  0.40963  0.47308  1.0000
  Fe  Fe2       1.0  0.07654  0.45155  0.50837  1.0000
  S   S3        1.0  0.07496  0.46588  0.55802  1.0000
  S   S4        1.0  0.10444  0.46323  0.48532  1.0000
  Fe  Fe3       1.0  0.05808  0.43960  0.57962  1.0000
  S   S5        1.0  0.06920  0.43767  0.63443  1.0000
  Fe  Fe4       1.0  0.05034  0.46543  0.53555  1.0000
  S   S6        1.0  0.05999  0.42500  0.53017  1.0000
  S   S7        1.0  0.05286  0.45335  0.48406  1.0000
  Fe  Fe5       1.0  0.05857  0.46997  0.88256  1.0000
  S   S8        1.0  0.05941  0.46014  0.93713  1.0000
  Fe  Fe6       1.0  0.04955  0.43532  0.84576  1.0000
  S   S9        1.0  0.04956  0.42230  0.89790  1.0000
  S   S10       1.0  0.03939  0.42232  0.79118  1.0000
  Fe  Fe7       1.0  0.03464  0.43650  0.92035  1.0000
  S   S11       1.0  0.01233  0.42780  0.96075  1.0000
  Fe  Fe8       1.0  0.07442  0.44659  0.91208  1.0000
  S   S12       1.0  0.09651  0.44244  0.94188  1.0000
  S   S13       1.0  0.03310  0.44772  0.86774  1.0000
  S   S14       1.0  0.07514  0.45823  0.85811  1.0000
  S   S15       1.0  0.21917  0.46346  0.39237  1.0000
  H   H1        1.0  0.00123  0.43091  0.42865  1.0000
  C   C1        1.0  0.98305  0.39705  0.93974  1.0000
  S   S16       1.0  0.17340  0.45601  0.43429  1.0000
  H   H2        1.0  0.04487  0.41324  0.06845  1.0000
  H   H3        1.0  0.99995  0.45626  0.50885  1.0000
  C   C2        1.0  0.16413  0.45263  0.53285  1.0000
  C   C3        1.0  0.04783  0.47031  0.69670  1.0000
  C   C4        1.0  0.15504  0.47239  0.97750  1.0000
  H   H4        1.0  0.12927  0.42143  0.57098  1.0000
  H   H5        1.0  0.18479  0.45881  0.36229  1.0000
  C   C5        1.0  0.11904  0.45456  0.95560  1.0000
  C   C6        1.0  0.12882  0.47213  0.94775  1.0000
  C   C7        1.0  0.98086  0.41097  0.99433  1.0000
  H   H6        1.0  0.01818  0.46740  0.96999  1.0000
  H   H7        1.0  0.21206  0.46230  0.27683  1.0000
  C   C8        1.0  0.17105  0.48092  0.34532  1.0000
  H   H8        1.0  0.10505  0.43785  0.63549  1.0000
  H   H9        1.0  0.01473  0.48194  0.47271  1.0000
  H   H10       1.0  0.10109  0.43703  0.53688  1.0000
  C   C9        1.0  0.21909  0.47704  0.19157  1.0000
  H   H11       1.0  0.99031  0.39654  0.91686  1.0000
  N   N1        1.0  0.17153  0.46680  0.32234  1.0000
  C   C10       1.0  0.15438  0.45845  0.44818  1.0000
  C   C11       1.0  0.15394  0.47469  0.45191  1.0000
  C   C12       1.0  0.13859  0.47582  0.46292  1.0000
  C   C13       1.0  0.12341  0.46082  0.47083  1.0000
  C   C14       1.0  0.12388  0.44459  0.46714  1.0000
  C   C15       1.0  0.13913  0.44345  0.45563  1.0000
  H   H12       1.0  0.13526  0.41323  0.90042  1.0000
  H   H13       1.0  0.11244  0.43287  0.47288  1.0000
  H   H14       1.0  0.13916  0.43078  0.45289  1.0000
  C   C16       1.0  0.06036  0.43471  0.67767  1.0000
  C   C17       1.0  0.04257  0.42524  0.68332  1.0000
  C   C18       1.0  0.03640  0.42177  0.71819  1.0000
  C   C19       1.0  0.04782  0.42801  0.74789  1.0000
  C   C20       1.0  0.06554  0.43794  0.74224  1.0000
  C   C21       1.0  0.07176  0.44109  0.70737  1.0000
  H   H15       1.0  0.03363  0.42002  0.66087  1.0000
  H   H16       1.0  0.02268  0.41397  0.72219  1.0000
  H   H17       1.0  0.07453  0.44268  0.76473  1.0000
  H   H18       1.0  0.08556  0.44831  0.70340  1.0000
  H   H19       1.0  0.06613  0.47896  0.79751  1.0000
  H   H20       1.0  0.01095  0.36582  0.93898  1.0000
  N   N2        1.0  0.00392  0.45529  0.45279  1.0000
  H   H21       1.0  0.01703  0.45031  0.49757  1.0000
  C   C22       1.0  0.01728  0.47368  0.45253  1.0000
  H   H22       1.0  0.15351  0.44759  0.35665  1.0000
  N   N3        1.0  0.19269  0.45511  0.91714  1.0000
  Fe  Fe9       1.0  0.20169  0.48448  0.02108  1.0000
  H   H23       1.0  0.12019  0.43250  0.98092  1.0000
  C   C23       1.0  0.16016  0.46679  0.53721  1.0000
  C   C24       1.0  0.17419  0.44987  0.90704  1.0000
  C   C25       1.0  0.16201  0.43208  0.90766  1.0000
  C   C26       1.0  0.14999  0.45662  0.88855  1.0000
  C   C27       1.0  0.14440  0.42683  0.89911  1.0000
  H   H24       1.0  0.07724  0.42091  0.00151  1.0000
  C   C28       1.0  0.13840  0.43909  0.88963  1.0000
  C   C29       1.0  0.21245  0.46559  0.21991  1.0000
  H   H25       1.0  0.08926  0.43042  0.57723  1.0000
  H   H26       1.0  0.98571  0.36279  0.97445  1.0000
  H   H27       1.0  0.15229  0.44956  0.26048  1.0000
  C   C30       1.0  0.00102  0.38314  0.01190  1.0000
  C   C31       1.0  0.16681  0.46694  0.22120  1.0000
  C   C32       1.0  0.99067  0.41077  0.96469  1.0000
  C   C33       1.0  0.11693  0.43940  0.62100  1.0000
  H   H28       1.0  0.98849  0.39261  0.41503  1.0000
  H   H29       1.0  0.18746  0.43620  0.95843  1.0000
  C   C34       1.0  0.14522  0.45485  0.98559  1.0000
  H   H30       1.0  0.11710  0.42641  0.62094  1.0000
  H   H31       1.0  0.16855  0.47690  0.37347  1.0000
  H   H32       1.0  0.12466  0.43510  0.88403  1.0000
  N   N4        1.0  0.11684  0.44581  0.58466  1.0000
  C   C35       1.0  0.11415  0.46191  0.58791  1.0000
  C   C36       1.0  0.10170  0.43268  0.56438  1.0000
  H   H33       1.0  0.19894  0.47467  0.33276  1.0000
  C   C37       1.0  0.13312  0.44844  0.56686  1.0000
  H   H34       1.0  0.19364  0.43151  0.89715  1.0000
  H   H35       1.0  0.03997  0.38746  0.95497  1.0000
  C   C38       1.0  0.14484  0.46480  0.55364  1.0000
  C   C39       1.0  0.97672  0.44676  0.92954  1.0000
  C   C40       1.0  0.16332  0.46183  0.25641  1.0000
  H   H36       1.0  0.11298  0.46697  0.56139  1.0000
  H   H37       1.0  0.99002  0.45424  0.92156  1.0000
  H   H38       1.0  0.21418  0.44991  0.90059  1.0000
  C   C41       1.0  0.00390  0.44887  0.48910  1.0000
  C   C42       1.0  0.05289  0.48269  0.63829  1.0000
  C   C43       1.0  0.18621  0.46308  0.33431  1.0000
  H   H39       1.0  0.15134  0.44799  0.00001  1.0000
  H   H40       1.0  0.04036  0.45525  0.64766  1.0000
  C   C44       1.0  0.12745  0.44606  0.97468  1.0000
  H   H41       1.0  0.04228  0.45864  0.71206  1.0000
  C   C45       1.0  0.00950  0.44514  0.42775  1.0000
  Fe  Fe10      1.0  0.20279  0.47322  0.42519  1.0000
  H   H42       1.0  0.12845  0.44861  0.63682  1.0000
  H   H43       1.0  0.14357  0.45276  0.31912  1.0000
  H   H44       1.0  0.10202  0.41980  0.56230  1.0000
  C   C46       1.0  0.05001  0.42883  0.00648  1.0000
  H   H45       1.0  0.04035  0.43110  0.02266  1.0000
  H   H46       1.0  0.06303  0.43976  0.01229  1.0000
  H   H47       1.0  0.04650  0.42974  0.97835  1.0000
  H   H48       1.0  0.01855  0.40453  0.04350  1.0000
  C   C47       1.0  0.02962  0.38657  0.97210  1.0000
  H   H49       1.0  0.99507  0.43484  0.49119  1.0000
  S   S17       1.0  0.22342  0.48308  0.46875  1.0000
  H   H50       1.0  0.17570  0.45414  0.51885  1.0000
  C   C48       1.0  0.05373  0.41048  0.05082  1.0000
  H   H51       1.0  0.12487  0.47231  0.60356  1.0000
  C   C49       1.0  0.01761  0.39585  0.02155  1.0000
  C   C50       1.0  0.20012  0.44586  0.89409  1.0000
  C   C51       1.0  0.97895  0.39915  0.49926  1.0000
  H   H52       1.0  0.06328  0.41318  0.96374  1.0000
  N   N5        1.0  0.04987  0.41162  0.01267  1.0000
  H   H53       1.0  0.06713  0.42016  0.05875  1.0000
  H   H54       1.0  0.19890  0.44855  0.86563  1.0000
  C   C52       1.0  0.98078  0.39239  0.43767  1.0000
  S   S18       1.0  0.20701  0.46273  0.04375  1.0000
  H   H55       1.0  0.06466  0.39787  0.99505  1.0000
  C   C53       1.0  0.06428  0.41071  0.99239  1.0000
  C   C54       1.0  0.03249  0.39780  0.00228  1.0000
  C   C55       1.0  0.17411  0.47225  0.28494  1.0000
  H   H56       1.0  0.02293  0.44676  0.43411  1.0000
  S   S19       1.0  0.21220  0.46903  0.14706  1.0000
  H   H57       1.0  0.18705  0.45256  0.31771  1.0000
  H   H58       1.0  0.10189  0.45951  0.60172  1.0000
  H   H59       1.0  0.15590  0.42536  0.54114  1.0000
  H   H60       1.0  0.14514  0.46616  0.88220  1.0000
  H   H61       1.0  0.17562  0.47593  0.89748  1.0000
  H   H62       1.0  0.00914  0.44917  0.39995  1.0000
  C   C56       1.0  0.98618  0.45302  0.44273  1.0000
  C   C57       1.0  0.13765  0.43430  0.56213  1.0000
  C   C58       1.0  0.99869  0.37225  0.98244  1.0000
  C   C59       1.0  0.98930  0.39973  0.47036  1.0000
  H   H63       1.0  0.00145  0.47302  0.01743  1.0000
  H   H64       1.0  0.16597  0.42212  0.91546  1.0000
  H   H65       1.0  0.05262  0.39728  0.05690  1.0000
  C   C60       1.0  0.01293  0.37401  0.96250  1.0000
  C   C61       1.0  0.15519  0.45092  0.32799  1.0000
  C   C62       1.0  0.20379  0.47409  0.91416  1.0000
  C   C63       1.0  0.15289  0.43641  0.54524  1.0000
  H   H66       1.0  0.15517  0.43929  0.31404  1.0000
  C   C64       1.0  0.21736  0.47129  0.25556  1.0000
  H   H67       1.0  0.03049  0.47478  0.45956  1.0000
  H   H68       1.0  0.98650  0.42143  0.01393  1.0000
  H   H69       1.0  0.12273  0.47898  0.93322  1.0000
  H   H70       1.0  0.98978  0.38216  0.02646  1.0000
  C   C65       1.0  0.16760  0.46205  0.89734  1.0000
  C   C66       1.0  0.19395  0.45047  0.95445  1.0000
  H   H71       1.0  0.03023  0.47214  0.75891  1.0000
  H   H72       1.0  0.01813  0.47941  0.42594  1.0000
  H   H73       1.0  0.18771  0.45652  0.97237  1.0000
  C   C67       1.0  0.14662  0.48089  0.95848  1.0000
  H   H74       1.0  0.20329  0.45223  0.21428  1.0000
  H   H75       1.0  0.15869  0.45868  0.19969  1.0000
  H   H76       1.0  0.16064  0.48463  0.33618  1.0000
  C   C68       1.0  0.04643  0.46821  0.65975  1.0000
  H   H77       1.0  0.05175  0.48101  0.60964  1.0000
  Fe  Fe11      1.0  0.21932  0.48082  0.09148  1.0000
  H   H78       1.0  0.98512  0.40453  0.52471  1.0000
  H   H79       1.0  0.20774  0.45497  0.96368  1.0000
  C   C69       1.0  0.06309  0.47636  0.76856  1.0000
  H   H80       1.0  0.19962  0.48188  0.93254  1.0000
  H   H81       1.0  0.20354  0.47851  0.88665  1.0000
  H   H82       1.0  0.21765  0.47755  0.92139  1.0000
  C   C70       1.0  0.01799  0.48006  0.97256  1.0000
  C   C71       1.0  0.98212  0.46728  0.43571  1.0000
  H   H83       1.0  0.05283  0.46273  0.76681  1.0000
  H   H84       1.0  0.14229  0.47618  0.55478  1.0000
  H   H85       1.0  0.99174  0.48066  0.43787  1.0000
  H   H86       1.0  0.16871  0.47926  0.52654  1.0000
  H   H87       1.0  0.07488  0.47673  0.75565  1.0000
  C   C72       1.0  0.18097  0.48246  0.21337  1.0000
  S   S20       1.0  0.17787  0.48416  0.98916  1.0000
  C   C73       1.0  0.00859  0.48328  0.99928  1.0000
  S   S21       1.0  0.05960  0.49528  0.86298  1.0000
  H   H88       1.0  0.06779  0.66539  0.04980  1.0000
  S   S22       1.0  0.17330  0.69043  0.04959  1.0000
  H   H89       1.0  0.18353  0.49284  0.34600  1.0000
  H   H90       1.0  0.20174  0.66293  0.90258  1.0000
  S   S23       1.0  0.18747  0.69133  0.48656  1.0000
  C   C74       1.0  0.02165  0.55934  0.65883  1.0000
  H   H91       1.0  0.03490  0.51937  0.93415  1.0000
  C   C75       1.0  0.06231  0.50162  0.69062  1.0000
  Fe  Fe12      1.0  0.06074  0.59576  0.87899  1.0000
  S   S24       1.0  0.05638  0.61526  0.91445  1.0000
  S   S25       1.0  0.05418  0.58680  0.82045  1.0000
  Fe  Fe13      1.0  0.07306  0.58163  0.94211  1.0000
  S   S26       1.0  0.06998  0.60011  0.98120  1.0000
  S   S27       1.0  0.08132  0.56175  0.96390  1.0000
  Fe  Fe14      1.0  0.04405  0.59318  0.95309  1.0000
  S   S28       1.0  0.02125  0.58562  0.99214  1.0000
  Fe  Fe15      1.0  0.08269  0.62053  0.94046  1.0000
  S   S29       1.0  0.10427  0.64870  0.95100  1.0000
  S   S30       1.0  0.04686  0.57368  0.91626  1.0000
  S   S31       1.0  0.08734  0.60215  0.90287  1.0000
  Fe  Fe16      1.0  0.08590  0.62009  0.53933  1.0000
  S   S32       1.0  0.09319  0.61155  0.59080  1.0000
  S   S33       1.0  0.10532  0.64052  0.50170  1.0000
  Fe  Fe17      1.0  0.04709  0.59066  0.54189  1.0000
  S   S34       1.0  0.05292  0.58042  0.59292  1.0000
  S   S35       1.0  0.02098  0.57399  0.51163  1.0000
  Fe  Fe18      1.0  0.06726  0.60845  0.61089  1.0000
  S   S36       1.0  0.06381  0.61898  0.66521  1.0000
  Fe  Fe19      1.0  0.07807  0.58423  0.56877  1.0000
  S   S37       1.0  0.09001  0.56508  0.57029  1.0000
  S   S38       1.0  0.06051  0.61890  0.56058  1.0000
  S   S39       1.0  0.07177  0.59264  0.51666  1.0000
  S   S40       1.0  0.21276  0.49892  0.39799  1.0000
  S   S41       1.0  0.21271  0.50192  0.06993  1.0000
  H   H92       1.0  0.15528  0.68681  0.85888  1.0000
  H   H93       1.0  0.18413  0.72336  0.50494  1.0000
  H   H94       1.0  0.02989  0.62413  0.01134  1.0000
  H   H95       1.0  0.03524  0.49483  0.75493  1.0000
  C   C76       1.0  0.03011  0.62987  0.98586  1.0000
  C   C77       1.0  0.00419  0.58753  0.35112  1.0000
  C   C78       1.0  0.99802  0.56789  0.50731  1.0000
  Fe  Fe20      1.0  0.20227  0.71100  0.05070  1.0000
  H   H96       1.0  0.99339  0.54525  0.47454  1.0000
  C   C79       1.0  0.05851  0.59657  0.77792  1.0000
  C   C80       1.0  0.06210  0.61407  0.77300  1.0000
  C   C81       1.0  0.06396  0.62075  0.73843  1.0000
  C   C82       1.0  0.06270  0.61021  0.70834  1.0000
  C   C83       1.0  0.05953  0.59283  0.71331  1.0000
  C   C84       1.0  0.05721  0.58603  0.74779  1.0000
  H   H97       1.0  0.06299  0.62233  0.79573  1.0000
  H   H98       1.0  0.06634  0.63418  0.73497  1.0000
  H   H99       1.0  0.05859  0.58455  0.69055  1.0000
  H   H100      1.0  0.05444  0.57249  0.75120  1.0000
  C   C85       1.0  0.99827  0.57194  0.99528  1.0000
  C   C86       1.0  0.99069  0.56908  0.02895  1.0000
  H   H101      1.0  0.99878  0.57521  0.05215  1.0000
  C   C87       1.0  0.02203  0.53705  0.61845  1.0000
  C   C88       1.0  0.06586  0.51356  0.89162  1.0000
  C   C89       1.0  0.06434  0.52834  0.87938  1.0000
  C   C90       1.0  0.06914  0.54318  0.90145  1.0000
  C   C91       1.0  0.07555  0.54333  0.93585  1.0000
  C   C92       1.0  0.07702  0.52853  0.94821  1.0000
  C   C93       1.0  0.07215  0.51362  0.92613  1.0000
  H   H102      1.0  0.05949  0.52837  0.85270  1.0000
  H   H103      1.0  0.06812  0.55460  0.89160  1.0000
  H   H104      1.0  0.08195  0.52861  0.97486  1.0000
  H   H105      1.0  0.07336  0.50226  0.93571  1.0000
  H   H106      1.0  0.02558  0.56560  0.68467  1.0000
  C   C94       1.0  0.05390  0.50769  0.54605  1.0000
  C   C95       1.0  0.04726  0.52020  0.54587  1.0000
  C   C96       1.0  0.05820  0.53784  0.55345  1.0000
  C   C97       1.0  0.07586  0.54303  0.56138  1.0000
  C   C98       1.0  0.08246  0.53048  0.56191  1.0000
  C   C99       1.0  0.07153  0.51285  0.55422  1.0000
  H   H107      1.0  0.03364  0.51628  0.53956  1.0000
  H   H108      1.0  0.05301  0.54742  0.55287  1.0000
  H   H109      1.0  0.09611  0.53444  0.56805  1.0000
  H   H110      1.0  0.07676  0.50331  0.55437  1.0000
  C   C100      1.0  0.12824  0.65476  0.49846  1.0000
  C   C101      1.0  0.14038  0.65751  0.52623  1.0000
  C   C102      1.0  0.15825  0.66875  0.52211  1.0000
  C   C103      1.0  0.16448  0.67751  0.49020  1.0000
  C   C104      1.0  0.15234  0.67481  0.46246  1.0000
  C   C105      1.0  0.13446  0.66360  0.46662  1.0000
  H   H111      1.0  0.13602  0.65114  0.55114  1.0000
  H   H112      1.0  0.16734  0.67065  0.54391  1.0000
  H   H113      1.0  0.15671  0.68138  0.43775  1.0000
  H   H114      1.0  0.12534  0.66178  0.44490  1.0000
  Fe  Fe21      1.0  0.21076  0.70813  0.45125  1.0000
  H   H115      1.0  0.19020  0.66235  0.17100  1.0000
  C   C106      1.0  0.12399  0.65952  0.97754  1.0000
  C   C107      1.0  0.12803  0.65189  0.00688  1.0000
  C   C108      1.0  0.14325  0.66140  0.02802  1.0000
  C   C109      1.0  0.15503  0.67854  0.01983  1.0000
  C   C110      1.0  0.15122  0.68600  0.98995  1.0000
  C   C111      1.0  0.13574  0.67669  0.96944  1.0000
  H   H116      1.0  0.11923  0.63877  0.01378  1.0000
  H   H117      1.0  0.14586  0.65539  0.05104  1.0000
  H   H118      1.0  0.15986  0.69920  0.98328  1.0000
  H   H119      1.0  0.13287  0.68286  0.94697  1.0000
  N   N6        1.0  0.19486  0.67911  0.93737  1.0000
  H   H120      1.0  0.15615  0.67737  0.13874  1.0000
  H   H121      1.0  0.08302  0.51038  0.75424  1.0000
  H   H122      1.0  0.04648  0.64792  0.04701  1.0000
  C   C112      1.0  0.17761  0.67377  0.91963  1.0000
  C   C113      1.0  0.17423  0.68409  0.89392  1.0000
  C   C114      1.0  0.16344  0.65787  0.92838  1.0000
  C   C115      1.0  0.15767  0.67871  0.87817  1.0000
  H   H123      1.0  0.14907  0.67290  0.19565  1.0000
  C   C116      1.0  0.14408  0.66303  0.88742  1.0000
  N   N7        1.0  0.05741  0.48902  0.75256  1.0000
  H   H124      1.0  0.07047  0.63433  0.98209  1.0000
  C   C117      1.0  0.04404  0.65079  0.94037  1.0000
  H   H125      1.0  0.04034  0.48695  0.79551  1.0000
  C   C118      1.0  0.01295  0.58749  0.67559  1.0000
  C   C119      1.0  0.00871  0.55571  0.59985  1.0000
  H   H126      1.0  0.05759  0.62800  0.02077  1.0000
  C   C120      1.0  0.00176  0.58392  0.41432  1.0000
  H   H127      1.0  0.16876  0.67011  0.11245  1.0000
  H   H128      1.0  0.03317  0.54186  0.67125  1.0000
  C   C121      1.0  0.04004  0.48559  0.76602  1.0000
  H   H129      1.0  0.17936  0.70627  0.15379  1.0000
  H   H130      1.0  0.20600  0.68509  0.99045  1.0000
  H   H131      1.0  0.00785  0.58454  0.44018  1.0000
  N   N8        1.0  0.01838  0.53098  0.98303  1.0000
  C   C122      1.0  0.06071  0.49936  0.65366  1.0000
  C   C123      1.0  0.03662  0.54417  0.98861  1.0000
  H   H132      1.0  0.21059  0.69505  0.89581  1.0000
  C   C124      1.0  0.01293  0.56494  0.63295  1.0000
  C   C125      1.0  0.14698  0.65261  0.91236  1.0000
  H   H133      1.0  0.13116  0.65903  0.87575  1.0000
  H   H134      1.0  0.00913  0.54644  0.01485  1.0000
  C   C126      1.0  0.98743  0.56389  0.96570  1.0000
  H   H135      1.0  0.04297  0.54113  0.01186  1.0000
  H   H136      1.0  0.03753  0.55754  0.99298  1.0000
  H   H137      1.0  0.04471  0.54496  0.96537  1.0000
  H   H138      1.0  0.01886  0.53500  0.92640  1.0000
  H   H139      1.0  0.99753  0.52543  0.94472  1.0000
  H   H140      1.0  0.18393  0.48612  0.18600  1.0000
  H   H141      1.0  0.18880  0.69152  0.98154  1.0000
  N   N9        1.0  0.12729  0.60319  0.49731  1.0000
  C   C127      1.0  0.12214  0.60747  0.53211  1.0000
  C   C128      1.0  0.11289  0.60020  0.47138  1.0000
  C   C129      1.0  0.12889  0.58654  0.50015  1.0000
  C   C130      1.0  0.14414  0.61738  0.48758  1.0000
  C   C131      1.0  0.14607  0.62769  0.45716  1.0000
  C   C132      1.0  0.15921  0.62161  0.50949  1.0000
  C   C133      1.0  0.16216  0.64117  0.44919  1.0000
  C   C134      1.0  0.17517  0.63528  0.50149  1.0000
  C   C135      1.0  0.17663  0.64504  0.47139  1.0000
  H   H142      1.0  0.12128  0.62014  0.53156  1.0000
  H   H143      1.0  0.10921  0.59742  0.53962  1.0000
  H   H144      1.0  0.13134  0.60828  0.55404  1.0000
  H   H145      1.0  0.10053  0.58919  0.47914  1.0000
  H   H146      1.0  0.11585  0.59688  0.44447  1.0000
  H   H147      1.0  0.11006  0.61182  0.46983  1.0000
  H   H148      1.0  0.13829  0.58708  0.52142  1.0000
  H   H149      1.0  0.11626  0.57560  0.50707  1.0000
  H   H150      1.0  0.13314  0.58299  0.47476  1.0000
  H   H151      1.0  0.13527  0.62602  0.43970  1.0000
  H   H152      1.0  0.15865  0.61465  0.53351  1.0000
  H   H153      1.0  0.16327  0.64925  0.42652  1.0000
  H   H154      1.0  0.18638  0.63865  0.51913  1.0000
  H   H155      1.0  0.18886  0.65602  0.46585  1.0000
  N   N10       1.0  0.18115  0.68213  0.16263  1.0000
  C   C136      1.0  0.16544  0.67136  0.14048  1.0000
  H   H156      1.0  0.98192  0.56349  0.64692  1.0000
  C   C137      1.0  0.01528  0.62186  0.96392  1.0000
  C   C138      1.0  0.17746  0.68267  0.20076  1.0000
  C   C139      1.0  0.19126  0.68938  0.22646  1.0000
  C   C140      1.0  0.16035  0.67774  0.21324  1.0000
  H   H157      1.0  0.20463  0.69391  0.21903  1.0000
  H   H158      1.0  0.00244  0.55942  0.57858  1.0000
  C   C141      1.0  0.15740  0.67918  0.24928  1.0000
  H   H159      1.0  0.00569  0.57759  0.69542  1.0000
  C   C142      1.0  0.17127  0.68570  0.27377  1.0000
  H   H160      1.0  0.02713  0.59279  0.68219  1.0000
  C   C143      1.0  0.19333  0.68128  0.97601  1.0000
  H   H161      1.0  0.06555  0.51058  0.63670  1.0000
  H   H162      1.0  0.20097  0.70861  0.16300  1.0000
  C   C144      1.0  0.05617  0.65877  0.03186  1.0000
  H   H163      1.0  0.08700  0.67295  0.00050  1.0000
  S   S42       1.0  0.22162  0.72384  0.00794  1.0000
  C   C145      1.0  0.06991  0.50672  0.76529  1.0000
  H   H164      1.0  0.99283  0.56595  0.93953  1.0000
  C   C146      1.0  0.98384  0.57887  0.41131  1.0000
  H   H165      1.0  0.19278  0.65302  0.94375  1.0000
  H   H166      1.0  0.05470  0.66175  0.92933  1.0000
  H   H167      1.0  0.06840  0.51489  0.70067  1.0000
  C   C147      1.0  0.99017  0.57498  0.63124  1.0000
  C   C148      1.0  0.98749  0.55289  0.48684  1.0000
  H   H168      1.0  0.99413  0.52413  0.00972  1.0000
  H   H169      1.0  0.01323  0.53068  0.03890  1.0000
  H   H170      1.0  0.02871  0.64745  0.89231  1.0000
  H   H171      1.0  0.19897  0.69613  0.28146  1.0000
  H   H172      1.0  0.98653  0.57157  0.60274  1.0000
  H   H173      1.0  0.15870  0.65794  0.15069  1.0000
  H   H174      1.0  0.07158  0.50755  0.79473  1.0000
  H   H175      1.0  0.14428  0.67543  0.25830  1.0000
  H   H176      1.0  0.20738  0.68395  0.16688  1.0000
  N   N11       1.0  0.06069  0.65254  0.99836  1.0000
  C   C149      1.0  0.18839  0.70012  0.14942  1.0000
  C   C150      1.0  0.20118  0.66554  0.93142  1.0000
  C   C151      1.0  0.01125  0.53501  0.95004  1.0000
  H   H177      1.0  0.07163  0.67841  0.97701  1.0000
  H   H178      1.0  0.00427  0.61035  0.97276  1.0000
  H   H179      1.0  0.22123  0.69937  0.93840  1.0000
  H   H180      1.0  0.00958  0.59868  0.67934  1.0000
  S   S43       1.0  0.21707  0.69839  0.39981  1.0000
  H   H181      1.0  0.22281  0.54724  0.02988  1.0000
  C   C152      1.0  0.01477  0.62822  0.93037  1.0000
  H   H182      1.0  0.16902  0.68703  0.30162  1.0000
  H   H183      1.0  0.05055  0.66818  0.02649  1.0000
  C   C153      1.0  0.02909  0.64267  0.91865  1.0000
  H   H184      1.0  0.20888  0.72078  0.53461  1.0000
  H   H185      1.0  0.01047  0.53573  0.56669  1.0000
  C   C154      1.0  0.01327  0.54205  0.59275  1.0000
  H   H186      1.0  0.21449  0.66956  0.94323  1.0000
  H   H187      1.0  0.16486  0.64951  0.94819  1.0000
  H   H188      1.0  0.99788  0.58939  0.53786  1.0000
  H   H189      1.0  0.13621  0.64061  0.92003  1.0000
  H   H190      1.0  0.02596  0.52676  0.61248  1.0000
  C   C155      1.0  0.00824  0.53299  0.01299  1.0000
  C   C156      1.0  0.07524  0.66756  0.98259  1.0000
  H   H191      1.0  0.01150  0.54823  0.95174  1.0000
  C   C157      1.0  0.02721  0.49315  0.94916  1.0000
  H   H192      1.0  0.07930  0.64496  0.02369  1.0000
  C   C158      1.0  0.00840  0.49963  0.00283  1.0000
  C   C159      1.0  0.20842  0.69582  0.92464  1.0000
  H   H193      1.0  0.01626  0.60561  0.61709  1.0000
  H   H194      1.0  0.21730  0.55723  0.43040  1.0000
  H   H195      1.0  0.22550  0.56127  0.97204  1.0000
  H   H196      1.0  0.00332  0.62178  0.91328  1.0000
  H   H197      1.0  0.19556  0.67255  0.12866  1.0000
  N   N12       1.0  0.00892  0.58010  0.63880  1.0000
  H   H198      1.0  0.19078  0.70038  0.12050  1.0000
  C   C160      1.0  0.99007  0.57762  0.52276  1.0000
  H   H199      1.0  0.20294  0.50487  0.23449  1.0000
  C   C161      1.0  0.01790  0.51338  0.97967  1.0000
  C   C162      1.0  0.06721  0.63939  0.00678  1.0000
  C   C163      1.0  0.01930  0.59416  0.61458  1.0000
  C   C164      1.0  0.18816  0.69078  0.26237  1.0000
  H   H200      1.0  0.02577  0.59204  0.38694  1.0000
  H   H201      1.0  0.97688  0.57595  0.43573  1.0000
  H   H202      1.0  0.01717  0.58977  0.58626  1.0000
  C   C165      1.0  0.04502  0.64453  0.97473  1.0000
  C   C166      1.0  0.02726  0.50958  0.95265  1.0000
  C   C167      1.0  0.01190  0.58817  0.38432  1.0000
  H   H203      1.0  0.18398  0.66917  0.98835  1.0000
  H   H204      1.0  0.07952  0.66362  0.95758  1.0000
  C   C168      1.0  0.02611  0.54560  0.65148  1.0000
  H   H205      1.0  0.03346  0.59896  0.62062  1.0000
  H   H206      1.0  0.18408  0.69643  0.88569  1.0000
  C   C169      1.0  0.19406  0.67491  0.15725  1.0000
  C   C170      1.0  0.05618  0.48707  0.71334  1.0000
  H   H207      1.0  0.20503  0.70688  0.93005  1.0000
  S   S44       1.0  0.21782  0.69765  0.07352  1.0000
  H   H208      1.0  0.15393  0.49441  0.95194  1.0000
  H   H209      1.0  0.00084  0.50120  0.02408  1.0000
  H   H210      1.0  0.13852  0.48847  0.46558  1.0000
  H   H211      1.0  0.03455  0.49063  0.92837  1.0000
  H   H212      1.0  0.98648  0.58574  0.63771  1.0000
  S   S45       1.0  0.03984  0.48575  0.53577  1.0000
  C   C171      1.0  0.19165  0.49302  0.24071  1.0000
  C   C172      1.0  0.18842  0.48798  0.27593  1.0000
  H   H213      1.0  0.19770  0.49623  0.29588  1.0000
  C   C173      1.0  0.98628  0.58252  0.34781  1.0000
  H   H214      1.0  0.22433  0.58379  0.46579  1.0000
  H   H215      1.0  0.98097  0.58251  0.32160  1.0000
  H   H216      1.0  0.01216  0.59099  0.32785  1.0000
  S   S46       1.0  0.21572  0.73451  0.08806  1.0000
  H   H217      1.0  0.06536  0.51681  0.75868  1.0000
  C   C174      1.0  0.20904  0.73356  0.53208  1.0000
  C   C175      1.0  0.22505  0.73323  0.21781  1.0000
  S   S47       1.0  0.22236  0.73387  0.32640  1.0000
  H   H218      1.0  0.16543  0.48642  0.44644  1.0000
  C   C176      1.0  0.20947  0.76629  0.52389  1.0000
  C   C177      1.0  0.19530  0.75131  0.51098  1.0000
  H   H219      1.0  0.18450  0.75233  0.49725  1.0000
  H   H220      1.0  0.21435  0.74386  0.25819  1.0000
  H   H221      1.0  0.20920  0.77868  0.51932  1.0000
  C   C178      1.0  0.22173  0.73644  0.25321  1.0000
  C   C179      1.0  0.19506  0.73497  0.51521  1.0000
  C   C180      1.0  0.22385  0.76532  0.54169  1.0000
  S   S48       1.0  0.22058  0.73608  0.43296  1.0000
  H   H222      1.0  0.22572  0.78341  0.60146  1.0000
  C   C181      1.0  0.22330  0.74844  0.54505  1.0000
  H   H223      1.0  0.22397  0.79619  0.56547  1.0000
  H   H224      1.0  0.22026  0.73823  0.19606  1.0000
  H   H225      1.0  0.38815  0.99182  0.06972  1.0000
  S   S49       1.0  0.44744  0.05827  0.51606  1.0000
  Fe  Fe22      1.0  0.44553  0.05285  0.41381  1.0000
  S   S50       1.0  0.42236  0.05023  0.44610  1.0000
  S   S51       1.0  0.45057  0.05219  0.35431  1.0000
  Fe  Fe23      1.0  0.44158  0.07455  0.47613  1.0000
  S   S52       1.0  0.43578  0.09789  0.49245  1.0000
  Fe  Fe24      1.0  0.43035  0.03410  0.48382  1.0000
  S   S53       1.0  0.41491  0.01102  0.52030  1.0000
  S   S54       1.0  0.46402  0.07768  0.44220  1.0000
  S   S55       1.0  0.45224  0.03533  0.44966  1.0000
  H   H226      1.0  0.44446  0.09627  0.23221  1.0000
  S   S56       1.0  0.45619  0.06197  0.05520  1.0000
  Fe  Fe25      1.0  0.43453  0.05886  0.14606  1.0000
  S   S57       1.0  0.42017  0.05593  0.09330  1.0000
  S   S58       1.0  0.42125  0.05744  0.19913  1.0000
  Fe  Fe26      1.0  0.43298  0.03878  0.07585  1.0000
  S   S59       1.0  0.42197  0.01421  0.03832  1.0000
  Fe  Fe27      1.0  0.44414  0.07928  0.07562  1.0000
  S   S60       1.0  0.44235  0.09996  0.03812  1.0000
  S   S61       1.0  0.44589  0.04045  0.12960  1.0000
  S   S62       1.0  0.45721  0.08329  0.12950  1.0000
  H   H227      1.0  0.42606  0.08249  0.41478  1.0000
  C   C182      1.0  0.44293  0.09790  0.26034  1.0000
  C   C183      1.0  0.39189  0.02181  0.93518  1.0000
  S   S63       1.0  0.46337  0.21278  0.94434  1.0000
  H   H228      1.0  0.40909  0.09924  0.37198  1.0000
  S   S64       1.0  0.46265  0.21278  0.58566  1.0000
  C   C184      1.0  0.45246  0.12335  0.03357  1.0000
  C   C185      1.0  0.44672  0.13081  0.00592  1.0000
  C   C186      1.0  0.45465  0.14902  0.00021  1.0000
  C   C187      1.0  0.37570  0.00481  0.98416  1.0000
  C   C188      1.0  0.42837  0.08282  0.38578  1.0000
  C   C189      1.0  0.45155  0.09664  0.32129  1.0000
  H   H229      1.0  0.42140  0.10890  0.41131  1.0000
  H   H230      1.0  0.45793  0.10665  0.57783  1.0000
  C   C190      1.0  0.46803  0.15635  0.52584  1.0000
  H   H231      1.0  0.47210  0.12306  0.48017  1.0000
  H   H232      1.0  0.36748  0.99899  0.60408  1.0000
  H   H233      1.0  0.38727  0.06089  0.99127  1.0000
  C   C191      1.0  0.40528  0.99272  0.02778  1.0000
  H   H234      1.0  0.39260  0.02718  0.04298  1.0000
  N   N13       1.0  0.43511  0.10080  0.37269  1.0000
  C   C192      1.0  0.44854  0.12051  0.50447  1.0000
  H   H235      1.0  0.41562  0.05986  0.00977  1.0000
  H   H236      1.0  0.43608  0.12241  0.98858  1.0000
  H   H237      1.0  0.41605  0.05298  0.96530  1.0000
  C   C193      1.0  0.45032  0.14751  0.53332  1.0000
  C   C194      1.0  0.44072  0.12976  0.52280  1.0000
  H   H238      1.0  0.44408  0.15425  0.54769  1.0000
  H   H239      1.0  0.42713  0.12311  0.52925  1.0000
  C   C195      1.0  0.44158  0.05279  0.31145  1.0000
  C   C196      1.0  0.42526  0.05279  0.30645  1.0000
  C   C197      1.0  0.41912  0.05392  0.27193  1.0000
  C   C198      1.0  0.42916  0.05505  0.24194  1.0000
  C   C199      1.0  0.44537  0.05480  0.24695  1.0000
  C   C200      1.0  0.45149  0.05365  0.28142  1.0000
  H   H240      1.0  0.41734  0.05189  0.32906  1.0000
  H   H241      1.0  0.40654  0.05403  0.26841  1.0000
  H   H242      1.0  0.45328  0.05565  0.22428  1.0000
  H   H243      1.0  0.37044  0.99596  0.53960  1.0000
  H   H244      1.0  0.43629  0.22683  0.58473  1.0000
  H   H245      1.0  0.39100  0.04754  0.04471  1.0000
  C   C201      1.0  0.46627  0.13462  0.05564  1.0000
  H   H246      1.0  0.41589  0.07415  0.37202  1.0000
  C   C202      1.0  0.43071  0.22877  0.61002  1.0000
  H   H247      1.0  0.45987  0.09359  0.33910  1.0000
  C   C203      1.0  0.47425  0.15282  0.04981  1.0000
  Fe  Fe28      1.0  0.46780  0.06469  0.11014  1.0000
  H   H248      1.0  0.46113  0.10584  0.39145  1.0000
  C   C204      1.0  0.46944  0.11819  0.58581  1.0000
  H   H249      1.0  0.45001  0.15435  0.97876  1.0000
  H   H250      1.0  0.41779  0.04009  0.00090  1.0000
  N   N14       1.0  0.39190  0.03786  0.99185  1.0000
  C   C205      1.0  0.38373  0.04846  0.97593  1.0000
  C   C206      1.0  0.38669  0.03501  0.02944  1.0000
  C   C207      1.0  0.41110  0.04809  0.99185  1.0000
  H   H251      1.0  0.39992  0.03396  0.92295  1.0000
  H   H252      1.0  0.40499  0.98760  0.57866  1.0000
  C   C208      1.0  0.38661  0.02144  0.97078  1.0000
  H   H253      1.0  0.46431  0.09232  0.27585  1.0000
  H   H254      1.0  0.45388  0.13126  0.60217  1.0000
  H   H255      1.0  0.47611  0.11203  0.99212  1.0000
  H   H256      1.0  0.36929  0.04121  0.97517  1.0000
  H   H257      1.0  0.46410  0.05360  0.28485  1.0000
  H   H258      1.0  0.38789  0.05208  0.94830  1.0000
  H   H259      1.0  0.37232  0.02835  0.03185  1.0000
  H   H260      1.0  0.41557  0.10478  0.31521  1.0000
  C   C209      1.0  0.42920  0.10123  0.27191  1.0000
  H   H261      1.0  0.39140  0.00706  0.88777  1.0000
  C   C210      1.0  0.47572  0.14719  0.50680  1.0000
  C   C211      1.0  0.45172  0.11168  0.39210  1.0000
  C   C212      1.0  0.43792  0.10040  0.33411  1.0000
  C   C213      1.0  0.42666  0.10252  0.30820  1.0000
  H   H262      1.0  0.43757  0.07690  0.38107  1.0000
  C   C214      1.0  0.42247  0.10788  0.38199  1.0000
  H   H263      1.0  0.37108  0.00304  0.01092  1.0000
  H   H264      1.0  0.42022  0.10234  0.25249  1.0000
  H   H265      1.0  0.42644  0.12116  0.37140  1.0000
  C   C215      1.0  0.46860  0.16026  0.02199  1.0000
  C   C216      1.0  0.40633  0.98768  0.52167  1.0000
  H   H266      1.0  0.47089  0.12933  0.07714  1.0000
  H   H267      1.0  0.46887  0.09942  0.52429  1.0000
  C   C217      1.0  0.46694  0.13230  0.59941  1.0000
  C   C218      1.0  0.38697  0.00650  0.91468  1.0000
  C   C219      1.0  0.46739  0.99066  0.46074  1.0000
  C   C220      1.0  0.46605  0.12956  0.49580  1.0000
  C   C221      1.0  0.46399  0.00105  0.48548  1.0000
  C   C222      1.0  0.37067  0.98962  0.96324  1.0000
  C   C223      1.0  0.45412  0.09570  0.28498  1.0000
  Fe  Fe29      1.0  0.46864  0.05993  0.48004  1.0000
  H   H268      1.0  0.43026  0.98849  0.08927  1.0000
  H   H269      1.0  0.41897  0.98906  0.98323  1.0000
  H   H270      1.0  0.45806  0.12492  0.38087  1.0000
  H   H271      1.0  0.45070  0.98579  0.13354  1.0000
  H   H272      1.0  0.44967  0.11324  0.42082  1.0000
  H   H273      1.0  0.45076  0.99758  0.49363  1.0000
  H   H274      1.0  0.41630  0.22141  0.60810  1.0000
  H   H275      1.0  0.43545  0.22258  0.63092  1.0000
  H   H276      1.0  0.41866  0.23458  0.55207  1.0000
  H   H277      1.0  0.46390  0.08395  0.57985  1.0000
  C   C224      1.0  0.37643  0.99043  0.92876  1.0000
  C   C225      1.0  0.36316  0.98610  0.59201  1.0000
  S   S65       1.0  0.47368  0.23116  0.68682  1.0000
  C   C226      1.0  0.39009  0.98485  0.04727  1.0000
  H   H278      1.0  0.47478  0.02471  0.51709  1.0000
  C   C227      1.0  0.47561  0.23308  0.79583  1.0000
  C   C228      1.0  0.37402  0.41035  0.71531  1.0000
  S   S66       1.0  0.45607  0.25229  0.99888  1.0000
  H   H279      1.0  0.43970  0.46665  0.95868  1.0000
  Fe  Fe30      1.0  0.45313  0.34822  0.06804  1.0000
  S   S67       1.0  0.46581  0.36093  0.12061  1.0000
  S   S68       1.0  0.45942  0.32841  0.03512  1.0000
  Fe  Fe31      1.0  0.43650  0.37421  0.05712  1.0000
  S   S69       1.0  0.44807  0.38858  0.10851  1.0000
  S   S70       1.0  0.42033  0.37963  0.01297  1.0000
  Fe  Fe32      1.0  0.24080  0.47577  0.43426  1.0000
  Fe  Fe33      1.0  0.44075  0.36243  0.13297  1.0000
  S   S71       1.0  0.42963  0.36147  0.18835  1.0000
  S   S72       1.0  0.46187  0.37408  0.04092  1.0000
  S   S73       1.0  0.42717  0.34775  0.08222  1.0000
  Fe  Fe34      1.0  0.36998  0.44212  0.95053  1.0000
  S   S74       1.0  0.36412  0.46316  0.97543  1.0000
  S   S75       1.0  0.38481  0.43247  0.99038  1.0000
  Fe  Fe35      1.0  0.35528  0.44729  0.87890  1.0000
  S   S76       1.0  0.34875  0.46882  0.89938  1.0000
  S   S77       1.0  0.34747  0.43617  0.82198  1.0000
  C   C229      1.0  0.42600  0.30842  0.95825  1.0000
  Fe  Fe36      1.0  0.33806  0.45237  0.94704  1.0000
  S   S78       1.0  0.31795  0.45545  0.98375  1.0000
  S   S79       1.0  0.38250  0.45856  0.90341  1.0000
  S   S80       1.0  0.34286  0.42976  0.92541  1.0000
  Fe  Fe37      1.0  0.37482  0.47859  0.92725  1.0000
  S   S81       1.0  0.45325  0.36565  0.50158  1.0000
  Fe  Fe38      1.0  0.45293  0.35732  0.40027  1.0000
  S   S82       1.0  0.43186  0.33973  0.43603  1.0000
  S   S83       1.0  0.45528  0.35027  0.34230  1.0000
  Fe  Fe39      1.0  0.43341  0.36494  0.46080  1.0000
  S   S84       1.0  0.40765  0.36635  0.47376  1.0000
  Fe  Fe40      1.0  0.45356  0.34193  0.47425  1.0000
  C   C230      1.0  0.46294  0.27078  0.51655  1.0000
  S   S85       1.0  0.45326  0.38226  0.42256  1.0000
  C   C231      1.0  0.42867  0.47034  0.95985  1.0000
  Fe  Fe41      1.0  0.36982  0.45854  0.61287  1.0000
  S   S86       1.0  0.34642  0.43787  0.58377  1.0000
  S   S87       1.0  0.37834  0.46656  0.67097  1.0000
  Fe  Fe42      1.0  0.38850  0.47176  0.54317  1.0000
  S   S88       1.0  0.36681  0.45211  0.50943  1.0000
  Fe  Fe43      1.0  0.34877  0.45862  0.54384  1.0000
  S   S89       1.0  0.33129  0.47043  0.51810  1.0000
  Fe  Fe44      1.0  0.36640  0.43320  0.55104  1.0000
  S   S90       1.0  0.36466  0.40577  0.54050  1.0000
  S   S91       1.0  0.37101  0.47940  0.57555  1.0000
  S   S92       1.0  0.38921  0.45267  0.58230  1.0000
  H   H280      1.0  0.47083  0.47392  0.51351  1.0000
  S   S93       1.0  0.25591  0.46153  0.46003  1.0000
  H   H281      1.0  0.47083  0.23873  0.81647  1.0000
  S   S94       1.0  0.24494  0.46121  0.98253  1.0000
  C   C232      1.0  0.24158  0.44945  0.18098  1.0000
  H   H282      1.0  0.41640  0.45805  0.95860  1.0000
  H   H283      1.0  0.27710  0.46421  0.56223  1.0000
  H   H284      1.0  0.43732  0.46389  0.02384  1.0000
  C   C233      1.0  0.31031  0.46730  0.50056  1.0000
  C   C234      1.0  0.27736  0.46637  0.01197  1.0000
  H   H285      1.0  0.46308  0.40291  0.33102  1.0000
  C   C235      1.0  0.27724  0.46412  0.47411  1.0000
  C   C236      1.0  0.27900  0.45009  0.49031  1.0000
  C   C237      1.0  0.29533  0.45162  0.50333  1.0000
  H   H286      1.0  0.39119  0.47708  0.74239  1.0000
  H   H287      1.0  0.44036  0.28157  0.61911  1.0000
  H   H288      1.0  0.27504  0.43175  0.07027  1.0000
  H   H289      1.0  0.41613  0.28110  0.51910  1.0000
  C   C238      1.0  0.39720  0.37884  0.49249  1.0000
  C   C239      1.0  0.40548  0.39689  0.50046  1.0000
  C   C240      1.0  0.39587  0.40568  0.51459  1.0000
  C   C241      1.0  0.37800  0.39642  0.52130  1.0000
  C   C242      1.0  0.37003  0.37849  0.51345  1.0000
  C   C243      1.0  0.37941  0.36990  0.49896  1.0000
  H   H290      1.0  0.41919  0.40406  0.49560  1.0000
  H   H291      1.0  0.40232  0.41952  0.52055  1.0000
  H   H292      1.0  0.35635  0.37109  0.51845  1.0000
  H   H293      1.0  0.37277  0.35605  0.49311  1.0000
  C   C244      1.0  0.29790  0.45758  0.98190  1.0000
  C   C245      1.0  0.28665  0.45253  0.95211  1.0000
  C   C246      1.0  0.27066  0.45390  0.95270  1.0000
  C   C247      1.0  0.26581  0.46074  0.98265  1.0000
  C   C248      1.0  0.40715  0.31027  0.91138  1.0000
  C   C249      1.0  0.34234  0.39406  0.63611  1.0000
  H   H294      1.0  0.29004  0.44714  0.92891  1.0000
  C   C250      1.0  0.36917  0.41968  0.64172  1.0000
  C   C251      1.0  0.40463  0.33490  0.33742  1.0000
  C   C252      1.0  0.35592  0.44545  0.78039  1.0000
  C   C253      1.0  0.37211  0.45976  0.77768  1.0000
  C   C254      1.0  0.37866  0.46603  0.74402  1.0000
  C   C255      1.0  0.36916  0.45814  0.71261  1.0000
  C   C256      1.0  0.35290  0.44394  0.71530  1.0000
  C   C257      1.0  0.34635  0.43770  0.74896  1.0000
  H   H295      1.0  0.37964  0.46588  0.80151  1.0000
  S   S95       1.0  0.47443  0.35801  0.43711  1.0000
  H   H296      1.0  0.34529  0.43784  0.69157  1.0000
  H   H297      1.0  0.33375  0.42675  0.75071  1.0000
  C   C258      1.0  0.43823  0.35954  0.23057  1.0000
  C   C259      1.0  0.43449  0.36719  0.26068  1.0000
  C   C260      1.0  0.43994  0.36488  0.29499  1.0000
  C   C261      1.0  0.44911  0.35477  0.29965  1.0000
  C   C262      1.0  0.45311  0.34739  0.26948  1.0000
  C   C263      1.0  0.44769  0.34972  0.23518  1.0000
  H   H298      1.0  0.42700  0.37464  0.25750  1.0000
  H   H299      1.0  0.43676  0.37058  0.31786  1.0000
  H   H300      1.0  0.46013  0.33948  0.27275  1.0000
  H   H301      1.0  0.45044  0.34351  0.21243  1.0000
  C   C264      1.0  0.41086  0.39473  0.00723  1.0000
  C   C265      1.0  0.40267  0.39486  0.97445  1.0000
  C   C266      1.0  0.39474  0.40627  0.96865  1.0000
  C   C267      1.0  0.39475  0.41775  0.99569  1.0000
  C   C268      1.0  0.40303  0.41770  0.02840  1.0000
  C   C269      1.0  0.41105  0.40636  0.03414  1.0000
  H   H302      1.0  0.40238  0.38599  0.95334  1.0000
  H   H303      1.0  0.38847  0.40604  0.94336  1.0000
  H   H304      1.0  0.40307  0.42635  0.04972  1.0000
  H   H305      1.0  0.41716  0.40645  0.05956  1.0000
  C   C270      1.0  0.42912  0.24890  0.65327  1.0000
  C   C271      1.0  0.45463  0.27437  0.48721  1.0000
  C   C272      1.0  0.45356  0.29047  0.48465  1.0000
  H   H306      1.0  0.27181  0.44724  0.18720  1.0000
  C   C273      1.0  0.26555  0.43615  0.07945  1.0000
  H   H307      1.0  0.27336  0.46687  0.20814  1.0000
  H   H308      1.0  0.44884  0.26457  0.46637  1.0000
  H   H309      1.0  0.44689  0.29287  0.46218  1.0000
  C   C274      1.0  0.45532  0.25612  0.62070  1.0000
  C   C275      1.0  0.40717  0.32610  0.30809  1.0000
  H   H310      1.0  0.23960  0.43578  0.18491  1.0000
  C   C276      1.0  0.24152  0.44824  0.10157  1.0000
  C   C277      1.0  0.34256  0.39535  0.71190  1.0000
  C   C278      1.0  0.45695  0.27359  0.00775  1.0000
  C   C279      1.0  0.25926  0.47723  0.15542  1.0000
  C   C280      1.0  0.39016  0.34755  0.29927  1.0000
  C   C281      1.0  0.45803  0.30703  0.02519  1.0000
  C   C282      1.0  0.44784  0.29233  0.04454  1.0000
  C   C283      1.0  0.44730  0.27581  0.03582  1.0000
  C   C284      1.0  0.47402  0.40611  0.20419  1.0000
  H   H311      1.0  0.39393  0.33743  0.40548  1.0000
  H   H312      1.0  0.44040  0.29367  0.06636  1.0000
  H   H313      1.0  0.43940  0.26466  0.05119  1.0000
  N   N15       1.0  0.35960  0.40177  0.65479  1.0000
  H   H314      1.0  0.38376  0.35581  0.29376  1.0000
  C   C285      1.0  0.42812  0.28277  0.57043  1.0000
  C   C286      1.0  0.43330  0.27408  0.59597  1.0000
  C   C287      1.0  0.38556  0.34328  0.39420  1.0000
  C   C288      1.0  0.40136  0.32808  0.27446  1.0000
  C   C289      1.0  0.42530  0.29314  0.94254  1.0000
  H   H315      1.0  0.36302  0.42824  0.65047  1.0000
  C   C290      1.0  0.36903  0.39134  0.64432  1.0000
  H   H316      1.0  0.36245  0.37783  0.65422  1.0000
  H   H317      1.0  0.40399  0.32182  0.25155  1.0000
  H   H318      1.0  0.26336  0.48150  0.53706  1.0000
  H   H319      1.0  0.41976  0.36179  0.38676  1.0000
  C   C291      1.0  0.35860  0.40236  0.69392  1.0000
  C   C292      1.0  0.41556  0.28639  0.91137  1.0000
  H   H320      1.0  0.38267  0.39712  0.65477  1.0000
  H   H321      1.0  0.41006  0.33349  0.36264  1.0000
  H   H322      1.0  0.41073  0.37610  0.40150  1.0000
  H   H323      1.0  0.27396  0.47172  0.03522  1.0000
  C   C293      1.0  0.37341  0.41175  0.75219  1.0000
  C   C294      1.0  0.25558  0.45049  0.12506  1.0000
  H   H324      1.0  0.34363  0.39411  0.60670  1.0000
  H   H325      1.0  0.30161  0.46847  0.03506  1.0000
  H   H326      1.0  0.41473  0.47826  0.65957  1.0000
  H   H327      1.0  0.40996  0.25018  0.50878  1.0000
  H   H328      1.0  0.43418  0.26256  0.66345  1.0000
  S   S96       1.0  0.46354  0.25001  0.51846  1.0000
  H   H329      1.0  0.38529  0.41844  0.76795  1.0000
  H   H330      1.0  0.46093  0.25502  0.59492  1.0000
  H   H331      1.0  0.43233  0.28648  0.95477  1.0000
  H   H332      1.0  0.33473  0.40161  0.64209  1.0000
  H   H333      1.0  0.27886  0.44548  0.12856  1.0000
  C   C295      1.0  0.40650  0.29493  0.89583  1.0000
  Fe  Fe45      1.0  0.23366  0.47538  0.01953  1.0000
  H   H334      1.0  0.33465  0.38021  0.64311  1.0000
  H   H335      1.0  0.38668  0.41588  0.70361  1.0000
  H   H336      1.0  0.36974  0.39042  0.61485  1.0000
  H   H337      1.0  0.36944  0.41968  0.61227  1.0000
  H   H338      1.0  0.38297  0.42598  0.65106  1.0000
  H   H339      1.0  0.41962  0.32574  0.01461  1.0000
  N   N16       1.0  0.43607  0.24756  0.61812  1.0000
  C   C296      1.0  0.26763  0.44422  0.11295  1.0000
  H   H340      1.0  0.44462  0.34277  0.98002  1.0000
  H   H341      1.0  0.39789  0.31888  0.99701  1.0000
  H   H342      1.0  0.41502  0.27450  0.89935  1.0000
  C   C297      1.0  0.35750  0.40497  0.76891  1.0000
  N   N17       1.0  0.41792  0.33358  0.96086  1.0000
  C   C298      1.0  0.43626  0.34690  0.96320  1.0000
  C   C299      1.0  0.40764  0.34145  0.94214  1.0000
  C   C300      1.0  0.41125  0.32964  0.99727  1.0000
  H   H343      1.0  0.44207  0.34973  0.93654  1.0000
  H   H344      1.0  0.43736  0.35940  0.97527  1.0000
  H   H345      1.0  0.41238  0.34537  0.91493  1.0000
  H   H346      1.0  0.40869  0.35353  0.95618  1.0000
  H   H347      1.0  0.39355  0.33242  0.94080  1.0000
  H   H348      1.0  0.41074  0.34121  0.01057  1.0000
  H   H349      1.0  0.43364  0.31307  0.98245  1.0000
  C   C301      1.0  0.30860  0.48129  0.48394  1.0000
  H   H350      1.0  0.23196  0.45286  0.10865  1.0000
  H   H351      1.0  0.46123  0.39499  0.20912  1.0000
  H   H352      1.0  0.41440  0.31834  0.31124  1.0000
  C   C302      1.0  0.41615  0.25671  0.53355  1.0000
  H   H353      1.0  0.41468  0.45802  0.02249  1.0000
  H   H354      1.0  0.26758  0.43792  0.49307  1.0000
  H   H355      1.0  0.43135  0.29653  0.57402  1.0000
  H   H356      1.0  0.22900  0.43896  0.05033  1.0000
  H   H357      1.0  0.38269  0.34995  0.41717  1.0000
  C   C303      1.0  0.28428  0.47828  0.56195  1.0000
  H   H358      1.0  0.38985  0.37573  0.33861  1.0000
  H   H359      1.0  0.38890  0.34064  0.24358  1.0000
  H   H360      1.0  0.28502  0.46826  0.16853  1.0000
  H   H361      1.0  0.26083  0.48434  0.18126  1.0000
  H   H362      1.0  0.43283  0.24170  0.67379  1.0000
  C   C304      1.0  0.43001  0.25632  0.59105  1.0000
  H   H363      1.0  0.41466  0.24342  0.65197  1.0000
  H   H364      1.0  0.24235  0.45569  0.20755  1.0000
  C   C305      1.0  0.42129  0.24787  0.55887  1.0000
  C   C306      1.0  0.46048  0.30314  0.51186  1.0000
  C   C307      1.0  0.41151  0.36829  0.37819  1.0000
  C   C308      1.0  0.41698  0.31749  0.94325  1.0000
  Fe  Fe46      1.0  0.47254  0.38648  0.09420  1.0000
  H   H365      1.0  0.39979  0.31616  0.89801  1.0000
  S   S97       1.0  0.45793  0.32296  0.51237  1.0000
  C   C309      1.0  0.29308  0.46449  0.01181  1.0000
  H   H366      1.0  0.39890  0.28958  0.87160  1.0000
  C   C310      1.0  0.23961  0.44018  0.06818  1.0000
  H   H367      1.0  0.25024  0.42823  0.03093  1.0000
  H   H368      1.0  0.42870  0.47748  0.93536  1.0000
  Fe  Fe47      1.0  0.47297  0.38138  0.46214  1.0000
  C   C311      1.0  0.41957  0.27410  0.53931  1.0000
  H   H369      1.0  0.41853  0.37753  0.35716  1.0000
  C   C312      1.0  0.34214  0.39665  0.74887  1.0000
  H   H370      1.0  0.33014  0.38910  0.69809  1.0000
  H   H371      1.0  0.32981  0.39172  0.76214  1.0000
  H   H372      1.0  0.35702  0.40656  0.79742  1.0000
  C   C313      1.0  0.39599  0.34586  0.33399  1.0000
  H   H373      1.0  0.29626  0.44068  0.51586  1.0000
  C   C314      1.0  0.39288  0.33876  0.27006  1.0000
  N   N18       1.0  0.39406  0.35553  0.36535  1.0000
  H   H374      1.0  0.37309  0.33250  0.38470  1.0000
  H   H375      1.0  0.37022  0.35642  0.34803  1.0000
  C   C315      1.0  0.47050  0.28374  0.54303  1.0000
  H   H376      1.0  0.40234  0.47406  0.99359  1.0000
  H   H377      1.0  0.26193  0.44951  0.92978  1.0000
  H   H378      1.0  0.38197  0.37198  0.38252  1.0000
  H   H379      1.0  0.46043  0.25005  0.64109  1.0000
  C   C316      1.0  0.25155  0.43408  0.05722  1.0000
  N   N19       1.0  0.25734  0.45921  0.16023  1.0000
  C   C317      1.0  0.38353  0.36529  0.35806  1.0000
  C   C318      1.0  0.46681  0.28824  0.98788  1.0000
  C   C319      1.0  0.27258  0.46039  0.18181  1.0000
  C   C320      1.0  0.46906  0.29966  0.54087  1.0000
  H   H380      1.0  0.47400  0.28685  0.96566  1.0000
  H   H381      1.0  0.24771  0.47751  0.14197  1.0000
  C   C321      1.0  0.46740  0.30476  0.99667  1.0000
  C   C322      1.0  0.29229  0.47971  0.47066  1.0000
  H   H382      1.0  0.22957  0.44882  0.16778  1.0000
  C   C323      1.0  0.47240  0.23528  0.75967  1.0000
  H   H383      1.0  0.43547  0.48143  0.67747  1.0000
  C   C324      1.0  0.47419  0.40366  0.27972  1.0000
  C   C325      1.0  0.42764  0.46944  0.02333  1.0000
  H   H384      1.0  0.46513  0.24263  0.75304  1.0000
  Fe  Fe48      1.0  0.47241  0.23930  0.97298  1.0000
  H   H385      1.0  0.47459  0.30938  0.56195  1.0000
  H   H386      1.0  0.46053  0.27020  0.62791  1.0000
  H   H387      1.0  0.47513  0.40690  0.17478  1.0000
  H   H388      1.0  0.47523  0.31590  0.98119  1.0000
  H   H389      1.0  0.46394  0.40602  0.26719  1.0000
  H   H390      1.0  0.30771  0.47812  0.58368  1.0000
  H   H391      1.0  0.47629  0.31803  0.10331  1.0000
  H   H392      1.0  0.47374  0.41844  0.21354  1.0000
  C   C326      1.0  0.47351  0.40190  0.31658  1.0000
  H   H393      1.0  0.42843  0.47656  0.04878  1.0000
  N   N20       1.0  0.42987  0.48080  0.99245  1.0000
  H   H394      1.0  0.30050  0.58826  0.70788  1.0000
  Fe  Fe49      1.0  0.30919  0.65472  0.95009  1.0000
  S   S98       1.0  0.29085  0.63885  0.90622  1.0000
  S   S99       1.0  0.30365  0.66904  0.99604  1.0000
  Fe  Fe50      1.0  0.33808  0.64553  0.92571  1.0000
  S   S100      1.0  0.32190  0.62851  0.87998  1.0000
  S   S101      1.0  0.36639  0.65056  0.93212  1.0000
  Fe  Fe51      1.0  0.31377  0.64992  0.87042  1.0000
  S   S102      1.0  0.30981  0.65930  0.81612  1.0000
  Fe  Fe52      1.0  0.30018  0.61842  0.91873  1.0000
  S   S103      1.0  0.27971  0.59024  0.91481  1.0000
  S   S104      1.0  0.33145  0.66778  0.91352  1.0000
  S   S105      1.0  0.31703  0.63348  0.96531  1.0000
  Fe  Fe53      1.0  0.44178  0.71012  0.06524  1.0000
  C   C327      1.0  0.45662  0.51402  0.70936  1.0000
  S   S106      1.0  0.41227  0.69584  0.06307  1.0000
  Fe  Fe54      1.0  0.22822  0.72630  0.38221  1.0000
  H   H395      1.0  0.35664  0.50544  0.44362  1.0000
  Fe  Fe55      1.0  0.44505  0.71191  0.44126  1.0000
  H   H396      1.0  0.44849  0.49635  0.62015  1.0000
  S   S107      1.0  0.41661  0.69292  0.43445  1.0000
  S   S108      1.0  0.46268  0.69998  0.42419  1.0000
  Fe  Fe56      1.0  0.31137  0.62302  0.53559  1.0000
  S   S109      1.0  0.31546  0.64948  0.51639  1.0000
  S   S110      1.0  0.30852  0.60180  0.49502  1.0000
  Fe  Fe57      1.0  0.31461  0.63441  0.61419  1.0000
  S   S111      1.0  0.31857  0.66145  0.60096  1.0000
  S   S112      1.0  0.31568  0.62426  0.66940  1.0000
  Fe  Fe58      1.0  0.29733  0.64860  0.55962  1.0000
  S   S113      1.0  0.27452  0.65554  0.55464  1.0000
  Fe  Fe59      1.0  0.33642  0.66012  0.55883  1.0000
  S   S114      1.0  0.36218  0.68389  0.55450  1.0000
  S   S115      1.0  0.29177  0.62139  0.57604  1.0000
  S   S116      1.0  0.33396  0.63386  0.57474  1.0000
  S   S117      1.0  0.25928  0.69031  0.41878  1.0000
  S   S118      1.0  0.46018  0.71867  0.02018  1.0000
  C   C328      1.0  0.31279  0.72392  0.50249  1.0000
  C   C329      1.0  0.43947  0.68394  0.51788  1.0000
  S   S119      1.0  0.45275  0.56522  0.58469  1.0000
  H   H397      1.0  0.31538  0.55178  0.99451  1.0000
  H   H398      1.0  0.46944  0.57853  0.66217  1.0000
  S   S120      1.0  0.23904  0.53188  0.47507  1.0000
  H   H399      1.0  0.31008  0.57170  0.74955  1.0000
  S   S121      1.0  0.25252  0.50165  0.40732  1.0000
  H   H400      1.0  0.28150  0.49828  0.97082  1.0000
  C   C330      1.0  0.42020  0.71361  0.22674  1.0000
  S   S122      1.0  0.25913  0.53967  0.04604  1.0000
  H   H401      1.0  0.35610  0.70974  0.93805  1.0000
  H   H402      1.0  0.25774  0.59562  0.07831  1.0000
  C   C331      1.0  0.42460  0.51040  0.53692  1.0000
  C   C332      1.0  0.41608  0.51707  0.55975  1.0000
  C   C333      1.0  0.42487  0.53398  0.57409  1.0000
  C   C334      1.0  0.44230  0.54415  0.56629  1.0000
  C   C335      1.0  0.45096  0.53745  0.54387  1.0000
  C   C336      1.0  0.44203  0.52061  0.52888  1.0000
  H   H403      1.0  0.40269  0.50934  0.56606  1.0000
  H   H404      1.0  0.41813  0.53926  0.59114  1.0000
  H   H405      1.0  0.46441  0.54532  0.53766  1.0000
  H   H406      1.0  0.44865  0.51548  0.51119  1.0000
  C   C337      1.0  0.33918  0.50379  0.93414  1.0000
  C   C338      1.0  0.41097  0.51846  0.92389  1.0000
  C   C339      1.0  0.41632  0.51156  0.89519  1.0000
  C   C340      1.0  0.43284  0.52105  0.88117  1.0000
  C   C341      1.0  0.44414  0.53730  0.89614  1.0000
  C   C342      1.0  0.43888  0.54409  0.92513  1.0000
  C   C343      1.0  0.42226  0.53472  0.93881  1.0000
  H   H407      1.0  0.28694  0.72338  0.54695  1.0000
  H   H408      1.0  0.43690  0.51574  0.85877  1.0000
  H   H409      1.0  0.44754  0.55660  0.93684  1.0000
  H   H410      1.0  0.41818  0.54008  0.96109  1.0000
  C   C344      1.0  0.28931  0.58222  0.49010  1.0000
  C   C345      1.0  0.27523  0.57866  0.51209  1.0000
  C   C346      1.0  0.25988  0.56325  0.50681  1.0000
  C   C347      1.0  0.25856  0.55114  0.47987  1.0000
  C   C348      1.0  0.27275  0.55452  0.45819  1.0000
  C   C349      1.0  0.28807  0.57004  0.46329  1.0000
  H   H411      1.0  0.27620  0.58776  0.53321  1.0000
  H   H412      1.0  0.24899  0.56067  0.52382  1.0000
  H   H413      1.0  0.27185  0.54534  0.43720  1.0000
  H   H414      1.0  0.29893  0.57275  0.44614  1.0000
  C   C350      1.0  0.27074  0.66550  0.51686  1.0000
  C   C351      1.0  0.28155  0.66931  0.48766  1.0000
  C   C352      1.0  0.27776  0.67670  0.45752  1.0000
  C   C353      1.0  0.26334  0.68061  0.45661  1.0000
  C   C354      1.0  0.25255  0.67683  0.48581  1.0000
  C   C355      1.0  0.25623  0.66925  0.51578  1.0000
  H   H415      1.0  0.29288  0.66667  0.48830  1.0000
  C   C356      1.0  0.30897  0.50513  0.96827  1.0000
  H   H416      1.0  0.24778  0.66627  0.53824  1.0000
  H   H417      1.0  0.42100  0.67115  0.31598  1.0000
  C   C357      1.0  0.40155  0.69069  0.46783  1.0000
  C   C358      1.0  0.40584  0.70248  0.49656  1.0000
  C   C359      1.0  0.39363  0.70020  0.52291  1.0000
  C   C360      1.0  0.37707  0.68611  0.52083  1.0000
  C   C361      1.0  0.37277  0.67426  0.49215  1.0000
  C   C362      1.0  0.38497  0.67660  0.46566  1.0000
  H   H418      1.0  0.41852  0.71345  0.49840  1.0000
  H   H419      1.0  0.39701  0.70939  0.54506  1.0000
  H   H420      1.0  0.36003  0.66339  0.49030  1.0000
  H   H421      1.0  0.38154  0.66743  0.44349  1.0000
  H   H422      1.0  0.28334  0.58308  0.83363  1.0000
  C   C363      1.0  0.32818  0.53535  0.98180  1.0000
  C   C364      1.0  0.28662  0.58429  0.80589  1.0000
  H   H423      1.0  0.27358  0.62298  0.83522  1.0000
  C   C365      1.0  0.27491  0.57595  0.95086  1.0000
  C   C366      1.0  0.28389  0.58123  0.98343  1.0000
  C   C367      1.0  0.27906  0.56989  0.01220  1.0000
  C   C368      1.0  0.26539  0.55308  0.00853  1.0000
  C   C369      1.0  0.25677  0.54760  0.97559  1.0000
  C   C370      1.0  0.26147  0.55903  0.94694  1.0000
  H   H424      1.0  0.29455  0.59405  0.98640  1.0000
  H   H425      1.0  0.28589  0.57419  0.03750  1.0000
  H   H426      1.0  0.24622  0.53472  0.97242  1.0000
  H   H427      1.0  0.25450  0.55481  0.92178  1.0000
  C   C371      1.0  0.31323  0.65076  0.77521  1.0000
  C   C372      1.0  0.30828  0.65591  0.74327  1.0000
  C   C373      1.0  0.30953  0.64839  0.71047  1.0000
  C   C374      1.0  0.31577  0.63563  0.70933  1.0000
  C   C375      1.0  0.32118  0.63085  0.74117  1.0000
  C   C376      1.0  0.31991  0.63834  0.77392  1.0000
  H   H428      1.0  0.30316  0.66555  0.74392  1.0000
  H   H429      1.0  0.30534  0.65222  0.68617  1.0000
  H   H430      1.0  0.32621  0.62114  0.74057  1.0000
  H   H431      1.0  0.32398  0.63437  0.79814  1.0000
  C   C377      1.0  0.37904  0.66179  0.96986  1.0000
  C   C378      1.0  0.39727  0.66878  0.96884  1.0000
  C   C379      1.0  0.40772  0.67898  0.99749  1.0000
  C   C380      1.0  0.39994  0.68189  0.02767  1.0000
  C   C381      1.0  0.38172  0.67420  0.02929  1.0000
  C   C382      1.0  0.37129  0.66445  0.00030  1.0000
  H   H432      1.0  0.40335  0.66670  0.94540  1.0000
  H   H433      1.0  0.42174  0.68474  0.99602  1.0000
  H   H434      1.0  0.37562  0.67619  0.05277  1.0000
  H   H435      1.0  0.35727  0.65896  0.00152  1.0000
  C   C383      1.0  0.26010  0.68737  0.99355  1.0000
  C   C384      1.0  0.26215  0.67784  0.96464  1.0000
  C   C385      1.0  0.27546  0.67221  0.96498  1.0000
  C   C386      1.0  0.28683  0.67601  0.99436  1.0000
  C   C387      1.0  0.28467  0.68536  0.02346  1.0000
  C   C388      1.0  0.27138  0.69106  0.02306  1.0000
  H   H436      1.0  0.27702  0.66510  0.94236  1.0000
  H   H437      1.0  0.29341  0.68835  0.04630  1.0000
  H   H438      1.0  0.26992  0.69835  0.04549  1.0000
  C   C389      1.0  0.40153  0.54348  0.50793  1.0000
  H   H439      1.0  0.34433  0.51094  0.02330  1.0000
  H   H440      1.0  0.38485  0.49436  0.46283  1.0000
  H   H441      1.0  0.32873  0.49028  0.93550  1.0000
  C   C390      1.0  0.40919  0.52846  0.46111  1.0000
  H   H442      1.0  0.28063  0.62932  0.45270  1.0000
  H   H443      1.0  0.26557  0.49868  0.48650  1.0000
  H   H444      1.0  0.42646  0.49139  0.60642  1.0000
  S   S123      1.0  0.24312  0.69410  0.99150  1.0000
  H   H445      1.0  0.39251  0.65541  0.52368  1.0000
  C   C391      1.0  0.45085  0.51725  0.67579  1.0000
  C   C392      1.0  0.25106  0.58863  0.05444  1.0000
  H   H446      1.0  0.44734  0.55999  0.81743  1.0000
  H   H447      1.0  0.28616  0.67963  0.43501  1.0000
  H   H448      1.0  0.44810  0.68506  0.49534  1.0000
  C   C393      1.0  0.44352  0.56579  0.68148  1.0000
  C   C394      1.0  0.36681  0.51667  0.50909  1.0000
  H   H449      1.0  0.24131  0.67965  0.48520  1.0000
  C   C395      1.0  0.31368  0.53875  0.98709  1.0000
  C   C396      1.0  0.29692  0.52543  0.98312  1.0000
  H   H450      1.0  0.35297  0.49950  0.99472  1.0000
  H   H451      1.0  0.28573  0.52812  0.98761  1.0000
  H   H452      1.0  0.44938  0.50231  0.72370  1.0000
  H   H453      1.0  0.41004  0.67451  0.35315  1.0000
  C   C397      1.0  0.35823  0.52974  0.96611  1.0000
  H   H454      1.0  0.46548  0.66517  0.03237  1.0000
  N   N21       1.0  0.26525  0.61581  0.01880  1.0000
  C   C398      1.0  0.25707  0.62619  0.03558  1.0000
  C   C399      1.0  0.28222  0.62010  0.03726  1.0000
  C   C400      1.0  0.26903  0.62144  0.98163  1.0000
  C   C401      1.0  0.25348  0.59701  0.02137  1.0000
  C   C402      1.0  0.24286  0.56578  0.40972  1.0000
  H   H455      1.0  0.36171  0.53727  0.99169  1.0000
  H   H456      1.0  0.29993  0.54083  0.51900  1.0000
  H   H457      1.0  0.28218  0.61608  0.48861  1.0000
  H   H458      1.0  0.33626  0.51019  0.91109  1.0000
  C   C403      1.0  0.39627  0.52900  0.48376  1.0000
  H   H459      1.0  0.26552  0.64047  0.03397  1.0000
  H   H460      1.0  0.40917  0.71567  0.27526  1.0000
  H   H461      1.0  0.28119  0.61921  0.06650  1.0000
  H   H462      1.0  0.29188  0.63374  0.03246  1.0000
  H   H463      1.0  0.28798  0.61129  0.02805  1.0000
  C   C404      1.0  0.46151  0.57460  0.68551  1.0000
  C   C405      1.0  0.42636  0.48762  0.67501  1.0000
  H   H464      1.0  0.27860  0.63531  0.98038  1.0000
  H   H465      1.0  0.44604  0.69321  0.21176  1.0000
  H   H466      1.0  0.44085  0.50801  0.94641  1.0000
  C   C406      1.0  0.43828  0.50123  0.62062  1.0000
  H   H467      1.0  0.30642  0.49186  0.96153  1.0000
  C   C407      1.0  0.23097  0.49425  0.19947  1.0000
  N   N22       1.0  0.27722  0.51709  0.53012  1.0000
  C   C408      1.0  0.23580  0.49997  0.23513  1.0000
  H   H468      1.0  0.26764  0.52016  0.47873  1.0000
  C   C409      1.0  0.28778  0.53623  0.53433  1.0000
  C   C410      1.0  0.28568  0.50675  0.54595  1.0000
  C   C411      1.0  0.30332  0.51435  0.55837  1.0000
  H   H469      1.0  0.40766  0.49905  0.88352  1.0000
  H   H470      1.0  0.41694  0.71897  0.33515  1.0000
  Fe  Fe60      1.0  0.23871  0.51154  0.04374  1.0000
  H   H471      1.0  0.44111  0.68712  0.27466  1.0000
  H   H472      1.0  0.41855  0.51479  0.68382  1.0000
  H   H473      1.0  0.23524  0.60139  0.51252  1.0000
  H   H474      1.0  0.28068  0.54365  0.52421  1.0000
  H   H475      1.0  0.27506  0.72904  0.51393  1.0000
  S   S124      1.0  0.23483  0.49707  0.30814  1.0000
  H   H476      1.0  0.40281  0.72237  0.02500  1.0000
  H   H477      1.0  0.29110  0.54025  0.56271  1.0000
  H   H478      1.0  0.42685  0.52479  0.64259  1.0000
  C   C412      1.0  0.45995  0.49972  0.01973  1.0000
  H   H479      1.0  0.31150  0.52815  0.55734  1.0000
  S   S125      1.0  0.23839  0.71815  0.16670  1.0000
  H   H480      1.0  0.47028  0.55430  0.79155  1.0000
  H   H481      1.0  0.35119  0.50217  0.92820  1.0000
  H   H482      1.0  0.44282  0.51299  0.60420  1.0000
  C   C413      1.0  0.38820  0.66005  0.57687  1.0000
  C   C414      1.0  0.41295  0.67136  0.61733  1.0000
  H   H483      1.0  0.24775  0.70963  0.23492  1.0000
  H   H484      1.0  0.46809  0.53451  0.94828  1.0000
  C   C415      1.0  0.24014  0.57088  0.05731  1.0000
  C   C416      1.0  0.34107  0.72413  0.48943  1.0000
  N   N23       1.0  0.25605  0.61216  0.47496  1.0000
  Fe  Fe61      1.0  0.23420  0.50831  0.43975  1.0000
  C   C417      1.0  0.24963  0.60737  0.51144  1.0000
  C   C418      1.0  0.27502  0.62344  0.47831  1.0000
  C   C419      1.0  0.25178  0.59636  0.45246  1.0000
  H   H485      1.0  0.41614  0.49476  0.01433  1.0000
  S   S126      1.0  0.46067  0.72471  0.49060  1.0000
  H   H486      1.0  0.23962  0.55385  0.39440  1.0000
  H   H487      1.0  0.24438  0.62353  0.02229  1.0000
  C   C420      1.0  0.32154  0.70226  0.52763  1.0000
  H   H488      1.0  0.38499  0.49718  0.50978  1.0000
  H   H489      1.0  0.40622  0.51793  0.44196  1.0000
  H   H490      1.0  0.36890  0.71847  0.01391  1.0000
  C   C421      1.0  0.26421  0.59409  0.43080  1.0000
  H   H491      1.0  0.25420  0.61897  0.52982  1.0000
  H   H492      1.0  0.25731  0.62064  0.96680  1.0000
  H   H493      1.0  0.24457  0.59177  0.96547  1.0000
  H   H494      1.0  0.27793  0.63459  0.49709  1.0000
  H   H495      1.0  0.40034  0.67176  0.30928  1.0000
  H   H496      1.0  0.24189  0.71535  0.29699  1.0000
  H   H497      1.0  0.46230  0.63581  0.01313  1.0000
  C   C422      1.0  0.23459  0.58284  0.45084  1.0000
  C   C423      1.0  0.44663  0.49666  0.99354  1.0000
  H   H498      1.0  0.35778  0.69785  0.99051  1.0000
  N   N24       1.0  0.42164  0.69683  0.31988  1.0000
  C   C424      1.0  0.43859  0.70391  0.33952  1.0000
  C   C425      1.0  0.41077  0.70451  0.33662  1.0000
  C   C426      1.0  0.41288  0.67773  0.32470  1.0000
  H   H499      1.0  0.23628  0.50326  0.17816  1.0000
  H   H500      1.0  0.44716  0.69780  0.33098  1.0000
  H   H501      1.0  0.29011  0.71704  0.44908  1.0000
  C   C427      1.0  0.37824  0.49774  0.48477  1.0000
  H   H502      1.0  0.39749  0.69921  0.32421  1.0000
  H   H503      1.0  0.37196  0.51604  0.53613  1.0000
  S   S127      1.0  0.24615  0.49162  0.06852  1.0000
  H   H504      1.0  0.43756  0.56302  0.65510  1.0000
  H   H505      1.0  0.39359  0.69948  0.96339  1.0000
  H   H506      1.0  0.28650  0.51580  0.47800  1.0000
  H   H507      1.0  0.27682  0.70900  0.50912  1.0000
  C   C428      1.0  0.42373  0.67109  0.59000  1.0000
  C   C429      1.0  0.23442  0.72349  0.21080  1.0000
  H   H508      1.0  0.27996  0.60691  0.85101  1.0000
  C   C430      1.0  0.39882  0.65960  0.54940  1.0000
  H   H509      1.0  0.43749  0.67613  0.59613  1.0000
  N   N25       1.0  0.37823  0.51509  0.48126  1.0000
  H   H510      1.0  0.43311  0.71026  0.18065  1.0000
  C   C431      1.0  0.43108  0.55521  0.48739  1.0000
  H   H511      1.0  0.29339  0.62272  0.82103  1.0000
  H   H512      1.0  0.44586  0.71815  0.33576  1.0000
  C   C432      1.0  0.42183  0.51223  0.65655  1.0000
  C   C433      1.0  0.41696  0.66497  0.55525  1.0000
  C   C434      1.0  0.42449  0.70057  0.28168  1.0000
  H   H513      1.0  0.25352  0.67499  0.94165  1.0000
  C   C435      1.0  0.45017  0.50954  0.96751  1.0000
  Fe  Fe62      1.0  0.24367  0.70602  0.42437  1.0000
  C   C436      1.0  0.27411  0.51276  0.49171  1.0000
  C   C437      1.0  0.27967  0.61426  0.82720  1.0000
  C   C438      1.0  0.29691  0.57628  0.79391  1.0000
  C   C439      1.0  0.41717  0.71031  0.26281  1.0000
  H   H514      1.0  0.43118  0.69057  0.51044  1.0000
  N   N26       1.0  0.34127  0.51411  0.96749  1.0000
  H   H515      1.0  0.37412  0.72382  0.91429  1.0000
  H   H516      1.0  0.44807  0.69145  0.54061  1.0000
  H   H517      1.0  0.41925  0.55379  0.70802  1.0000
  H   H518      1.0  0.43225  0.56020  0.76727  1.0000
  C   C440      1.0  0.43046  0.70733  0.20843  1.0000
  C   C441      1.0  0.39522  0.66588  0.61073  1.0000
  N   N27       1.0  0.27047  0.60273  0.79639  1.0000
  C   C442      1.0  0.26701  0.61362  0.76972  1.0000
  C   C443      1.0  0.28100  0.59400  0.78278  1.0000
  C   C444      1.0  0.30179  0.57759  0.75863  1.0000
  H   H519      1.0  0.23912  0.56450  0.08240  1.0000
  H   H520      1.0  0.36517  0.52891  0.50685  1.0000
  H   H521      1.0  0.25056  0.63468  0.47547  1.0000
  C   C445      1.0  0.43772  0.69768  0.22605  1.0000
  C   C446      1.0  0.28597  0.59483  0.74681  1.0000
  C   C447      1.0  0.29628  0.58678  0.73514  1.0000
  H   H522      1.0  0.28269  0.60216  0.72726  1.0000
  H   H523      1.0  0.30135  0.56927  0.81230  1.0000
  H   H524      1.0  0.25961  0.62051  0.78098  1.0000
  S   S128      1.0  0.45866  0.70189  0.09986  1.0000
  H   H525      1.0  0.42859  0.65631  0.47257  1.0000
  N   N28       1.0  0.42874  0.66553  0.52637  1.0000
  H   H526      1.0  0.40944  0.50325  0.64271  1.0000
  N   N29       1.0  0.46790  0.57833  0.78603  1.0000
  H   H527      1.0  0.33005  0.49144  0.99989  1.0000
  H   H528      1.0  0.25922  0.60568  0.74654  1.0000
  H   H529      1.0  0.43298  0.64418  0.54727  1.0000
  H   H530      1.0  0.39166  0.70806  0.92152  1.0000
  S   S129      1.0  0.23714  0.71415  0.47647  1.0000
  H   H531      1.0  0.44866  0.65687  0.51528  1.0000
  C   C448      1.0  0.43486  0.69436  0.26212  1.0000
  H   H532      1.0  0.25459  0.62320  0.06409  1.0000
  H   H533      1.0  0.25428  0.59809  0.52280  1.0000
  C   C449      1.0  0.27648  0.48836  0.54780  1.0000
  Fe  Fe63      1.0  0.23730  0.71086  0.03209  1.0000
  H   H534      1.0  0.41189  0.66287  0.48094  1.0000
  S   S130      1.0  0.25334  0.73366  0.06858  1.0000
  C   C450      1.0  0.29457  0.50866  0.97367  1.0000
  C   C451      1.0  0.25352  0.58940  0.80809  1.0000
  H   H535      1.0  0.24504  0.59545  0.81769  1.0000
  C   C452      1.0  0.41940  0.65631  0.49323  1.0000
  H   H536      1.0  0.37020  0.52854  0.44234  1.0000
  C   C453      1.0  0.44048  0.65757  0.53747  1.0000
  C   C454      1.0  0.46129  0.53345  0.66026  1.0000
  H   H537      1.0  0.45007  0.66538  0.55854  1.0000
  H   H538      1.0  0.41041  0.64252  0.49822  1.0000
  H   H539      1.0  0.27763  0.60356  0.43024  1.0000
  C   C455      1.0  0.33736  0.70975  0.51063  1.0000
  H   H540      1.0  0.25510  0.58173  0.83042  1.0000
  C   C456      1.0  0.36923  0.72086  0.94164  1.0000
  H   H541      1.0  0.39278  0.54505  0.52647  1.0000
  H   H542      1.0  0.37724  0.70229  0.01403  1.0000
  N   N30       1.0  0.43462  0.50472  0.65754  1.0000
  H   H543      1.0  0.37446  0.65630  0.57165  1.0000
  C   C457      1.0  0.34223  0.50359  0.99768  1.0000
  H   H544      1.0  0.44449  0.56491  0.48973  1.0000
  C   C458      1.0  0.32625  0.51836  0.97201  1.0000
  C   C459      1.0  0.23720  0.72042  0.27518  1.0000
  H   H545      1.0  0.41841  0.67616  0.64362  1.0000
  H   H546      1.0  0.45864  0.49059  0.04030  1.0000
  H   H547      1.0  0.46244  0.57835  0.84173  1.0000
  C   C460      1.0  0.45553  0.57425  0.81552  1.0000
  C   C461      1.0  0.30936  0.70915  0.52373  1.0000
  S   S131      1.0  0.46479  0.54863  0.87819  1.0000
  C   C462      1.0  0.24362  0.58668  0.99176  1.0000
  C   C463      1.0  0.46576  0.52475  0.96825  1.0000
  H   H548      1.0  0.37289  0.69100  0.94027  1.0000
  H   H549      1.0  0.29734  0.70253  0.53747  1.0000
  H   H550      1.0  0.32455  0.51002  0.58105  1.0000
  H   H551      1.0  0.43687  0.70171  0.36848  1.0000
  C   C464      1.0  0.44096  0.56449  0.74536  1.0000
  C   C465      1.0  0.38486  0.70316  0.94673  1.0000
  S   S132      1.0  0.22757  0.49592  0.99379  1.0000
  C   C466      1.0  0.43327  0.56064  0.71130  1.0000
  Fe  Fe64      1.0  0.23205  0.72153  0.10837  1.0000
  C   C467      1.0  0.31104  0.50408  0.57215  1.0000
  H   H552      1.0  0.27459  0.61354  0.96726  1.0000
  H   H553      1.0  0.35347  0.50584  0.50695  1.0000
  C   C468      1.0  0.26022  0.51285  0.54674  1.0000
  S   S133      1.0  0.39031  0.50707  0.94187  1.0000
  H   H554      1.0  0.24478  0.51340  0.24077  1.0000
  C   C469      1.0  0.39750  0.73171  0.97414  1.0000
  H   H555      1.0  0.25045  0.49934  0.54022  1.0000
  H   H556      1.0  0.44702  0.58111  0.81290  1.0000
  N   N31       1.0  0.38085  0.71641  0.96520  1.0000
  H   H557      1.0  0.26173  0.51444  0.57610  1.0000
  C   C470      1.0  0.24764  0.62260  0.45933  1.0000
  C   C471      1.0  0.41869  0.55635  0.50952  1.0000
  H   H558      1.0  0.26951  0.57738  0.39421  1.0000
  C   C472      1.0  0.45930  0.57372  0.75042  1.0000
  H   H559      1.0  0.25417  0.52138  0.53713  1.0000
  C   C473      1.0  0.42633  0.54133  0.46316  1.0000
  H   H560      1.0  0.43610  0.54034  0.44640  1.0000
  C   C474      1.0  0.24052  0.71721  0.23980  1.0000
  H   H561      1.0  0.31998  0.49350  0.48144  1.0000
  H   H562      1.0  0.42151  0.48881  0.70168  1.0000
  H   H563      1.0  0.24647  0.58004  0.78602  1.0000
  C   C475      1.0  0.37084  0.70856  0.99733  1.0000
  H   H564      1.0  0.47205  0.60515  0.78366  1.0000
  H   H565      1.0  0.34075  0.54626  0.98567  1.0000
  H   H566      1.0  0.38689  0.66645  0.63167  1.0000
  C   C476      1.0  0.23249  0.56902  0.99512  1.0000
  H   H567      1.0  0.31867  0.69099  0.54396  1.0000
  H   H568      1.0  0.37753  0.51333  0.42404  1.0000
  C   C477      1.0  0.22891  0.48863  0.26355  1.0000
  C   C478      1.0  0.22768  0.73002  0.28225  1.0000
  Fe  Fe65      1.0  0.47029  0.72957  0.12172  1.0000
  H   H569      1.0  0.35816  0.53845  0.94442  1.0000
  Fe  Fe66      1.0  0.23003  0.48984  0.36718  1.0000
  C   C479      1.0  0.46936  0.57831  0.71936  1.0000
  H   H570      1.0  0.42265  0.56698  0.52898  1.0000
  H   H571      1.0  0.36916  0.52614  0.96107  1.0000
  H   H572      1.0  0.47643  0.50498  0.51791  1.0000
  H   H573      1.0  0.34676  0.70437  0.51394  1.0000
  H   H574      1.0  0.25226  0.62668  0.43207  1.0000
  H   H575      1.0  0.40896  0.70153  0.36534  1.0000
  N   N32       1.0  0.30029  0.73167  0.49774  1.0000
  C   C480      1.0  0.37032  0.51565  0.44628  1.0000
  C   C481      1.0  0.25970  0.57903  0.40973  1.0000
  H   H576      1.0  0.41473  0.72125  0.21281  1.0000
  H   H577      1.0  0.45751  0.53724  0.63545  1.0000
  C   C482      1.0  0.47453  0.64705  0.00948  1.0000
  H   H578      1.0  0.27937  0.62396  0.76010  1.0000
  C   C483      1.0  0.23032  0.56770  0.43016  1.0000
  S   S134      1.0  0.41379  0.48929  0.51854  1.0000
  H   H579      1.0  0.36481  0.48705  0.48502  1.0000
  S   S135      1.0  0.25536  0.73317  0.40335  1.0000
  C   C484      1.0  0.28412  0.72284  0.51794  1.0000
  C   C485      1.0  0.23089  0.56110  0.02771  1.0000
  C   C486      1.0  0.47552  0.51498  0.02015  1.0000
  C   C487      1.0  0.29517  0.73067  0.45969  1.0000
  H   H580      1.0  0.47652  0.52327  0.75087  1.0000
  H   H581      1.0  0.36736  0.73212  0.95276  1.0000
  C   C488      1.0  0.47222  0.52602  0.72546  1.0000
  C   C489      1.0  0.47486  0.73357  0.22354  1.0000
  H   H582      1.0  0.23325  0.61523  0.45754  1.0000
  C   C490      1.0  0.40715  0.73264  0.00593  1.0000
  H   H583      1.0  0.29137  0.49056  0.45787  1.0000
  C   C491      1.0  0.30154  0.48610  0.57394  1.0000
  H   H584      1.0  0.41420  0.49211  0.96700  1.0000
  C   C492      1.0  0.47630  0.66376  0.02053  1.0000
  H   H585      1.0  0.35339  0.72987  0.47617  1.0000
  C   C493      1.0  0.32899  0.73112  0.48529  1.0000
  C   C494      1.0  0.41510  0.48569  0.99188  1.0000
  H   H586      1.0  0.27066  0.48485  0.13901  1.0000
  Fe  Fe67      1.0  0.36787  0.90331  0.56487  1.0000
  S   S136      1.0  0.37807  0.90272  0.61987  1.0000
  S   S137      1.0  0.37943  0.92709  0.52805  1.0000
  Fe  Fe68      1.0  0.34102  0.86359  0.56621  1.0000
  S   S138      1.0  0.34956  0.86081  0.62205  1.0000
  S   S139      1.0  0.31941  0.84307  0.52902  1.0000
  Fe  Fe69      1.0  0.35031  0.88706  0.63500  1.0000
  S   S140      1.0  0.34067  0.89480  0.68591  1.0000
  Fe  Fe70      1.0  0.37682  0.87670  0.60377  1.0000
  S   S141      1.0  0.39926  0.87194  0.62533  1.0000
  S   S142      1.0  0.33976  0.88910  0.58043  1.0000
  S   S143      1.0  0.36865  0.87807  0.54734  1.0000
  Fe  Fe71      1.0  0.37902  0.88808  0.97152  1.0000
  S   S144      1.0  0.35834  0.88961  0.00540  1.0000
  S   S145      1.0  0.40333  0.88972  0.99988  1.0000
  Fe  Fe72      1.0  0.36049  0.88974  0.90233  1.0000
  S   S146      1.0  0.33865  0.89200  0.93245  1.0000
  S   S147      1.0  0.36649  0.88746  0.84345  1.0000
  Fe  Fe73      1.0  0.36013  0.91131  0.96945  1.0000
  S   S148      1.0  0.36277  0.93680  0.99841  1.0000
  Fe  Fe74      1.0  0.33884  0.87016  0.96669  1.0000
  S   S149      1.0  0.31538  0.84487  0.98518  1.0000
  S   S150      1.0  0.38152  0.91021  0.93705  1.0000
  S   S151      1.0  0.35987  0.86741  0.93512  1.0000
  H   H587      1.0  0.26518  0.75376  0.18079  1.0000
  S   S152      1.0  0.24877  0.77580  0.03536  1.0000
  C   C495      1.0  0.36472  0.98445  0.55561  1.0000
  H   H588      1.0  0.41331  0.91084  0.07241  1.0000
  H   H589      1.0  0.40717  0.91308  0.53680  1.0000
  S   S153      1.0  0.26801  0.76189  0.49370  1.0000
  S   S154      1.0  0.45649  0.87570  0.90439  1.0000
  H   H590      1.0  0.35445  0.95038  0.67142  1.0000
  H   H591      1.0  0.35592  0.97358  0.64104  1.0000
  S   S155      1.0  0.46290  0.88872  0.52543  1.0000
  H   H592      1.0  0.44295  0.77085  0.99536  1.0000
  C   C496      1.0  0.41813  0.88586  0.97339  1.0000
  C   C497      1.0  0.41242  0.87545  0.94260  1.0000
  C   C498      1.0  0.42433  0.87211  0.92226  1.0000
  C   C499      1.0  0.44207  0.87969  0.93177  1.0000
  C   C500      1.0  0.44783  0.89013  0.96257  1.0000
  C   C501      1.0  0.43580  0.89301  0.98362  1.0000
  H   H593      1.0  0.39878  0.86970  0.93486  1.0000
  H   H594      1.0  0.41979  0.86372  0.89887  1.0000
  H   H595      1.0  0.46151  0.89607  0.97003  1.0000
  H   H596      1.0  0.44025  0.90108  0.00747  1.0000
  C   C502      1.0  0.29728  0.82529  0.99946  1.0000
  C   C503      1.0  0.28166  0.82583  0.00901  1.0000
  C   C504      1.0  0.26725  0.81066  0.01968  1.0000
  C   C505      1.0  0.26791  0.79442  0.02125  1.0000
  C   C506      1.0  0.28359  0.79378  0.01217  1.0000
  C   C507      1.0  0.29810  0.80907  0.00129  1.0000
  H   H597      1.0  0.28063  0.83805  0.00781  1.0000
  H   H598      1.0  0.25536  0.81156  0.02644  1.0000
  H   H599      1.0  0.28452  0.78151  0.01309  1.0000
  H   H600      1.0  0.30996  0.80827  0.99393  1.0000
  C   C508      1.0  0.37949  0.95832  0.00885  1.0000
  H   H601      1.0  0.37304  0.91605  0.06383  1.0000
  C   C509      1.0  0.39469  0.96620  0.98938  1.0000
  H   H602      1.0  0.36561  0.96216  0.05289  1.0000
  H   H603      1.0  0.39663  0.95924  0.96692  1.0000
  C   C510      1.0  0.28308  0.78447  0.50168  1.0000
  C   C511      1.0  0.29342  0.78925  0.53322  1.0000
  C   C512      1.0  0.30470  0.80691  0.54183  1.0000
  C   C513      1.0  0.30586  0.82027  0.51914  1.0000
  C   C514      1.0  0.29559  0.81545  0.48754  1.0000
  C   C515      1.0  0.28443  0.79779  0.47875  1.0000
  H   H604      1.0  0.29262  0.77924  0.55140  1.0000
  H   H605      1.0  0.31243  0.81021  0.56621  1.0000
  H   H606      1.0  0.29631  0.82552  0.46956  1.0000
  H   H607      1.0  0.27671  0.79455  0.45438  1.0000
  C   C516      1.0  0.34756  0.89233  0.72973  1.0000
  C   C517      1.0  0.35923  0.88498  0.73571  1.0000
  C   C518      1.0  0.36447  0.88332  0.77063  1.0000
  C   C519      1.0  0.35833  0.88907  0.80024  1.0000
  C   C520      1.0  0.34659  0.89635  0.79432  1.0000
  C   C521      1.0  0.34125  0.89794  0.75931  1.0000
  H   H608      1.0  0.36409  0.88041  0.71341  1.0000
  H   H609      1.0  0.37315  0.87725  0.77470  1.0000
  H   H610      1.0  0.34168  0.90082  0.81667  1.0000
  H   H611      1.0  0.33213  0.90354  0.75516  1.0000
  C   C522      1.0  0.41661  0.87575  0.59714  1.0000
  C   C523      1.0  0.41466  0.87669  0.56049  1.0000
  C   C524      1.0  0.42892  0.88036  0.53864  1.0000
  C   C525      1.0  0.44520  0.88336  0.55340  1.0000
  C   C526      1.0  0.44714  0.88231  0.59003  1.0000
  C   C527      1.0  0.43280  0.87835  0.61182  1.0000
  H   H612      1.0  0.40215  0.87445  0.54896  1.0000
  H   H613      1.0  0.42736  0.88096  0.51024  1.0000
  H   H614      1.0  0.45966  0.88456  0.60156  1.0000
  H   H615      1.0  0.43433  0.87757  0.64017  1.0000
  C   C528      1.0  0.39453  0.95859  0.49369  1.0000
  C   C529      1.0  0.39014  0.95049  0.52674  1.0000
  C   C530      1.0  0.39445  0.96120  0.55736  1.0000
  H   H616      1.0  0.39140  0.95057  0.46971  1.0000
  H   H617      1.0  0.39146  0.95538  0.58305  1.0000
  Fe  Fe75      1.0  0.23676  0.74613  0.04678  1.0000
  C   C531      1.0  0.46107  0.85964  0.02784  1.0000
  H   H618      1.0  0.38170  0.92719  0.10567  1.0000
  H   H619      1.0  0.42542  0.91058  0.52013  1.0000
  S   S156      1.0  0.47136  0.73924  0.17963  1.0000
  C   C532      1.0  0.47286  0.73736  0.28785  1.0000
  C   C533      1.0  0.24711  0.79229  0.52379  1.0000
  C   C534      1.0  0.46392  0.83487  0.56785  1.0000
  C   C535      1.0  0.35954  0.96800  0.53993  1.0000
  H   H620      1.0  0.42660  0.84066  0.01718  1.0000
  H   H621      1.0  0.38216  0.93906  0.06663  1.0000
  H   H622      1.0  0.27513  0.76172  0.12574  1.0000
  C   C536      1.0  0.27697  0.77999  0.25397  1.0000
  H   H623      1.0  0.42750  0.76949  0.93854  1.0000
  Fe  Fe76      1.0  0.24754  0.74133  0.45474  1.0000
  H   H624      1.0  0.24388  0.76964  0.10762  1.0000
  H   H625      1.0  0.31970  0.75835  0.49333  1.0000
  C   C537      1.0  0.30850  0.75024  0.50966  1.0000
  H   H626      1.0  0.39969  0.74512  0.92400  1.0000
  H   H627      1.0  0.45700  0.83246  0.95771  1.0000
  H   H628      1.0  0.41030  0.93613  0.57735  1.0000
  H   H629      1.0  0.43704  0.91199  0.58237  1.0000
  H   H630      1.0  0.45991  0.84710  0.52103  1.0000
  C   C538      1.0  0.43538  0.79853  0.04888  1.0000
  C   C539      1.0  0.45006  0.94173  0.54535  1.0000
  C   C540      1.0  0.44216  0.82848  0.61269  1.0000
  H   H631      1.0  0.36136  0.96681  0.51179  1.0000
  H   H632      1.0  0.46644  0.80715  0.67203  1.0000
  C   C541      1.0  0.45068  0.89349  0.76142  1.0000
  H   H633      1.0  0.44869  0.95668  0.14800  1.0000
  H   H634      1.0  0.47588  0.80862  0.46252  1.0000
  H   H635      1.0  0.29918  0.75625  0.50776  1.0000
  H   H636      1.0  0.42678  0.93050  0.11940  1.0000
  C   C542      1.0  0.46272  0.84465  0.97426  1.0000
  C   C543      1.0  0.45478  0.84150  0.54633  1.0000
  C   C544      1.0  0.46999  0.74100  0.25254  1.0000
  H   H637      1.0  0.41837  0.91387  0.59799  1.0000
  H   H638      1.0  0.33241  0.74222  0.46844  1.0000
  Fe  Fe77      1.0  0.47201  0.74552  0.04672  1.0000
  H   H639      1.0  0.45461  0.85859  0.05365  1.0000
  H   H640      1.0  0.46344  0.85553  0.95732  1.0000
  N   N33       1.0  0.43200  0.93220  0.55753  1.0000
  H   H641      1.0  0.39997  0.90424  0.80430  1.0000
  H   H642      1.0  0.27889  0.77931  0.28230  1.0000
  N   N34       1.0  0.41845  0.89602  0.82839  1.0000
  C   C545      1.0  0.40429  0.87904  0.83780  1.0000
  C   C546      1.0  0.43102  0.90228  0.85896  1.0000
  H   H643      1.0  0.40796  0.96266  0.06003  1.0000
  C   C547      1.0  0.42633  0.89388  0.79499  1.0000
  C   C548      1.0  0.41630  0.88910  0.76283  1.0000
  C   C549      1.0  0.44380  0.89591  0.79336  1.0000
  C   C550      1.0  0.42331  0.88673  0.73103  1.0000
  H   H644      1.0  0.40552  0.91108  0.84901  1.0000
  Fe  Fe78      1.0  0.47563  0.74797  0.45700  1.0000
  H   H645      1.0  0.40919  0.86890  0.84053  1.0000
  C   C551      1.0  0.45867  0.96023  0.54388  1.0000
  H   H646      1.0  0.43041  0.74705  0.03771  1.0000
  H   H647      1.0  0.44187  0.91521  0.85399  1.0000
  H   H648      1.0  0.43663  0.89295  0.86500  1.0000
  H   H649      1.0  0.42472  0.90369  0.88371  1.0000
  H   H650      1.0  0.41532  0.88300  0.70680  1.0000
  C   C552      1.0  0.45884  0.81269  0.65650  1.0000
  H   H651      1.0  0.45242  0.89919  0.81641  1.0000
  C   C553      1.0  0.43311  0.83515  0.59090  1.0000
  C   C554      1.0  0.46609  0.81410  0.06200  1.0000
  C   C555      1.0  0.41102  0.90880  0.82387  1.0000
  N   N35       1.0  0.40110  0.92838  0.06863  1.0000
  C   C556      1.0  0.40349  0.92964  0.02977  1.0000
  C   C557      1.0  0.40099  0.91159  0.07937  1.0000
  C   C558      1.0  0.38381  0.92765  0.07663  1.0000
  C   C559      1.0  0.41489  0.94387  0.08670  1.0000
  C   C560      1.0  0.42385  0.94377  0.56843  1.0000
  C   C561      1.0  0.42090  0.92046  0.52859  1.0000
  H   H652      1.0  0.45910  0.79742  0.59224  1.0000
  H   H653      1.0  0.25011  0.78450  0.50328  1.0000
  C   C562      1.0  0.45782  0.82795  0.60155  1.0000
  H   H654      1.0  0.41646  0.93050  0.02264  1.0000
  H   H655      1.0  0.39353  0.91809  0.01529  1.0000
  H   H656      1.0  0.40224  0.94105  0.01875  1.0000
  H   H657      1.0  0.39042  0.90029  0.06516  1.0000
  H   H658      1.0  0.39875  0.90944  0.10819  1.0000
  C   C563      1.0  0.37729  0.96793  0.03764  1.0000
  C   C564      1.0  0.26935  0.79877  0.12877  1.0000
  H   H659      1.0  0.33727  0.92911  0.67211  1.0000
  C   C565      1.0  0.34224  0.94148  0.65709  1.0000
  H   H660      1.0  0.33242  0.94681  0.65919  1.0000
  H   H661      1.0  0.26086  0.80376  0.14237  1.0000
  H   H662      1.0  0.28317  0.80846  0.13203  1.0000
  H   H663      1.0  0.36251  0.97704  0.97410  1.0000
  N   N36       1.0  0.34535  0.93850  0.61945  1.0000
  H   H664      1.0  0.24540  0.75559  0.14082  1.0000
  H   H665      1.0  0.39823  0.87998  0.86325  1.0000
  H   H666      1.0  0.27823  0.80903  0.19276  1.0000
  H   H667      1.0  0.27469  0.77557  0.09120  1.0000
  H   H668      1.0  0.33045  0.91991  0.57776  1.0000
  H   H669      1.0  0.26603  0.79820  0.09987  1.0000
  H   H670      1.0  0.44587  0.88704  0.70569  1.0000
  H   H671      1.0  0.40286  0.88698  0.76205  1.0000
  C   C566      1.0  0.42321  0.74674  0.01350  1.0000
  C   C567      1.0  0.35886  0.93193  0.61923  1.0000
  H   H672      1.0  0.42288  0.95165  0.54589  1.0000
  H   H673      1.0  0.32375  0.91297  0.62122  1.0000
  C   C568      1.0  0.35125  0.95433  0.59784  1.0000
  H   H674      1.0  0.46910  0.74332  0.30953  1.0000
  H   H675      1.0  0.31865  0.92955  0.60190  1.0000
  C   C569      1.0  0.32886  0.92472  0.60437  1.0000
  H   H676      1.0  0.43235  0.84676  0.54101  1.0000
  C   C570      1.0  0.26925  0.76577  0.19612  1.0000
  N   N37       1.0  0.26669  0.78140  0.14184  1.0000
  H   H677      1.0  0.29160  0.78377  0.12499  1.0000
  C   C571      1.0  0.35304  0.95316  0.56064  1.0000
  H   H678      1.0  0.37143  0.94177  0.63070  1.0000
  H   H679      1.0  0.23960  0.77286  0.15285  1.0000
  C   C572      1.0  0.43932  0.84148  0.55769  1.0000
  C   C573      1.0  0.27750  0.77534  0.12016  1.0000
  H   H680      1.0  0.35022  0.94083  0.54736  1.0000
  H   H681      1.0  0.26345  0.79049  0.58350  1.0000
  C   C574      1.0  0.27110  0.78144  0.17999  1.0000
  C   C575      1.0  0.27927  0.79569  0.23897  1.0000
  H   H682      1.0  0.36132  0.92853  0.59199  1.0000
  C   C576      1.0  0.27640  0.79651  0.20253  1.0000
  H   H683      1.0  0.42843  0.83083  0.97523  1.0000
  H   H684      1.0  0.42101  0.92154  0.81507  1.0000
  H   H685      1.0  0.43116  0.95267  0.59091  1.0000
  C   C577      1.0  0.27205  0.76509  0.23254  1.0000
  H   H686      1.0  0.39350  0.87419  0.81761  1.0000
  C   C578      1.0  0.43035  0.76011  0.98954  1.0000
  C   C579      1.0  0.42691  0.94277  0.11206  1.0000
  H   H687      1.0  0.25955  0.80370  0.53142  1.0000
  H   H688      1.0  0.42131  0.83569  0.59993  1.0000
  H   H689      1.0  0.24695  0.77020  0.59808  1.0000
  C   C580      1.0  0.46660  0.82832  0.04313  1.0000
  C   C581      1.0  0.35651  0.97132  0.61299  1.0000
  C   C582      1.0  0.43568  0.81278  0.03028  1.0000
  N   N38       1.0  0.46788  0.82112  0.62386  1.0000
  H   H690      1.0  0.35501  0.92001  0.63512  1.0000
  H   H691      1.0  0.42059  0.92794  0.50481  1.0000
  C   C583      1.0  0.45139  0.82819  0.02687  1.0000
  H   H692      1.0  0.43631  0.85371  0.97999  1.0000
  C   C584      1.0  0.43181  0.92159  0.58853  1.0000
  C   C585      1.0  0.41655  0.96081  0.07909  1.0000
  H   H693      1.0  0.45241  0.96846  0.55098  1.0000
  H   H694      1.0  0.46399  0.89499  0.76083  1.0000
  H   H695      1.0  0.23862  0.79749  0.51064  1.0000
  C   C586      1.0  0.25232  0.77815  0.57429  1.0000
  C   C587      1.0  0.44082  0.97419  0.12063  1.0000
  C   C588      1.0  0.44048  0.88896  0.73033  1.0000
  H   H696      1.0  0.25806  0.77132  0.55728  1.0000
  H   H697      1.0  0.31325  0.75163  0.53773  1.0000
  H   H698      1.0  0.28309  0.80725  0.25583  1.0000
  H   H699      1.0  0.42332  0.78685  0.05098  1.0000
  H   H700      1.0  0.47611  0.83569  0.55828  1.0000
  C   C589      1.0  0.24811  0.76934  0.13555  1.0000
  H   H701      1.0  0.42346  0.81136  0.01866  1.0000
  C   C590      1.0  0.40263  0.97699  0.49112  1.0000
  C   C591      1.0  0.45967  0.93243  0.53469  1.0000
  C   C592      1.0  0.42931  0.97570  0.09578  1.0000
  S   S157      1.0  0.45218  0.73709  0.08928  1.0000
  H   H702      1.0  0.45037  0.78805  0.07867  1.0000
  N   N39       1.0  0.45240  0.84327  0.00624  1.0000
  H   H703      1.0  0.46083  0.87102  0.01393  1.0000
  H   H704      1.0  0.45398  0.91837  0.53460  1.0000
  C   C593      1.0  0.45056  0.79918  0.06462  1.0000
  C   C594      1.0  0.43513  0.84193  0.99433  1.0000
  H   H705      1.0  0.43983  0.92991  0.61108  1.0000
  H   H706      1.0  0.43666  0.82397  0.63817  1.0000
  C   C595      1.0  0.40549  0.74530  0.94973  1.0000
  H   H707      1.0  0.46392  0.74964  0.24754  1.0000
  H   H708      1.0  0.27009  0.75282  0.24431  1.0000
  C   C596      1.0  0.47137  0.80795  0.60337  1.0000
  H   H709      1.0  0.44591  0.80177  0.64996  1.0000
  H   H710      1.0  0.47635  0.84714  0.98111  1.0000
  C   C597      1.0  0.40737  0.98322  0.99869  1.0000
  C   C598      1.0  0.40229  0.97957  0.55478  1.0000
  C   C599      1.0  0.43964  0.95777  0.12873  1.0000
  H   H711      1.0  0.37276  0.97852  0.91308  1.0000
  H   H712      1.0  0.45706  0.82221  0.67469  1.0000
  N   N40       1.0  0.23881  0.78144  0.55457  1.0000
  H   H713      1.0  0.24392  0.80334  0.59011  1.0000
  C   C600      1.0  0.42158  0.75933  0.95761  1.0000
  H   H714      1.0  0.47176  0.79115  0.95780  1.0000
  H   H715      1.0  0.23381  0.74632  0.55703  1.0000
  C   C601      1.0  0.23281  0.79150  0.57889  1.0000
  S   S158      1.0  0.45824  0.73563  0.40855  1.0000
  H   H716      1.0  0.40552  0.98287  0.46539  1.0000
  C   C602      1.0  0.47592  0.96871  0.53309  1.0000
  H   H717      1.0  0.30616  0.73884  0.44298  1.0000
  S   S159      1.0  0.47564  0.76873  0.01051  1.0000
  H   H718      1.0  0.47506  0.86317  0.03346  1.0000
  H   H719      1.0  0.45674  0.97903  0.44978  1.0000
  H   H720      1.0  0.28477  0.73514  0.45532  1.0000
  S   S160      1.0  0.49457  0.06513  0.50568  1.0000
  S   S161      1.0  0.49588  0.07253  0.12677  1.0000
  S   S162      1.0  0.50460  0.21956  0.94622  1.0000
  C   C603      1.0  0.47753  0.01628  0.49879  1.0000
  C   C604      1.0  0.68202  0.16266  0.85180  1.0000
  H   H721      1.0  0.49053  0.09479  0.07607  1.0000
  C   C605      1.0  0.56779  0.98569  0.61129  1.0000
  C   C606      1.0  0.71067  0.20558  0.73764  1.0000
  Fe  Fe79      1.0  0.59373  0.04281  0.04485  1.0000
  S   S163      1.0  0.57490  0.04600  0.08220  1.0000
  S   S164      1.0  0.59126  0.01517  0.02967  1.0000
  Fe  Fe80      1.0  0.61409  0.08356  0.03418  1.0000
  S   S165      1.0  0.59567  0.08829  0.07041  1.0000
  S   S166      1.0  0.63254  0.10723  0.00087  1.0000
  Fe  Fe81      1.0  0.59809  0.06858  0.10714  1.0000
  S   S167      1.0  0.59950  0.07711  0.16601  1.0000
  Fe  Fe82      1.0  0.57417  0.06537  0.04323  1.0000
  S   S168      1.0  0.54875  0.06411  0.02118  1.0000
  S   S169      1.0  0.61758  0.06463  0.07216  1.0000
  S   S170      1.0  0.59196  0.06136  0.00464  1.0000
  Fe  Fe83      1.0  0.57403  0.06897  0.41059  1.0000
  S   S171      1.0  0.58373  0.06686  0.46518  1.0000
  S   S172      1.0  0.55245  0.07614  0.39385  1.0000
  Fe  Fe84      1.0  0.59735  0.05584  0.37384  1.0000
  S   S173      1.0  0.60880  0.05225  0.42627  1.0000
  S   S174      1.0  0.60480  0.04845  0.32009  1.0000
  Fe  Fe85      1.0  0.58128  0.04042  0.44628  1.0000
  S   S175      1.0  0.56521  0.01755  0.48287  1.0000
  Fe  Fe86      1.0  0.61054  0.07893  0.44172  1.0000
  S   S176      1.0  0.63529  0.09864  0.47232  1.0000
  S   S177      1.0  0.57000  0.04221  0.39286  1.0000
  S   S178      1.0  0.60070  0.08286  0.38817  1.0000
  S   S179      1.0  0.69929  0.20611  0.90385  1.0000
  S   S180      1.0  0.70436  0.17621  0.97786  1.0000
  S   S181      1.0  0.70196  0.21425  0.57691  1.0000
  S   S182      1.0  0.68624  0.18086  0.49451  1.0000
  H   H722      1.0  0.50713  0.01648  0.39387  1.0000
  C   C607      1.0  0.64895  0.12166  0.47845  1.0000
  C   C608      1.0  0.64719  0.13437  0.45761  1.0000
  C   C609      1.0  0.65868  0.15226  0.46289  1.0000
  C   C610      1.0  0.67205  0.15792  0.48930  1.0000
  C   C611      1.0  0.67372  0.14522  0.51025  1.0000
  C   C612      1.0  0.66238  0.12731  0.50469  1.0000
  H   H723      1.0  0.63701  0.13043  0.43735  1.0000
  H   H724      1.0  0.65715  0.16184  0.44643  1.0000
  H   H725      1.0  0.68385  0.14916  0.53065  1.0000
  H   H726      1.0  0.66400  0.11774  0.52103  1.0000
  H   H727      1.0  0.61444  0.18021  0.49389  1.0000
  C   C613      1.0  0.62505  0.22398  0.48810  1.0000
  C   C614      1.0  0.65240  0.12679  0.99601  1.0000
  C   C615      1.0  0.65384  0.13781  0.96736  1.0000
  C   C616      1.0  0.66933  0.15308  0.96177  1.0000
  C   C617      1.0  0.68391  0.15756  0.98447  1.0000
  C   C618      1.0  0.68243  0.14666  0.01329  1.0000
  C   C619      1.0  0.66685  0.13154  0.01918  1.0000
  H   H728      1.0  0.64286  0.13438  0.94912  1.0000
  H   H729      1.0  0.67004  0.16117  0.93951  1.0000
  H   H730      1.0  0.69350  0.14981  0.03117  1.0000
  H   H731      1.0  0.66614  0.12333  0.04132  1.0000
  C   C620      1.0  0.60010  0.06817  0.20830  1.0000
  C   C621      1.0  0.60392  0.05385  0.21252  1.0000
  C   C622      1.0  0.60512  0.04790  0.24683  1.0000
  C   C623      1.0  0.60233  0.05601  0.27736  1.0000
  C   C624      1.0  0.59814  0.07010  0.27307  1.0000
  C   C625      1.0  0.59708  0.07612  0.23881  1.0000
  H   H732      1.0  0.60632  0.04757  0.18944  1.0000
  H   H733      1.0  0.60835  0.03699  0.24973  1.0000
  H   H734      1.0  0.59598  0.07654  0.29615  1.0000
  H   H735      1.0  0.59417  0.08724  0.23605  1.0000
  C   C626      1.0  0.49557  0.09324  0.00589  1.0000
  H   H736      1.0  0.55429  0.00454  0.00823  1.0000
  C   C627      1.0  0.50700  0.10671  0.56625  1.0000
  H   H737      1.0  0.70719  0.17221  0.90172  1.0000
  H   H738      1.0  0.48930  0.15386  0.50031  1.0000
  H   H739      1.0  0.47668  0.13729  0.96168  1.0000
  H   H740      1.0  0.63210  0.12412  0.27826  1.0000
  H   H741      1.0  0.70776  0.23079  0.65412  1.0000
  C   C628      1.0  0.51017  0.06938  0.09761  1.0000
  C   C629      1.0  0.50432  0.06055  0.06505  1.0000
  C   C630      1.0  0.51626  0.05898  0.04170  1.0000
  C   C631      1.0  0.53401  0.06586  0.05119  1.0000
  C   C632      1.0  0.53982  0.07458  0.08385  1.0000
  C   C633      1.0  0.52793  0.07645  0.10691  1.0000
  H   H742      1.0  0.49061  0.05494  0.05786  1.0000
  H   H743      1.0  0.51175  0.05221  0.01638  1.0000
  H   H744      1.0  0.55356  0.08026  0.09075  1.0000
  H   H745      1.0  0.53252  0.08357  0.13180  1.0000
  H   H746      1.0  0.64686  0.10068  0.88002  1.0000
  C   C634      1.0  0.48774  0.21851  0.74153  1.0000
  C   C635      1.0  0.51096  0.06948  0.47468  1.0000
  C   C636      1.0  0.52789  0.07301  0.48637  1.0000
  C   C637      1.0  0.54087  0.07545  0.46173  1.0000
  C   C638      1.0  0.53696  0.07453  0.42540  1.0000
  C   C639      1.0  0.52022  0.07173  0.41381  1.0000
  C   C640      1.0  0.50718  0.06898  0.43838  1.0000
  H   H747      1.0  0.53089  0.07351  0.51446  1.0000
  H   H748      1.0  0.55385  0.07791  0.47081  1.0000
  H   H749      1.0  0.51718  0.07117  0.38570  1.0000
  H   H750      1.0  0.49414  0.06624  0.42912  1.0000
  H   H751      1.0  0.53149  0.06767  0.23933  1.0000
  C   C641      1.0  0.71618  0.20916  0.70226  1.0000
  C   C642      1.0  0.52763  0.21565  0.08174  1.0000
  C   C643      1.0  0.52058  0.00184  0.44083  1.0000
  N   N41       1.0  0.48869  0.10443  0.56496  1.0000
  H   H752      1.0  0.48035  0.07688  0.57291  1.0000
  H   H753      1.0  0.52935  0.11378  0.02167  1.0000
  H   H754      1.0  0.48459  0.09155  0.51377  1.0000
  C   C644      1.0  0.54878  0.05246  0.30412  1.0000
  H   H755      1.0  0.51401  0.20732  0.07543  1.0000
  S   S183      1.0  0.71728  0.22947  0.49841  1.0000
  C   C645      1.0  0.66862  0.12503  0.86841  1.0000
  H   H756      1.0  0.64646  0.07604  0.39734  1.0000
  C   C646      1.0  0.59814  0.22854  0.48365  1.0000
  H   H757      1.0  0.62940  0.07534  0.36788  1.0000
  H   H758      1.0  0.70567  0.16049  0.80777  1.0000
  H   H759      1.0  0.64206  0.08211  0.23771  1.0000
  C   C647      1.0  0.52652  0.04705  0.17712  1.0000
  H   H760      1.0  0.53968  0.99218  0.52651  1.0000
  H   H761      1.0  0.49049  0.11439  0.51255  1.0000
  H   H762      1.0  0.52541  0.04662  0.14758  1.0000
  H   H763      1.0  0.55059  0.04269  0.14156  1.0000
  H   H764      1.0  0.52971  0.03086  0.40229  1.0000
  N   N42       1.0  0.50265  0.10899  0.02961  1.0000
  C   C648      1.0  0.51991  0.11106  0.04338  1.0000
  C   C649      1.0  0.49093  0.21630  0.77768  1.0000
  H   H765      1.0  0.51297  0.99328  0.41828  1.0000
  C   C650      1.0  0.50332  0.12433  0.01044  1.0000
  C   C651      1.0  0.51836  0.14057  0.01083  1.0000
  H   H766      1.0  0.50890  0.16220  0.60800  1.0000
  H   H767      1.0  0.51395  0.13790  0.58583  1.0000
  H   H768      1.0  0.66495  0.22768  0.00725  1.0000
  C   C652      1.0  0.51655  0.02548  0.41395  1.0000
  C   C653      1.0  0.57359  0.99479  0.01537  1.0000
  H   H769      1.0  0.52989  0.02360  0.49838  1.0000
  C   C654      1.0  0.48638  0.11930  0.58091  1.0000
  H   H770      1.0  0.50414  0.03355  0.49793  1.0000
  H   H771      1.0  0.51239  0.10907  0.59390  1.0000
  H   H772      1.0  0.55023  0.05292  0.33277  1.0000
  H   H773      1.0  0.48125  0.08949  0.61241  1.0000
  C   C655      1.0  0.72248  0.21230  0.76670  1.0000
  Fe  Fe87      1.0  0.70956  0.23297  0.92822  1.0000
  C   C656      1.0  0.70991  0.16745  0.87596  1.0000
  C   C657      1.0  0.53568  0.21280  0.11187  1.0000
  H   H774      1.0  0.47912  0.15923  0.61644  1.0000
  C   C658      1.0  0.50063  0.13559  0.58959  1.0000
  H   H775      1.0  0.67775  0.09738  0.38312  1.0000
  N   N43       1.0  0.66789  0.19702  0.02650  1.0000
  H   H776      1.0  0.67410  0.08922  0.33842  1.0000
  C   C659      1.0  0.65311  0.17953  0.02210  1.0000
  C   C660      1.0  0.66242  0.20849  0.04784  1.0000
  C   C661      1.0  0.65249  0.23032  0.09061  1.0000
  Fe  Fe88      1.0  0.48691  0.22627  0.90985  1.0000
  H   H777      1.0  0.65859  0.09821  0.93893  1.0000
  C   C662      1.0  0.64227  0.11203  0.31654  1.0000
  H   H778      1.0  0.67889  0.18865  0.07068  1.0000
  S   S184      1.0  0.47969  0.18347  0.01549  1.0000
  H   H779      1.0  0.64165  0.18035  0.00913  1.0000
  H   H780      1.0  0.65657  0.17062  0.00548  1.0000
  H   H781      1.0  0.64888  0.17295  0.04777  1.0000
  C   C663      1.0  0.64798  0.08830  0.29347  1.0000
  H   H782      1.0  0.70690  0.20358  0.68046  1.0000
  H   H783      1.0  0.51549  0.11755  0.54937  1.0000
  H   H784      1.0  0.65720  0.19290  0.09544  1.0000
  C   C664      1.0  0.65263  0.21530  0.10455  1.0000
  C   C665      1.0  0.65092  0.21827  0.49446  1.0000
  H   H785      1.0  0.52920  0.04171  0.47497  1.0000
  H   H786      1.0  0.60073  0.19986  0.48734  1.0000
  H   H787      1.0  0.68495  0.21676  0.99193  1.0000
  H   H788      1.0  0.56376  0.03787  0.29644  1.0000
  H   H789      1.0  0.53032  0.14250  0.02439  1.0000
  H   H790      1.0  0.48496  0.16123  0.06698  1.0000
  C   C666      1.0  0.47810  0.08806  0.58345  1.0000
  H   H791      1.0  0.53084  0.23148  0.03609  1.0000
  H   H792      1.0  0.49570  0.11760  0.07832  1.0000
  C   C667      1.0  0.48288  0.10236  0.52730  1.0000
  H   H793      1.0  0.52819  0.20222  0.12908  1.0000
  C   C668      1.0  0.56865  0.98628  0.47380  1.0000
  N   N44       1.0  0.69373  0.15414  0.85879  1.0000
  C   C669      1.0  0.64257  0.09074  0.25964  1.0000
  C   C670      1.0  0.62246  0.19414  0.49310  1.0000
  H   H794      1.0  0.66317  0.20434  0.97404  1.0000
  H   H795      1.0  0.52966  0.16743  0.99503  1.0000
  H   H796      1.0  0.67829  0.19493  0.97565  1.0000
  H   H797      1.0  0.68704  0.12066  0.96046  1.0000
  H   H798      1.0  0.66287  0.12564  0.84304  1.0000
  N   N45       1.0  0.54484  0.05302  0.18983  1.0000
  C   C671      1.0  0.55203  0.04220  0.17089  1.0000
  H   H799      1.0  0.69373  0.20819  0.04986  1.0000
  C   C672      1.0  0.55496  0.07135  0.17963  1.0000
  C   C673      1.0  0.54575  0.05207  0.22897  1.0000
  C   C674      1.0  0.55492  0.04373  0.24655  1.0000
  C   C675      1.0  0.53824  0.06065  0.25077  1.0000
  H   H800      1.0  0.54529  0.02827  0.17811  1.0000
  C   C676      1.0  0.49794  0.14972  0.60257  1.0000
  H   H801      1.0  0.56624  0.04696  0.17635  1.0000
  C   C677      1.0  0.67379  0.20360  0.99054  1.0000
  H   H802      1.0  0.71622  0.17910  0.85918  1.0000
  H   H803      1.0  0.52066  0.05583  0.18593  1.0000
  H   H804      1.0  0.56835  0.07678  0.19144  1.0000
  H   H805      1.0  0.55634  0.07256  0.15043  1.0000
  H   H806      1.0  0.54890  0.07993  0.18857  1.0000
  H   H807      1.0  0.56163  0.03741  0.23241  1.0000
  H   H808      1.0  0.53416  0.06763  0.30403  1.0000
  C   C678      1.0  0.55328  0.22342  0.11981  1.0000
  H   H809      1.0  0.51307  0.03659  0.41796  1.0000
  C   C679      1.0  0.48830  0.12361  0.99217  1.0000
  C   C680      1.0  0.64339  0.07822  0.36952  1.0000
  H   H810      1.0  0.70701  0.14215  0.82859  1.0000
  C   C681      1.0  0.48115  0.14807  0.60751  1.0000
  H   H811      1.0  0.47754  0.10300  0.05175  1.0000
  H   H812      1.0  0.58971  0.23277  0.06922  1.0000
  C   C682      1.0  0.57438  0.00110  0.59227  1.0000
  H   H813      1.0  0.48167  0.08911  0.99829  1.0000
  C   C683      1.0  0.55981  0.99496  0.48986  1.0000
  H   H814      1.0  0.50297  0.16520  0.96396  1.0000
  C   C684      1.0  0.49111  0.10595  0.06021  1.0000
  C   C685      1.0  0.47841  0.22802  0.73215  1.0000
  S   S185      1.0  0.71466  0.20675  0.81081  1.0000
  Fe  Fe89      1.0  0.72268  0.21653  0.86885  1.0000
  C   C686      1.0  0.51820  0.15507  0.99395  1.0000
  H   H815      1.0  0.50813  0.09492  0.55568  1.0000
  H   H816      1.0  0.52534  0.12151  0.06425  1.0000
  C   C687      1.0  0.49451  0.02122  0.48747  1.0000
  H   H817      1.0  0.51875  0.99385  0.46484  1.0000
  H   H818      1.0  0.66498  0.22314  0.49640  1.0000
  H   H819      1.0  0.57074  0.01152  0.59887  1.0000
  H   H820      1.0  0.58993  0.01474  0.54855  1.0000
  C   C688      1.0  0.55693  0.99319  0.00622  1.0000
  H   H821      1.0  0.68740  0.18718  0.02904  1.0000
  C   C689      1.0  0.63683  0.11431  0.28255  1.0000
  Fe  Fe90      1.0  0.48192  0.22663  0.63088  1.0000
  H   H822      1.0  0.63988  0.10648  0.39063  1.0000
  H   H823      1.0  0.48601  0.98738  0.42872  1.0000
  H   H824      1.0  0.71974  0.16229  0.88069  1.0000
  C   C690      1.0  0.69851  0.14894  0.82441  1.0000
  N   N46       1.0  0.65426  0.09626  0.35837  1.0000
  C   C691      1.0  0.64050  0.20043  0.49568  1.0000
  H   H825      1.0  0.53444  0.00635  0.43339  1.0000
  S   S186      1.0  0.48974  0.22048  0.85048  1.0000
  H   H826      1.0  0.49227  0.21257  0.72105  1.0000
  H   H827      1.0  0.68694  0.14004  0.80839  1.0000
  C   C692      1.0  0.58966  0.98951  0.55465  1.0000
  C   C693      1.0  0.66604  0.10908  0.92227  1.0000
  C   C694      1.0  0.68256  0.19523  0.04493  1.0000
  S   S187      1.0  0.50122  0.21670  0.61268  1.0000
  C   C695      1.0  0.63711  0.10378  0.25415  1.0000
  C   C696      1.0  0.55630  0.04392  0.28359  1.0000
  H   H828      1.0  0.64491  0.06820  0.35253  1.0000
  C   C697      1.0  0.49852  0.01088  0.46244  1.0000
  C   C698      1.0  0.67258  0.09884  0.35664  1.0000
  H   H829      1.0  0.64647  0.19148  0.49848  1.0000
  N   N47       1.0  0.51613  0.01671  0.44776  1.0000
  H   H830      1.0  0.54323  0.03289  0.46103  1.0000
  C   C699      1.0  0.64816  0.09898  0.32294  1.0000
  S   S188      1.0  0.48845  0.23211  0.01190  1.0000
  H   H831      1.0  0.59307  0.22171  0.50879  1.0000
  C   C700      1.0  0.65741  0.20446  0.08351  1.0000
  Fe  Fe91      1.0  0.48279  0.20424  0.56545  1.0000
  H   H832      1.0  0.49812  0.20888  0.78443  1.0000
  H   H833      1.0  0.57887  0.99314  0.45552  1.0000
  C   C701      1.0  0.68473  0.13854  0.88048  1.0000
  C   C702      1.0  0.48840  0.13809  0.97494  1.0000
  H   H834      1.0  0.68865  0.17491  0.83694  1.0000
  H   H835      1.0  0.65826  0.10601  0.41270  1.0000
  H   H836      1.0  0.68107  0.11209  0.34718  1.0000
  H   H837      1.0  0.50312  0.09548  0.98120  1.0000
  C   C703      1.0  0.48489  0.22352  0.80522  1.0000
  H   H838      1.0  0.69712  0.19746  0.74250  1.0000
  H   H839      1.0  0.64151  0.12049  0.33737  1.0000
  Fe  Fe92      1.0  0.71593  0.20124  0.94452  1.0000
  C   C704      1.0  0.68209  0.12178  0.93438  1.0000
  H   H840      1.0  0.64906  0.21206  0.13183  1.0000
  H   H841      1.0  0.67755  0.16609  0.87705  1.0000
  C   C705      1.0  0.61475  0.20566  0.48935  1.0000
  C   C706      1.0  0.69137  0.13633  0.91398  1.0000
  H   H842      1.0  0.51821  0.03375  0.18652  1.0000
  H   H843      1.0  0.49602  0.08178  0.01894  1.0000
  H   H844      1.0  0.66170  0.12220  0.38051  1.0000
  H   H845      1.0  0.63251  0.10530  0.22797  1.0000
  C   C707      1.0  0.65347  0.10832  0.38649  1.0000
  C   C708      1.0  0.64335  0.22986  0.49057  1.0000
  C   C709      1.0  0.53005  0.02918  0.47182  1.0000
  H   H846      1.0  0.51907  0.09901  0.05621  1.0000
  Fe  Fe93      1.0  0.70821  0.20372  0.52634  1.0000
  S   S189      1.0  0.49538  0.22813  0.53187  1.0000
  C   C710      1.0  0.65940  0.11061  0.88920  1.0000
  H   H847      1.0  0.59244  0.21925  0.46079  1.0000
  C   C711      1.0  0.66173  0.22369  0.03422  1.0000
  C   C712      1.0  0.50324  0.15384  0.97619  1.0000
  C   C713      1.0  0.53974  0.06077  0.28778  1.0000
  H   H848      1.0  0.65168  0.07772  0.29646  1.0000
  H   H849      1.0  0.70341  0.14591  0.92575  1.0000
  C   C714      1.0  0.48434  0.99552  0.44910  1.0000
  H   H850      1.0  0.67032  0.15430  0.83556  1.0000
  H   H851      1.0  0.58834  0.23079  0.13535  1.0000
  Fe  Fe94      1.0  0.48144  0.20688  0.98130  1.0000
  C   C715      1.0  0.53711  0.22921  0.05954  1.0000
  S   S190      1.0  0.72526  0.22799  0.97105  1.0000
  S   S191      1.0  0.48130  0.17853  0.54018  1.0000
  H   H852      1.0  0.55868  0.22046  0.14347  1.0000
  H   H853      1.0  0.59767  0.99085  0.53185  1.0000
  C   C716      1.0  0.58529  0.00300  0.56401  1.0000
  H   H854      1.0  0.68608  0.23409  0.78385  1.0000
  H   H855      1.0  0.68018  0.23338  0.66183  1.0000
  C   C717      1.0  0.54657  0.98565  0.51367  1.0000
  C   C718      1.0  0.65689  0.23441  0.05548  1.0000
  S   S192      1.0  0.49461  0.25277  0.93631  1.0000
  N   N48       1.0  0.64463  0.37971  0.41227  1.0000
  S   S193      1.0  0.53425  0.26611  0.00231  1.0000
  C   C719      1.0  0.51962  0.25134  0.68016  1.0000
  S   S194      1.0  0.49447  0.25160  0.60086  1.0000
  H   H856      1.0  0.62108  0.36807  0.44164  1.0000
  S   S195      1.0  0.54084  0.26007  0.57970  1.0000
  Fe  Fe95      1.0  0.72012  0.44115  0.53529  1.0000
  C   C720      1.0  0.68860  0.28524  0.33179  1.0000
  C   C721      1.0  0.63893  0.40559  0.39377  1.0000
  C   C722      1.0  0.70829  0.25175  0.70827  1.0000
  S   S196      1.0  0.71167  0.40970  0.93874  1.0000
  C   C723      1.0  0.50296  0.30125  0.06785  1.0000
  S   S197      1.0  0.70645  0.45061  0.89934  1.0000
  Fe  Fe96      1.0  0.64121  0.30216  0.12083  1.0000
  S   S198      1.0  0.66933  0.31991  0.11212  1.0000
  S   S199      1.0  0.62748  0.28989  0.17176  1.0000
  Fe  Fe97      1.0  0.63311  0.29583  0.04075  1.0000
  S   S200      1.0  0.66061  0.31318  0.02560  1.0000
  S   S201      1.0  0.61303  0.27816  0.00027  1.0000
  Fe  Fe98      1.0  0.66847  0.30050  0.06995  1.0000
  S   S202      1.0  0.68952  0.29093  0.06795  1.0000
  Fe  Fe99      1.0  0.65946  0.33143  0.06822  1.0000
  S   S203      1.0  0.67035  0.36107  0.06489  1.0000
  S   S204      1.0  0.64127  0.28191  0.08190  1.0000
  S   S205      1.0  0.63111  0.31494  0.08012  1.0000
  H   H857      1.0  0.47814  0.29059  0.09559  1.0000
  S   S206      1.0  0.70216  0.44979  0.56407  1.0000
  C   C724      1.0  0.53878  0.28638  0.48253  1.0000
  H   H858      1.0  0.53879  0.27332  0.48358  1.0000
  Fe  Fe100     1.0  0.71217  0.23994  0.54957  1.0000
  C   C725      1.0  0.69699  0.24090  0.76692  1.0000
  Fe  Fe101     1.0  0.61382  0.28835  0.43567  1.0000
  S   S207      1.0  0.63590  0.29573  0.47534  1.0000
  S   S208      1.0  0.58730  0.26619  0.44521  1.0000
  Fe  Fe102     1.0  0.63691  0.31311  0.37922  1.0000
  S   S209      1.0  0.66062  0.32261  0.41540  1.0000
  S   S210      1.0  0.64166  0.32639  0.32584  1.0000
  Fe  Fe103     1.0  0.65152  0.29449  0.42901  1.0000
  S   S211      1.0  0.66859  0.28044  0.42349  1.0000
  Fe  Fe104     1.0  0.64300  0.32326  0.45833  1.0000
  S   S212      1.0  0.64772  0.34501  0.49864  1.0000
  S   S213      1.0  0.62898  0.28494  0.39009  1.0000
  S   S214      1.0  0.61974  0.31590  0.42134  1.0000
  S   S215      1.0  0.69810  0.25704  0.55828  1.0000
  C   C726      1.0  0.50400  0.30303  0.47772  1.0000
  S   S216      1.0  0.55574  0.46138  0.01643  1.0000
  H   H859      1.0  0.67040  0.38841  0.39198  1.0000
  S   S217      1.0  0.54611  0.46578  0.39107  1.0000
  C   C727      1.0  0.51104  0.42008  0.45737  1.0000
  C   C728      1.0  0.52816  0.43064  0.46908  1.0000
  C   C729      1.0  0.53923  0.44444  0.44848  1.0000
  C   C730      1.0  0.53308  0.44792  0.41640  1.0000
  C   C731      1.0  0.51601  0.43728  0.40448  1.0000
  C   C732      1.0  0.50500  0.42336  0.42493  1.0000
  H   H860      1.0  0.53288  0.42808  0.49416  1.0000
  H   H861      1.0  0.55245  0.45247  0.45760  1.0000
  H   H862      1.0  0.51121  0.43993  0.37963  1.0000
  H   H863      1.0  0.49173  0.41544  0.41612  1.0000
  C   C733      1.0  0.51338  0.42313  0.08590  1.0000
  C   C734      1.0  0.52808  0.43682  0.10145  1.0000
  C   C735      1.0  0.54107  0.44863  0.08027  1.0000
  C   C736      1.0  0.53947  0.44676  0.04334  1.0000
  C   C737      1.0  0.52473  0.43310  0.02770  1.0000
  C   C738      1.0  0.51167  0.42130  0.04895  1.0000
  H   H864      1.0  0.52950  0.43828  0.13000  1.0000
  H   H865      1.0  0.55240  0.45907  0.09254  1.0000
  H   H866      1.0  0.52346  0.43158  0.99914  1.0000
  H   H867      1.0  0.50039  0.41075  0.03679  1.0000
  C   C739      1.0  0.67714  0.27464  0.46133  1.0000
  C   C740      1.0  0.68619  0.26436  0.45689  1.0000
  C   C741      1.0  0.69273  0.25899  0.48643  1.0000
  C   C742      1.0  0.69028  0.26386  0.52067  1.0000
  C   C743      1.0  0.68123  0.27419  0.52516  1.0000
  C   C744      1.0  0.67468  0.27958  0.49556  1.0000
  H   H868      1.0  0.68811  0.26044  0.43052  1.0000
  S   S218      1.0  0.49766  0.40860  0.11391  1.0000
  H   H869      1.0  0.67936  0.27808  0.55158  1.0000
  H   H870      1.0  0.66779  0.28758  0.49924  1.0000
  C   C745      1.0  0.69705  0.39667  0.50375  1.0000
  C   C746      1.0  0.68260  0.39457  0.52354  1.0000
  C   C747      1.0  0.66769  0.37852  0.52225  1.0000
  C   C748      1.0  0.66708  0.36454  0.50101  1.0000
  C   C749      1.0  0.68156  0.36662  0.48132  1.0000
  C   C750      1.0  0.69649  0.38264  0.48272  1.0000
  H   H871      1.0  0.68292  0.40526  0.53990  1.0000
  H   H872      1.0  0.65655  0.37696  0.53768  1.0000
  H   H873      1.0  0.68126  0.35593  0.46500  1.0000
  H   H874      1.0  0.70764  0.38415  0.46738  1.0000
  C   C751      1.0  0.68914  0.27743  0.03162  1.0000
  C   C752      1.0  0.67739  0.27421  0.00306  1.0000
  C   C753      1.0  0.67768  0.26379  0.97400  1.0000
  C   C754      1.0  0.68969  0.25654  0.97324  1.0000
  C   C755      1.0  0.70099  0.25921  0.00236  1.0000
  C   C756      1.0  0.70083  0.26978  0.03130  1.0000
  H   H875      1.0  0.66822  0.27991  0.00314  1.0000
  H   H876      1.0  0.66873  0.26159  0.95175  1.0000
  H   H877      1.0  0.70979  0.25311  0.00262  1.0000
  H   H878      1.0  0.70976  0.27201  0.05359  1.0000
  C   C757      1.0  0.63153  0.30029  0.21436  1.0000
  C   C758      1.0  0.64213  0.31812  0.21924  1.0000
  C   C759      1.0  0.64502  0.32587  0.25350  1.0000
  C   C760      1.0  0.63758  0.31590  0.28333  1.0000
  C   C761      1.0  0.62713  0.29802  0.27853  1.0000
  C   C762      1.0  0.62404  0.29030  0.24419  1.0000
  H   H879      1.0  0.64797  0.32597  0.19658  1.0000
  H   H880      1.0  0.65311  0.33971  0.25687  1.0000
  H   H881      1.0  0.62119  0.29021  0.30117  1.0000
  H   H882      1.0  0.61579  0.27651  0.24072  1.0000
  C   C763      1.0  0.70071  0.39639  0.97452  1.0000
  C   C764      1.0  0.69446  0.37819  0.97088  1.0000
  C   C765      1.0  0.68520  0.36716  0.99827  1.0000
  C   C766      1.0  0.68209  0.37426  0.02961  1.0000
  C   C767      1.0  0.68863  0.39247  0.03343  1.0000
  C   C768      1.0  0.69808  0.40349  0.00626  1.0000
  H   H883      1.0  0.69655  0.37257  0.94653  1.0000
  H   H884      1.0  0.68031  0.35318  0.99500  1.0000
  H   H885      1.0  0.68652  0.39809  0.05776  1.0000
  H   H886      1.0  0.70341  0.41746  0.01000  1.0000
  C   C769      1.0  0.54042  0.45992  0.29482  1.0000
  C   C770      1.0  0.55372  0.26156  0.54236  1.0000
  C   C771      1.0  0.57018  0.27570  0.54009  1.0000
  C   C772      1.0  0.58061  0.27738  0.51046  1.0000
  C   C773      1.0  0.57467  0.26485  0.48289  1.0000
  C   C774      1.0  0.55825  0.25068  0.48527  1.0000
  C   C775      1.0  0.54780  0.24903  0.51480  1.0000
  H   H887      1.0  0.57489  0.28545  0.56127  1.0000
  H   H888      1.0  0.59324  0.28834  0.50900  1.0000
  N   N49       1.0  0.48860  0.40350  0.22108  1.0000
  H   H889      1.0  0.51072  0.25944  0.46325  1.0000
  C   C776      1.0  0.55623  0.27010  0.99835  1.0000
  C   C777      1.0  0.56887  0.28388  0.01858  1.0000
  C   C778      1.0  0.58641  0.28678  0.01863  1.0000
  C   C779      1.0  0.59143  0.27589  0.99848  1.0000
  C   C780      1.0  0.57886  0.26232  0.97765  1.0000
  C   C781      1.0  0.56128  0.25940  0.97758  1.0000
  H   H890      1.0  0.56504  0.29220  0.03469  1.0000
  H   H891      1.0  0.59600  0.29731  0.03457  1.0000
  H   H892      1.0  0.50616  0.43071  0.22644  1.0000
  H   H893      1.0  0.52674  0.31754  0.04086  1.0000
  H   H894      1.0  0.53673  0.28475  0.70029  1.0000
  H   H895      1.0  0.63730  0.25337  0.44888  1.0000
  H   H896      1.0  0.59291  0.23847  0.48097  1.0000
  C   C782      1.0  0.71384  0.24680  0.78089  1.0000
  H   H897      1.0  0.51689  0.26975  0.74256  1.0000
  C   C783      1.0  0.48752  0.31780  0.09065  1.0000
  H   H898      1.0  0.56095  0.25719  0.69698  1.0000
  N   N50       1.0  0.52107  0.28539  0.48709  1.0000
  C   C784      1.0  0.50504  0.41863  0.21252  1.0000
  H   H899      1.0  0.71838  0.37014  0.03040  1.0000
  C   C785      1.0  0.71368  0.24495  0.64854  1.0000
  H   H900      1.0  0.63735  0.46050  0.50745  1.0000
  C   C786      1.0  0.51428  0.33285  0.05993  1.0000
  H   H901      1.0  0.51151  0.27627  0.43391  1.0000
  C   C787      1.0  0.50914  0.27176  0.46168  1.0000
  Fe  Fe105     1.0  0.47666  0.23755  0.55519  1.0000
  C   C788      1.0  0.70601  0.30606  0.95608  1.0000
  C   C789      1.0  0.69414  0.24332  0.73118  1.0000
  C   C790      1.0  0.52558  0.46908  0.50247  1.0000
  C   C791      1.0  0.50450  0.28174  0.02230  1.0000
  H   H902      1.0  0.62731  0.48107  0.59238  1.0000
  S   S219      1.0  0.72242  0.45668  0.98133  1.0000
  H   H903      1.0  0.62101  0.24366  0.53934  1.0000
  H   H904      1.0  0.58967  0.47937  0.24429  1.0000
  H   H905      1.0  0.66020  0.40219  0.46898  1.0000
  H   H906      1.0  0.63795  0.25830  0.51224  1.0000
  H   H907      1.0  0.49990  0.38520  0.21313  1.0000
  H   H908      1.0  0.51699  0.34667  0.47091  1.0000
  H   H909      1.0  0.69435  0.30817  0.95446  1.0000
  C   C792      1.0  0.48876  0.30203  0.08587  1.0000
  H   H910      1.0  0.50591  0.42115  0.18358  1.0000
  H   H911      1.0  0.68066  0.25447  0.67302  1.0000
  Fe  Fe106     1.0  0.72356  0.46111  0.60651  1.0000
  H   H912      1.0  0.61914  0.23607  0.42694  1.0000
  C   C793      1.0  0.68732  0.24771  0.65845  1.0000
  H   H913      1.0  0.68718  0.47817  0.67899  1.0000
  C   C794      1.0  0.67894  0.48309  0.66365  1.0000
  H   H914      1.0  0.68602  0.24992  0.62970  1.0000
  C   C795      1.0  0.62373  0.24991  0.51305  1.0000
  H   H915      1.0  0.51638  0.29134  0.00970  1.0000
  H   H916      1.0  0.66493  0.30076  0.19410  1.0000
  H   H917      1.0  0.61705  0.25479  0.44476  1.0000
  H   H918      1.0  0.64987  0.44474  0.43623  1.0000
  C   C796      1.0  0.65177  0.48123  0.60917  1.0000
  H   H919      1.0  0.57772  0.26899  0.12959  1.0000
  H   H920      1.0  0.55814  0.45199  0.20574  1.0000
  H   H921      1.0  0.63215  0.39914  0.36953  1.0000
  C   C797      1.0  0.50004  0.39852  0.27974  1.0000
  H   H922      1.0  0.55163  0.24872  0.96201  1.0000
  H   H923      1.0  0.49190  0.29145  0.47825  1.0000
  H   H924      1.0  0.69190  0.31788  0.31671  1.0000
  H   H925      1.0  0.64873  0.28112  0.30507  1.0000
  H   H926      1.0  0.52410  0.28956  0.54369  1.0000
  H   H927      1.0  0.66122  0.45473  0.62313  1.0000
  C   C798      1.0  0.53383  0.25649  0.73818  1.0000
  H   H928      1.0  0.50853  0.39354  0.33093  1.0000
  C   C799      1.0  0.50015  0.33313  0.07747  1.0000
  H   H929      1.0  0.70958  0.28073  0.67868  1.0000
  N   N51       1.0  0.53659  0.25923  0.69965  1.0000
  H   H930      1.0  0.48482  0.39613  0.36316  1.0000
  H   H931      1.0  0.52215  0.27338  0.07296  1.0000
  C   C800      1.0  0.67954  0.29043  0.27192  1.0000
  H   H932      1.0  0.51664  0.41653  0.21991  1.0000
  H   H933      1.0  0.71249  0.27536  0.63361  1.0000
  C   C801      1.0  0.71358  0.45273  0.73776  1.0000
  C   C802      1.0  0.72264  0.46310  0.70940  1.0000
  C   C803      1.0  0.67009  0.29619  0.24825  1.0000
  H   H934      1.0  0.47733  0.28153  0.56536  1.0000
  H   H935      1.0  0.63277  0.35487  0.43764  1.0000
  H   H936      1.0  0.60351  0.25317  0.14080  1.0000
  C   C804      1.0  0.62298  0.24558  0.44965  1.0000
  C   C805      1.0  0.54098  0.44399  0.28775  1.0000
  Fe  Fe107     1.0  0.51035  0.24490  0.97468  1.0000
  C   C806      1.0  0.72586  0.38350  0.03972  1.0000
  H   H937      1.0  0.68302  0.45722  0.62750  1.0000
  C   C807      1.0  0.63430  0.36850  0.44095  1.0000
  N   N52       1.0  0.65795  0.41991  0.97656  1.0000
  C   C808      1.0  0.65586  0.42540  0.94021  1.0000
  C   C809      1.0  0.64792  0.42596  0.00065  1.0000
  C   C810      1.0  0.67649  0.42885  0.98785  1.0000
  C   C811      1.0  0.65252  0.40087  0.97703  1.0000
  C   C812      1.0  0.64179  0.39010  0.00368  1.0000
  C   C813      1.0  0.65903  0.39276  0.95180  1.0000
  C   C814      1.0  0.63774  0.37232  0.00448  1.0000
  C   C815      1.0  0.65464  0.37493  0.95250  1.0000
  C   C816      1.0  0.64409  0.36475  0.97890  1.0000
  H   H938      1.0  0.64254  0.41738  0.92908  1.0000
  H   H939      1.0  0.65808  0.43930  0.93978  1.0000
  H   H940      1.0  0.66540  0.42451  0.92153  1.0000
  H   H941      1.0  0.65179  0.44023  0.99830  1.0000
  H   H942      1.0  0.65036  0.42412  0.02901  1.0000
  H   H943      1.0  0.63372  0.41913  0.99440  1.0000
  H   H944      1.0  0.68500  0.42609  0.96912  1.0000
  H   H945      1.0  0.68116  0.44322  0.98944  1.0000
  H   H946      1.0  0.67863  0.42463  0.01456  1.0000
  H   H947      1.0  0.63668  0.39513  0.02468  1.0000
  H   H948      1.0  0.66812  0.40024  0.93207  1.0000
  H   H949      1.0  0.63000  0.36439  0.02560  1.0000
  H   H950      1.0  0.66006  0.36913  0.93336  1.0000
  H   H951      1.0  0.64128  0.35106  0.98022  1.0000
  S   S220      1.0  0.71602  0.41656  0.50399  1.0000
  C   C817      1.0  0.49909  0.39658  0.31650  1.0000
  H   H952      1.0  0.52544  0.24946  0.83995  1.0000
  H   H953      1.0  0.49871  0.34516  0.08016  1.0000
  H   H954      1.0  0.51059  0.39715  0.26676  1.0000
  H   H955      1.0  0.55757  0.28473  0.70799  1.0000
  H   H956      1.0  0.58268  0.25385  0.96195  1.0000
  C   C818      1.0  0.71933  0.45754  0.77346  1.0000
  H   H957      1.0  0.55355  0.24091  0.46410  1.0000
  C   C819      1.0  0.67471  0.46287  0.61488  1.0000
  C   C820      1.0  0.66219  0.38004  0.41307  1.0000
  H   H958      1.0  0.48896  0.38819  0.17522  1.0000
  C   C821      1.0  0.54502  0.27817  0.69276  1.0000
  S   S221      1.0  0.69005  0.24420  0.93547  1.0000
  H   H959      1.0  0.66154  0.36673  0.40931  1.0000
  H   H960      1.0  0.53538  0.46151  0.31999  1.0000
  C   C822      1.0  0.65643  0.47780  0.97615  1.0000
  H   H961      1.0  0.51944  0.46348  0.52790  1.0000
  H   H962      1.0  0.51669  0.46166  0.47998  1.0000
  C   C823      1.0  0.68403  0.29062  0.19736  1.0000
  C   C824      1.0  0.67235  0.29631  0.21162  1.0000
  H   H963      1.0  0.49034  0.31913  0.47063  1.0000
  C   C825      1.0  0.54250  0.48422  0.94552  1.0000
  H   H964      1.0  0.53083  0.47411  0.95778  1.0000
  H   H965      1.0  0.59924  0.27582  0.11288  1.0000
  C   C826      1.0  0.58522  0.26702  0.10748  1.0000
  H   H966      1.0  0.51246  0.23725  0.68587  1.0000
  C   C827      1.0  0.53836  0.24503  0.79498  1.0000
  H   H967      1.0  0.63361  0.48137  0.99079  1.0000
  H   H968      1.0  0.65666  0.24607  0.04472  1.0000
  C   C828      1.0  0.48743  0.40181  0.26009  1.0000
  S   S222      1.0  0.49732  0.40355  0.48481  1.0000
  C   C829      1.0  0.52335  0.26305  0.75638  1.0000
  H   H969      1.0  0.66076  0.30055  0.25792  1.0000
  H   H970      1.0  0.51212  0.26534  0.80597  1.0000
  C   C830      1.0  0.51573  0.31718  0.05522  1.0000
  C   C831      1.0  0.53538  0.31845  0.48219  1.0000
  H   H971      1.0  0.66889  0.31144  0.31288  1.0000
  H   H972      1.0  0.54411  0.29186  0.45645  1.0000
  C   C832      1.0  0.63605  0.37135  0.37793  1.0000
  Fe  Fe108     1.0  0.71994  0.43892  0.93491  1.0000
  Fe  Fe109     1.0  0.71039  0.46969  0.94505  1.0000
  H   H973      1.0  0.53727  0.46646  0.50042  1.0000
  H   H974      1.0  0.49449  0.46561  0.50597  1.0000
  C   C833      1.0  0.65459  0.40744  0.44909  1.0000
  H   H975      1.0  0.65597  0.26420  0.30712  1.0000
  S   S223      1.0  0.68514  0.47288  0.95553  1.0000
  H   H976      1.0  0.68657  0.28581  0.36077  1.0000
  C   C834      1.0  0.65599  0.42425  0.45536  1.0000
  C   C835      1.0  0.67895  0.30762  0.32372  1.0000
  C   C836      1.0  0.72530  0.25755  0.72343  1.0000
  C   C837      1.0  0.48856  0.38752  0.20464  1.0000
  H   H977      1.0  0.69895  0.27977  0.27214  1.0000
  C   C838      1.0  0.66552  0.47297  0.50841  1.0000
  H   H978      1.0  0.54844  0.42903  0.25086  1.0000
  C   C839      1.0  0.50293  0.31886  0.47359  1.0000
  H   H979      1.0  0.50200  0.27755  0.52801  1.0000
  H   H980      1.0  0.66678  0.46252  0.52219  1.0000
  H   H981      1.0  0.67789  0.30805  0.35312  1.0000
  H   H982      1.0  0.70250  0.28029  0.20846  1.0000
  H   H983      1.0  0.49517  0.26783  0.46716  1.0000
  H   H984      1.0  0.52177  0.28880  0.10598  1.0000
  H   H985      1.0  0.54776  0.28068  0.66406  1.0000
  H   H986      1.0  0.61740  0.25898  0.51177  1.0000
  H   H987      1.0  0.54580  0.34643  0.47860  1.0000
  C   C840      1.0  0.54128  0.24736  0.75864  1.0000
  H   H988      1.0  0.68649  0.27162  0.32578  1.0000
  C   C841      1.0  0.70858  0.29511  0.93139  1.0000
  H   H989      1.0  0.69966  0.25107  0.48260  1.0000
  C   C842      1.0  0.52026  0.30226  0.48164  1.0000
  H   H990      1.0  0.51649  0.26726  0.52925  1.0000
  H   H991      1.0  0.64966  0.46857  0.95486  1.0000
  H   H992      1.0  0.56150  0.25003  0.04897  1.0000
  Fe  Fe110     1.0  0.71616  0.47521  0.53672  1.0000
  H   H993      1.0  0.63473  0.42828  0.38180  1.0000
  C   C843      1.0  0.52059  0.26070  0.79273  1.0000
  H   H994      1.0  0.48929  0.27051  0.10499  1.0000
  H   H995      1.0  0.54171  0.23704  0.68738  1.0000
  H   H996      1.0  0.54803  0.29423  0.50414  1.0000
  H   H997      1.0  0.51094  0.25756  0.68721  1.0000
  C   C844      1.0  0.55299  0.45410  0.23060  1.0000
  C   C845      1.0  0.69129  0.28457  0.25648  1.0000
  H   H998      1.0  0.49155  0.25710  0.07045  1.0000
  H   H999      1.0  0.60632  0.25452  0.07767  1.0000
  C   C846      1.0  0.64031  0.42239  0.40047  1.0000
  N   N53       1.0  0.50444  0.28475  0.06108  1.0000
  H   H1000     1.0  0.50386  0.26874  0.01586  1.0000
  N   N54       1.0  0.70586  0.25427  0.67014  1.0000
  C   C847      1.0  0.65855  0.27741  0.31757  1.0000
  C   C848      1.0  0.64883  0.43170  0.43115  1.0000
  C   C849      1.0  0.58941  0.24429  0.13665  1.0000
  H   H1001     1.0  0.54830  0.31927  0.48596  1.0000
  C   C850      1.0  0.54752  0.44118  0.25590  1.0000
  H   H1002     1.0  0.53257  0.29597  0.06470  1.0000
  C   C851      1.0  0.53415  0.33423  0.47812  1.0000
  H   H1003     1.0  0.64898  0.23885  0.10696  1.0000
  C   C852      1.0  0.64877  0.47185  0.49989  1.0000
  H   H1004     1.0  0.64053  0.37309  0.46758  1.0000
  C   C853      1.0  0.67428  0.48251  0.98268  1.0000
  H   H1005     1.0  0.58286  0.24599  0.16073  1.0000
  H   H1006     1.0  0.49308  0.28219  0.00884  1.0000
  C   C854      1.0  0.69346  0.28475  0.21974  1.0000
  Fe  Fe111     1.0  0.51235  0.24072  0.57967  1.0000
  C   C855      1.0  0.48999  0.26926  0.07575  1.0000
  H   H1007     1.0  0.65601  0.27639  0.34654  1.0000
  H   H1008     1.0  0.71596  0.24441  0.80833  1.0000
  H   H1009     1.0  0.55273  0.47943  0.94907  1.0000
  H   H1010     1.0  0.71182  0.24634  0.61972  1.0000
  C   C856      1.0  0.72275  0.38858  0.07309  1.0000
  C   C857      1.0  0.71459  0.27307  0.66202  1.0000
  N   N55       1.0  0.58215  0.24850  0.10397  1.0000
  H   H1011     1.0  0.64326  0.37900  0.35502  1.0000
  C   C858      1.0  0.64610  0.39759  0.41798  1.0000
  H   H1012     1.0  0.68570  0.29074  0.16887  1.0000
  H   H1013     1.0  0.62235  0.36961  0.37613  1.0000
  H   H1014     1.0  0.72377  0.28204  0.91608  1.0000
  C   C859      1.0  0.51566  0.27970  0.52358  1.0000
  H   H1015     1.0  0.69877  0.28857  0.91079  1.0000
  H   H1016     1.0  0.70244  0.29427  0.32750  1.0000
  N   N56       1.0  0.67660  0.29016  0.31056  1.0000
  C   C860      1.0  0.59209  0.24659  0.07362  1.0000
  H   H1017     1.0  0.52396  0.34479  0.04935  1.0000
  H   H1018     1.0  0.58148  0.27178  0.08305  1.0000
  H   H1019     1.0  0.65202  0.24352  0.48930  1.0000
  C   C861      1.0  0.51796  0.33443  0.47378  1.0000
  H   H1020     1.0  0.63554  0.35806  0.37437  1.0000
  H   H1021     1.0  0.71287  0.37920  0.08941  1.0000
  H   H1022     1.0  0.54944  0.25374  0.65541  1.0000
  H   H1023     1.0  0.70212  0.44073  0.73210  1.0000
  C   C862      1.0  0.52807  0.25171  0.81197  1.0000
  H   H1024     1.0  0.52131  0.25254  0.65100  1.0000
  H   H1025     1.0  0.66267  0.43158  0.47915  1.0000
  C   C863      1.0  0.49785  0.47938  0.50803  1.0000
  C   C864      1.0  0.54769  0.25144  0.68444  1.0000
  H   H1026     1.0  0.66925  0.38515  0.43871  1.0000
  C   C865      1.0  0.52093  0.28584  0.07701  1.0000
  H   H1027     1.0  0.67502  0.46117  0.58561  1.0000
  C   C866      1.0  0.48578  0.39814  0.33482  1.0000
  C   C867      1.0  0.54670  0.47368  0.27046  1.0000
  H   H1028     1.0  0.71229  0.44924  0.79471  1.0000
  H   H1029     1.0  0.53671  0.43399  0.30760  1.0000
  C   C868      1.0  0.71793  0.31343  0.98412  1.0000
  H   H1030     1.0  0.58861  0.25105  0.04841  1.0000
  H   H1031     1.0  0.64532  0.47040  0.62634  1.0000
  S   S224      1.0  0.62496  0.48346  0.47376  1.0000
  S   S225      1.0  0.71497  0.45594  0.66468  1.0000
  H   H1032     1.0  0.54924  0.24168  0.74724  1.0000
  C   C869      1.0  0.55250  0.47009  0.23751  1.0000
  H   H1033     1.0  0.71534  0.32115  0.00436  1.0000
  H   H1034     1.0  0.47660  0.37583  0.21124  1.0000
  H   H1035     1.0  0.55731  0.47959  0.21696  1.0000
  C   C870      1.0  0.72311  0.29157  0.93451  1.0000
  C   C871      1.0  0.48405  0.48398  0.51229  1.0000
  N   N57       1.0  0.68075  0.48154  0.62487  1.0000
  N   N58       1.0  0.61747  0.23664  0.48375  1.0000
  H   H1036     1.0  0.68075  0.23821  0.72211  1.0000
  H   H1037     1.0  0.53978  0.48431  0.91660  1.0000
  H   H1038     1.0  0.52245  0.47993  0.30632  1.0000
  H   H1039     1.0  0.53521  0.23802  0.51624  1.0000
  H   H1040     1.0  0.52091  0.48301  0.25960  1.0000
  H   H1041     1.0  0.66537  0.47545  0.67212  1.0000
  H   H1042     1.0  0.47723  0.26701  0.06328  1.0000
  Fe  Fe112     1.0  0.57733  0.48360  0.04647  1.0000
  S   S226      1.0  0.59732  0.48186  0.08359  1.0000
  C   C872      1.0  0.56336  0.23728  0.09742  1.0000
  H   H1043     1.0  0.54382  0.23774  0.81012  1.0000
  C   C873      1.0  0.55467  0.23984  0.06719  1.0000
  H   H1044     1.0  0.70720  0.48473  0.63218  1.0000
  C   C874      1.0  0.53486  0.50858  0.95451  1.0000
  H   H1045     1.0  0.53071  0.54510  0.92737  1.0000
  C   C875      1.0  0.64725  0.48508  0.99651  1.0000
  S   S227      1.0  0.49545  0.70004  0.03145  1.0000
  C   C876      1.0  0.59702  0.50358  0.21722  1.0000
  H   H1046     1.0  0.59787  0.49305  0.30434  1.0000
  H   H1047     1.0  0.49013  0.60138  0.76950  1.0000
  H   H1048     1.0  0.50466  0.60979  0.02537  1.0000
  H   H1049     1.0  0.55048  0.64089  0.08727  1.0000
  H   H1050     1.0  0.56917  0.58573  0.42928  1.0000
  C   C877      1.0  0.51424  0.61032  0.04633  1.0000
  C   C878      1.0  0.51865  0.63960  0.06900  1.0000
  C   C879      1.0  0.54392  0.49683  0.52905  1.0000
  S   S228      1.0  0.61315  0.52452  0.09131  1.0000
  H   H1051     1.0  0.63331  0.49315  0.16471  1.0000
  H   H1052     1.0  0.47913  0.63941  0.08668  1.0000
  H   H1053     1.0  0.54298  0.66320  0.07550  1.0000
  Fe  Fe113     1.0  0.59147  0.52282  0.05301  1.0000
  S   S229      1.0  0.58780  0.54536  0.02606  1.0000
  C   C880      1.0  0.66160  0.49993  0.47276  1.0000
  H   H1054     1.0  0.48837  0.57123  0.77103  1.0000
  H   H1055     1.0  0.56452  0.64011  0.39865  1.0000
  H   H1056     1.0  0.52604  0.59871  0.46881  1.0000
  Fe  Fe114     1.0  0.49738  0.60736  0.95068  1.0000
  H   H1057     1.0  0.52079  0.60240  0.03575  1.0000
  C   C881      1.0  0.47854  0.56860  0.79173  1.0000
  Fe  Fe115     1.0  0.51800  0.58439  0.95357  1.0000
  S   S230      1.0  0.51196  0.57615  0.89597  1.0000
  S   S231      1.0  0.52751  0.57068  0.99571  1.0000
  Fe  Fe116     1.0  0.51691  0.60383  0.88546  1.0000
  S   S232      1.0  0.52828  0.61930  0.83597  1.0000
  H   H1058     1.0  0.49039  0.53942  0.99526  1.0000
  S   S233      1.0  0.52546  0.61293  0.94249  1.0000
  S   S234      1.0  0.49026  0.57931  0.96483  1.0000
  Fe  Fe117     1.0  0.60291  0.51544  0.38099  1.0000
  H   H1059     1.0  0.64529  0.54009  0.14792  1.0000
  S   S235      1.0  0.61210  0.52944  0.32872  1.0000
  Fe  Fe118     1.0  0.58887  0.51951  0.45404  1.0000
  Fe  Fe119     1.0  0.48158  0.57936  0.57676  1.0000
  S   S236      1.0  0.58114  0.53529  0.49498  1.0000
  H   H1060     1.0  0.51486  0.66194  0.46972  1.0000
  H   H1061     1.0  0.48575  0.57220  0.81778  1.0000
  H   H1062     1.0  0.56999  0.49778  0.31283  1.0000
  S   S237      1.0  0.61592  0.52499  0.43522  1.0000
  N   N59       1.0  0.54791  0.50180  0.96213  1.0000
  Fe  Fe120     1.0  0.51002  0.61483  0.55870  1.0000
  S   S238      1.0  0.53125  0.60679  0.57615  1.0000
  S   S239      1.0  0.51490  0.63914  0.52559  1.0000
  H   H1063     1.0  0.66032  0.51045  0.45921  1.0000
  S   S240      1.0  0.50015  0.56849  0.59327  1.0000
  Fe  Fe121     1.0  0.51419  0.59422  0.62289  1.0000
  S   S241      1.0  0.51993  0.58729  0.67860  1.0000
  Fe  Fe122     1.0  0.51593  0.58144  0.54620  1.0000
  S   S242      1.0  0.52602  0.56853  0.50341  1.0000
  S   S243      1.0  0.49462  0.60445  0.60804  1.0000
  S   S244      1.0  0.49558  0.58998  0.52678  1.0000
  C   C882      1.0  0.56635  0.54524  0.49609  1.0000
  C   C883      1.0  0.55681  0.54611  0.46613  1.0000
  C   C884      1.0  0.54471  0.55339  0.46893  1.0000
  C   C885      1.0  0.54192  0.55997  0.50158  1.0000
  C   C886      1.0  0.55159  0.55929  0.53141  1.0000
  C   C887      1.0  0.56368  0.55200  0.52863  1.0000
  H   H1064     1.0  0.55870  0.54110  0.44084  1.0000
  H   H1065     1.0  0.53737  0.55383  0.44559  1.0000
  H   H1066     1.0  0.54973  0.56430  0.55673  1.0000
  H   H1067     1.0  0.57097  0.55150  0.55203  1.0000
  C   C888      1.0  0.52556  0.61020  0.79232  1.0000
  C   C889      1.0  0.52559  0.62033  0.76310  1.0000
  C   C890      1.0  0.52350  0.61348  0.72807  1.0000
  C   C891      1.0  0.52204  0.59664  0.72189  1.0000
  C   C892      1.0  0.52238  0.58668  0.75109  1.0000
  C   C893      1.0  0.52381  0.59327  0.78610  1.0000
  H   H1068     1.0  0.52716  0.63353  0.76760  1.0000
  H   H1069     1.0  0.52347  0.62139  0.70589  1.0000
  H   H1070     1.0  0.52166  0.57379  0.74664  1.0000
  H   H1071     1.0  0.52413  0.58546  0.80823  1.0000
  S   S245      1.0  0.70216  0.49070  0.51207  1.0000
  C   C894      1.0  0.60430  0.52172  0.22153  1.0000
  C   C895      1.0  0.60902  0.52948  0.25579  1.0000
  C   C896      1.0  0.60642  0.51921  0.28601  1.0000
  S   S246      1.0  0.48942  0.59975  0.89345  1.0000
  H   H1072     1.0  0.57134  0.52599  0.96317  1.0000
  C   C897      1.0  0.67592  0.54340  0.24424  1.0000
  C   C898      1.0  0.50941  0.52123  0.94164  1.0000
  C   C899      1.0  0.53947  0.52574  0.94239  1.0000
  Fe  Fe123     1.0  0.59268  0.50134  0.11781  1.0000
  C   C900      1.0  0.57051  0.55168  0.01732  1.0000
  C   C901      1.0  0.55522  0.54550  0.03670  1.0000
  C   C902      1.0  0.54225  0.55134  0.02941  1.0000
  C   C903      1.0  0.54415  0.56328  0.00239  1.0000
  C   C904      1.0  0.55931  0.56924  0.98263  1.0000
  C   C905      1.0  0.57241  0.56361  0.99029  1.0000
  H   H1073     1.0  0.55356  0.53657  0.05794  1.0000
  H   H1074     1.0  0.53068  0.54666  0.04508  1.0000
  H   H1075     1.0  0.56114  0.57849  0.96194  1.0000
  H   H1076     1.0  0.58418  0.56865  0.97522  1.0000
  N   N60       1.0  0.52683  0.62858  0.05512  1.0000
  C   C906      1.0  0.53953  0.62790  0.08176  1.0000
  Fe  Fe124     1.0  0.48486  0.57258  0.90691  1.0000
  S   S247      1.0  0.59717  0.50511  0.01536  1.0000
  H   H1077     1.0  0.55350  0.51328  0.01464  1.0000
  H   H1078     1.0  0.70192  0.48933  0.58867  1.0000
  C   C907      1.0  0.59960  0.50112  0.28148  1.0000
  C   C908      1.0  0.47945  0.59730  0.78861  1.0000
  H   H1079     1.0  0.53836  0.64564  0.46818  1.0000
  C   C909      1.0  0.67361  0.50200  0.03039  1.0000
  H   H1080     1.0  0.52695  0.63734  0.00202  1.0000
  H   H1081     1.0  0.54545  0.61917  0.07264  1.0000
  H   H1082     1.0  0.53313  0.62291  0.10734  1.0000
  H   H1083     1.0  0.48605  0.60129  0.81517  1.0000
  H   H1084     1.0  0.54680  0.64941  0.02675  1.0000
  H   H1085     1.0  0.54211  0.62806  0.01048  1.0000
  C   C910      1.0  0.67834  0.50112  0.48157  1.0000
  H   H1086     1.0  0.54337  0.50858  0.46434  1.0000
  H   H1087     1.0  0.58149  0.62964  0.36253  1.0000
  H   H1088     1.0  0.68047  0.51153  0.05114  1.0000
  H   H1089     1.0  0.61451  0.54351  0.25898  1.0000
  C   C911      1.0  0.52159  0.66835  0.08956  1.0000
  H   H1090     1.0  0.69105  0.50928  0.57679  1.0000
  H   H1091     1.0  0.55187  0.59552  0.46633  1.0000
  C   C912      1.0  0.66579  0.51352  0.14583  1.0000
  S   S248      1.0  0.64512  0.50760  0.04981  1.0000
  C   C913      1.0  0.49189  0.67972  0.51546  1.0000
  H   H1092     1.0  0.54842  0.49038  0.46010  1.0000
  C   C914      1.0  0.49553  0.65682  0.54925  1.0000
  C   C915      1.0  0.50498  0.65395  0.52189  1.0000
  C   C916      1.0  0.50752  0.66388  0.49107  1.0000
  C   C917      1.0  0.50087  0.67648  0.48765  1.0000
  C   C918      1.0  0.67247  0.53819  0.20849  1.0000
  H   H1093     1.0  0.69643  0.49846  0.01574  1.0000
  H   H1094     1.0  0.48547  0.51718  0.04046  1.0000
  H   H1095     1.0  0.52968  0.68207  0.09513  1.0000
  C   C919      1.0  0.48925  0.66972  0.54619  1.0000
  C   C920      1.0  0.49206  0.67853  0.01660  1.0000
  C   C921      1.0  0.50586  0.67619  0.00091  1.0000
  C   C922      1.0  0.50404  0.65949  0.98957  1.0000
  Fe  Fe125     1.0  0.60941  0.49662  0.44498  1.0000
  H   H1096     1.0  0.49977  0.52612  0.93658  1.0000
  Fe  Fe126     1.0  0.61698  0.50480  0.05546  1.0000
  H   H1097     1.0  0.51813  0.68741  0.99762  1.0000
  H   H1098     1.0  0.51485  0.65809  0.97777  1.0000
  N   N61       1.0  0.54699  0.49081  0.27974  1.0000
  H   H1099     1.0  0.67250  0.51956  0.54521  1.0000
  C   C923      1.0  0.53610  0.63619  0.02225  1.0000
  H   H1100     1.0  0.55959  0.65226  0.45111  1.0000
  C   C924      1.0  0.64766  0.52152  0.25920  1.0000
  C   C925      1.0  0.52904  0.65744  0.07808  1.0000
  H   H1101     1.0  0.60600  0.52976  0.19865  1.0000
  H   H1102     1.0  0.54552  0.63184  0.51488  1.0000
  S   S249      1.0  0.57684  0.51233  0.39957  1.0000
  S   S250      1.0  0.59786  0.48762  0.38959  1.0000
  H   H1103     1.0  0.58412  0.60259  0.37725  1.0000
  H   H1104     1.0  0.50316  0.68405  0.46392  1.0000
  H   H1105     1.0  0.54946  0.51125  0.52818  1.0000
  H   H1106     1.0  0.55086  0.61397  0.50834  1.0000
  H   H1107     1.0  0.66319  0.50913  0.11742  1.0000
  H   H1108     1.0  0.54794  0.50039  0.22663  1.0000
  H   H1109     1.0  0.55555  0.51702  0.26061  1.0000
  H   H1110     1.0  0.56663  0.63564  0.49921  1.0000
  H   H1111     1.0  0.52231  0.60895  0.43044  1.0000
  C   C926      1.0  0.55514  0.50419  0.25258  1.0000
  C   C927      1.0  0.50041  0.63330  0.07316  1.0000
  S   S251      1.0  0.58318  0.49181  0.46749  1.0000
  H   H1112     1.0  0.67929  0.52396  0.14743  1.0000
  H   H1113     1.0  0.51909  0.61558  0.47414  1.0000
  H   H1114     1.0  0.55937  0.49568  0.00782  1.0000
  S   S252      1.0  0.58916  0.49278  0.17558  1.0000
  S   S253      1.0  0.57087  0.50110  0.08248  1.0000
  C   C928      1.0  0.53773  0.49415  0.46600  1.0000
  Fe  Fe127     1.0  0.47799  0.71201  0.05572  1.0000
  C   C929      1.0  0.68051  0.48775  0.49968  1.0000
  H   H1115     1.0  0.48343  0.58485  0.72087  1.0000
  C   C930      1.0  0.50366  0.66182  0.09285  1.0000
  C   C931      1.0  0.65635  0.52453  0.19694  1.0000
  H   H1116     1.0  0.70522  0.50455  0.62518  1.0000
  C   C932      1.0  0.64883  0.50113  0.56726  1.0000
  C   C933      1.0  0.66350  0.53513  0.26951  1.0000
  H   H1117     1.0  0.63144  0.50568  0.21755  1.0000
  H   H1118     1.0  0.50702  0.60356  0.07000  1.0000
  H   H1119     1.0  0.54032  0.64086  0.42288  1.0000
  S   S254      1.0  0.48558  0.62289  0.98320  1.0000
  C   C934      1.0  0.48241  0.54149  0.70882  1.0000
  H   H1120     1.0  0.63312  0.50192  0.12223  1.0000
  C   C935      1.0  0.65440  0.53483  0.13817  1.0000
  H   H1121     1.0  0.49203  0.71046  0.27071  1.0000
  C   C936      1.0  0.48571  0.71890  0.26581  1.0000
  H   H1122     1.0  0.66772  0.54559  0.13946  1.0000
  H   H1123     1.0  0.66607  0.53927  0.29719  1.0000
  C   C937      1.0  0.57642  0.60708  0.39356  1.0000
  C   C938      1.0  0.56803  0.59761  0.42281  1.0000
  C   C939      1.0  0.48260  0.72233  0.23046  1.0000
  H   H1124     1.0  0.49756  0.73341  0.92404  1.0000
  C   C940      1.0  0.59499  0.49339  0.24732  1.0000
  H   H1125     1.0  0.68825  0.55398  0.25242  1.0000
  H   H1126     1.0  0.56887  0.50656  0.24851  1.0000
  H   H1127     1.0  0.53872  0.49299  0.55600  1.0000
  S   S255      1.0  0.48434  0.69647  0.51417  1.0000
  N   N62       1.0  0.65290  0.51954  0.15880  1.0000
  H   H1128     1.0  0.65128  0.53140  0.10945  1.0000
  H   H1129     1.0  0.63803  0.51518  0.27905  1.0000
  H   H1130     1.0  0.68974  0.51263  0.47456  1.0000
  H   H1131     1.0  0.49360  0.64955  0.57334  1.0000
  N   N63       1.0  0.54594  0.62466  0.45983  1.0000
  C   C941      1.0  0.55255  0.62660  0.49707  1.0000
  C   C942      1.0  0.54616  0.64160  0.44981  1.0000
  C   C943      1.0  0.52758  0.61140  0.45818  1.0000
  C   C944      1.0  0.55647  0.61891  0.43674  1.0000
  C   C945      1.0  0.56511  0.62822  0.40651  1.0000
  C   C946      1.0  0.55817  0.60337  0.44403  1.0000
  C   C947      1.0  0.57493  0.62232  0.38537  1.0000
  C   C948      1.0  0.50407  0.51442  0.51279  1.0000
  H   H1132     1.0  0.57484  0.50733  0.95374  1.0000
  C   C949      1.0  0.67734  0.50296  0.58221  1.0000
  C   C950      1.0  0.55692  0.49769  0.31364  1.0000
  H   H1133     1.0  0.66543  0.50236  0.16141  1.0000
  H   H1134     1.0  0.48257  0.67218  0.56816  1.0000
  H   H1135     1.0  0.62496  0.50927  0.15897  1.0000
  H   H1136     1.0  0.55896  0.51128  0.31994  1.0000
  C   C951      1.0  0.48836  0.64468  0.99403  1.0000
  C   C952      1.0  0.52686  0.53185  0.93602  1.0000
  C   C953      1.0  0.49314  0.64430  0.08508  1.0000
  C   C954      1.0  0.64405  0.51622  0.22353  1.0000
  C   C955      1.0  0.56548  0.51309  0.94903  1.0000
  C   C956      1.0  0.65579  0.49739  0.02369  1.0000
  C   C957      1.0  0.51793  0.50996  0.50852  1.0000
  C   C958      1.0  0.50447  0.50450  0.95431  1.0000
  H   H1137     1.0  0.68292  0.49692  0.67204  1.0000
  S   S256      1.0  0.48614  0.72228  0.33877  1.0000
  H   H1138     1.0  0.68249  0.54504  0.18987  1.0000
  C   C959      1.0  0.48716  0.50146  0.51473  1.0000
  C   C960      1.0  0.66678  0.50906  0.56367  1.0000
  H   H1139     1.0  0.53074  0.52049  0.50670  1.0000
  H   H1140     1.0  0.50652  0.52807  0.51443  1.0000
  H   H1141     1.0  0.49135  0.62012  0.06595  1.0000
  Fe  Fe128     1.0  0.47907  0.71341  0.47222  1.0000
  H   H1142     1.0  0.55527  0.49371  0.52598  1.0000
  H   H1143     1.0  0.55277  0.53486  0.93822  1.0000
  C   C961      1.0  0.68276  0.49460  0.01024  1.0000
  C   C962      1.0  0.51698  0.49827  0.96095  1.0000
  H   H1144     1.0  0.49089  0.49641  0.95934  1.0000
  C   C963      1.0  0.48091  0.72638  0.29478  1.0000
  H   H1145     1.0  0.56508  0.51519  0.92006  1.0000
  N   N64       1.0  0.53026  0.48803  0.50113  1.0000
  H   H1146     1.0  0.52857  0.50137  0.29032  1.0000
  C   C964      1.0  0.67010  0.48873  0.60550  1.0000
  C   C965      1.0  0.47835  0.52753  0.99468  1.0000
  C   C966      1.0  0.69958  0.49049  0.61734  1.0000
  C   C967      1.0  0.63531  0.50535  0.15107  1.0000
  C   C968      1.0  0.54946  0.50043  0.00095  1.0000
  Fe  Fe129     1.0  0.47714  0.72473  0.39484  1.0000
  H   H1147     1.0  0.49785  0.67045  0.10050  1.0000
  H   H1148     1.0  0.64067  0.50545  0.55158  1.0000
  H   H1149     1.0  0.53709  0.49116  0.01253  1.0000
  H   H1150     1.0  0.48649  0.71656  0.20859  1.0000
  H   H1151     1.0  0.49463  0.55069  0.72091  1.0000
  C   C969      1.0  0.47693  0.54520  0.67641  1.0000
  H   H1152     1.0  0.55030  0.48986  0.33673  1.0000
  C   C970      1.0  0.51532  0.49231  0.50631  1.0000
  H   H1153     1.0  0.50924  0.72498  0.95136  1.0000
  C   C971      1.0  0.64133  0.48730  0.59009  1.0000
  H   H1154     1.0  0.48489  0.55736  0.66383  1.0000
  C   C972      1.0  0.52893  0.48868  0.28416  1.0000
  Fe  Fe130     1.0  0.57258  0.48509  0.41171  1.0000
  C   C973      1.0  0.64660  0.48534  0.48215  1.0000
  H   H1155     1.0  0.52773  0.48844  0.44431  1.0000
  H   H1156     1.0  0.49849  0.73374  0.00195  1.0000
  H   H1157     1.0  0.51260  0.48541  0.97169  1.0000
  H   H1158     1.0  0.56414  0.94689  0.67629  1.0000
  C   C974      1.0  0.57039  0.94206  0.61052  1.0000
  C   C975      1.0  0.55973  0.97000  0.90397  1.0000
  H   H1159     1.0  0.52223  0.78339  0.99669  1.0000
  C   C976      1.0  0.48471  0.83564  0.63493  1.0000
  H   H1160     1.0  0.58917  0.97555  0.86898  1.0000
  H   H1161     1.0  0.48533  0.82323  0.94978  1.0000
  S   S257      1.0  0.49719  0.89040  0.97469  1.0000
  Fe  Fe131     1.0  0.51844  0.89151  0.88353  1.0000
  S   S258      1.0  0.53347  0.89686  0.93602  1.0000
  S   S259      1.0  0.53105  0.89165  0.83023  1.0000
  Fe  Fe132     1.0  0.51013  0.87342  0.95626  1.0000
  S   S260      1.0  0.51158  0.85239  0.99327  1.0000
  Fe  Fe133     1.0  0.51951  0.91340  0.95084  1.0000
  S   S261      1.0  0.52962  0.94197  0.97280  1.0000
  S   S262      1.0  0.49652  0.86722  0.90292  1.0000
  S   S263      1.0  0.50583  0.90907  0.89705  1.0000
  Fe  Fe134     1.0  0.48819  0.89228  0.55159  1.0000
  S   S264      1.0  0.50854  0.89054  0.51678  1.0000
  Fe  Fe135     1.0  0.51105  0.90053  0.61894  1.0000
  S   S265      1.0  0.53307  0.89931  0.58848  1.0000
  S   S266      1.0  0.51032  0.90912  0.67674  1.0000
  Fe  Fe136     1.0  0.52698  0.91497  0.54663  1.0000
  S   S267      1.0  0.54824  0.93794  0.51796  1.0000
  Fe  Fe137     1.0  0.51250  0.87494  0.56084  1.0000
  S   S268      1.0  0.51559  0.84919  0.55535  1.0000
  S   S269      1.0  0.50613  0.91741  0.57849  1.0000
  S   S270      1.0  0.49101  0.87554  0.59422  1.0000
  C   C977      1.0  0.55160  0.95956  0.50634  1.0000
  C   C978      1.0  0.56465  0.96880  0.48220  1.0000
  H   H1162     1.0  0.56174  0.94365  0.93546  1.0000
  H   H1163     1.0  0.50977  0.75835  0.89186  1.0000
  C   C979      1.0  0.54241  0.96810  0.52170  1.0000
  H   H1164     1.0  0.57189  0.96244  0.47010  1.0000
  H   H1165     1.0  0.56470  0.93003  0.62637  1.0000
  H   H1166     1.0  0.53240  0.96132  0.54040  1.0000
  C   C980      1.0  0.52351  0.89465  0.78753  1.0000
  C   C981      1.0  0.53076  0.89099  0.75697  1.0000
  C   C982      1.0  0.52625  0.89452  0.72273  1.0000
  C   C983      1.0  0.51463  0.90206  0.71861  1.0000
  C   C984      1.0  0.50723  0.90553  0.74913  1.0000
  C   C985      1.0  0.51148  0.90169  0.78331  1.0000
  H   H1167     1.0  0.54011  0.88559  0.75988  1.0000
  H   H1168     1.0  0.53218  0.89188  0.69967  1.0000
  H   H1169     1.0  0.49836  0.91151  0.74641  1.0000
  H   H1170     1.0  0.50591  0.90474  0.80648  1.0000
  H   H1171     1.0  0.58812  0.95431  0.87702  1.0000
  C   C986      1.0  0.56325  0.96344  0.00055  1.0000
  C   C987      1.0  0.54665  0.96190  0.99094  1.0000
  C   C988      1.0  0.54366  0.97695  0.99408  1.0000
  H   H1172     1.0  0.53941  0.95569  0.62980  1.0000
  C   C989      1.0  0.51610  0.76808  0.94704  1.0000
  H   H1173     1.0  0.56588  0.95210  0.99894  1.0000
  H   H1174     1.0  0.53097  0.97610  0.98684  1.0000
  C   C990      1.0  0.50555  0.82923  0.52955  1.0000
  C   C991      1.0  0.50995  0.81541  0.53727  1.0000
  C   C992      1.0  0.50212  0.79922  0.51842  1.0000
  C   C993      1.0  0.48973  0.79655  0.49128  1.0000
  H   H1175     1.0  0.56125  0.93079  0.89713  1.0000
  C   C994      1.0  0.48590  0.79204  0.00633  1.0000
  H   H1176     1.0  0.51951  0.81721  0.55810  1.0000
  H   H1177     1.0  0.50574  0.78885  0.52484  1.0000
  H   H1178     1.0  0.50231  0.79781  0.05324  1.0000
  C   C995      1.0  0.58351  0.96404  0.88623  1.0000
  C   C996      1.0  0.55713  0.95240  0.84922  1.0000
  H   H1179     1.0  0.53446  0.78441  0.38195  1.0000
  C   C997      1.0  0.56111  0.94076  0.82789  1.0000
  H   H1180     1.0  0.58636  0.96384  0.56344  1.0000
  H   H1181     1.0  0.56900  0.93466  0.83819  1.0000
  C   C998      1.0  0.49852  0.80322  0.03068  1.0000
  C   C999      1.0  0.50629  0.82149  0.02593  1.0000
  C   C1000     1.0  0.50161  0.82903  0.99690  1.0000
  C   C1001     1.0  0.48906  0.81783  0.97243  1.0000
  H   H1182     1.0  0.54285  0.93490  0.90677  1.0000
  H   H1183     1.0  0.55713  0.92672  0.77806  1.0000
  H   H1184     1.0  0.51595  0.82990  0.04511  1.0000
  C   C1002     1.0  0.48134  0.79955  0.97711  1.0000
  C   C1003     1.0  0.51961  0.83452  0.37686  1.0000
  H   H1185     1.0  0.48959  0.83696  0.49585  1.0000
  C   C1004     1.0  0.56922  0.95905  0.66072  1.0000
  H   H1186     1.0  0.48388  0.93345  0.51646  1.0000
  C   C1005     1.0  0.51035  0.73700  0.93782  1.0000
  H   H1187     1.0  0.48230  0.77297  0.34952  1.0000
  H   H1188     1.0  0.51867  0.81136  0.90652  1.0000
  C   C1006     1.0  0.58304  0.97399  0.57327  1.0000
  H   H1189     1.0  0.47915  0.83931  0.04075  1.0000
  H   H1190     1.0  0.48758  0.75563  0.36354  1.0000
  H   H1191     1.0  0.53770  0.93862  0.75259  1.0000
  H   H1192     1.0  0.54122  0.94506  0.58983  1.0000
  H   H1193     1.0  0.52988  0.95864  0.78850  1.0000
  H   H1194     1.0  0.51837  0.76207  0.38056  1.0000
  N   N65       1.0  0.50952  0.78058  0.36011  1.0000
  C   C1007     1.0  0.51334  0.79918  0.36533  1.0000
  H   H1195     1.0  0.52651  0.78364  0.31634  1.0000
  C   C1008     1.0  0.52118  0.82858  0.34307  1.0000
  C   C1009     1.0  0.54563  0.95876  0.83400  1.0000
  N   N66       1.0  0.56425  0.95687  0.88599  1.0000
  C   C1010     1.0  0.49098  0.76973  0.36735  1.0000
  C   C1011     1.0  0.54331  0.94271  0.77904  1.0000
  C   C1012     1.0  0.47688  0.94101  0.52407  1.0000
  C   C1013     1.0  0.55437  0.93611  0.79331  1.0000
  H   H1196     1.0  0.58477  0.94711  0.61299  1.0000
  C   C1014     1.0  0.57655  0.97971  0.01235  1.0000
  H   H1197     1.0  0.48771  0.77156  0.39502  1.0000
  C   C1015     1.0  0.51273  0.77595  0.32364  1.0000
  C   C1016     1.0  0.49316  0.82656  0.50239  1.0000
  C   C1017     1.0  0.51180  0.80571  0.39934  1.0000
  C   C1018     1.0  0.52039  0.77582  0.38501  1.0000
  C   C1019     1.0  0.53890  0.95395  0.79937  1.0000
  H   H1198     1.0  0.48273  0.84603  0.64986  1.0000
  C   C1020     1.0  0.53102  0.75473  0.98242  1.0000
  C   C1021     1.0  0.51809  0.81118  0.33717  1.0000
  Fe  Fe138     1.0  0.48490  0.88527  0.92003  1.0000
  H   H1199     1.0  0.51004  0.76191  0.32102  1.0000
  H   H1200     1.0  0.56609  0.97385  0.93073  1.0000
  C   C1022     1.0  0.51312  0.76926  0.91015  1.0000
  H   H1201     1.0  0.54548  0.96480  0.90843  1.0000
  C   C1023     1.0  0.55732  0.94089  0.90718  1.0000
  C   C1024     1.0  0.51815  0.79945  0.91754  1.0000
  N   N67       1.0  0.56443  0.95529  0.62249  1.0000
  H   H1202     1.0  0.51724  0.77678  0.41323  1.0000
  H   H1203     1.0  0.58923  0.96826  0.91349  1.0000
  H   H1204     1.0  0.49278  0.84189  0.61185  1.0000
  C   C1025     1.0  0.51411  0.78475  0.89582  1.0000
  H   H1205     1.0  0.56410  0.98223  0.88888  1.0000
  H   H1206     1.0  0.47791  0.81453  0.07409  1.0000
  H   H1207     1.0  0.52195  0.84799  0.38132  1.0000
  C   C1026     1.0  0.57193  0.97163  0.60242  1.0000
  C   C1027     1.0  0.51493  0.82310  0.40494  1.0000
  H   H1208     1.0  0.51358  0.82768  0.43124  1.0000
  H   H1209     1.0  0.50793  0.79735  0.42195  1.0000
  H   H1210     1.0  0.51940  0.80743  0.31032  1.0000
  C   C1028     1.0  0.52024  0.78335  0.96831  1.0000
  H   H1211     1.0  0.52418  0.81017  0.97056  1.0000
  H   H1212     1.0  0.53902  0.93461  0.63180  1.0000
  C   C1029     1.0  0.52131  0.79877  0.95365  1.0000
  H   H1213     1.0  0.58928  0.98062  0.01948  1.0000
  H   H1214     1.0  0.56627  0.93778  0.58245  1.0000
  C   C1030     1.0  0.54522  0.94735  0.61839  1.0000
  H   H1215     1.0  0.50402  0.77789  0.30356  1.0000
  H   H1216     1.0  0.58361  0.96563  0.66477  1.0000
  H   H1217     1.0  0.48228  0.98282  0.53233  1.0000
  H   H1218     1.0  0.51156  0.78534  0.86774  1.0000
  S   S271      1.0  0.49535  0.73783  0.44182  1.0000
  H   H1219     1.0  0.48788  0.74436  0.97646  1.0000
  C   C1031     1.0  0.48538  0.81040  0.48346  1.0000
  H   H1220     1.0  0.54135  0.96717  0.84855  1.0000
  H   H1221     1.0  0.52473  0.83752  0.32126  1.0000
  S   S272      1.0  0.49101  0.73952  0.08008  1.0000
  N   N68       1.0  0.51453  0.75177  0.96351  1.0000
  H   H1222     1.0  0.52062  0.74005  0.91778  1.0000
  H   H1223     1.0  0.54212  0.75952  0.96406  1.0000
  C   C1032     1.0  0.50043  0.74622  0.98943  1.0000
  H   H1224     1.0  0.50309  0.75598  0.01132  1.0000
  H   H1225     1.0  0.49272  0.83116  0.65197  1.0000
  H   H1226     1.0  0.53423  0.76441  0.00467  1.0000
  C   C1033     1.0  0.48502  0.95913  0.52336  1.0000
  H   H1227     1.0  0.49841  0.96570  0.51525  1.0000
  H   H1228     1.0  0.47809  0.80183  0.61989  1.0000
  S   S273      1.0  0.47951  0.77648  0.46587  1.0000
  H   H1229     1.0  0.56378  0.96756  0.67283  1.0000
  H   H1230     1.0  0.53029  0.74252  0.99444  1.0000
  H   H1231     1.0  0.48007  0.81368  0.58082  1.0000
  H   H1232     1.0  0.55913  0.98472  0.63256  1.0000
  S   S274      1.0  0.73934  0.21024  0.90859  1.0000
  C   C1034     1.0  0.73371  0.21939  0.69521  1.0000
  H   H1233     1.0  0.78768  0.22630  0.62627  1.0000
  S   S275      1.0  0.73590  0.21029  0.54566  1.0000
  H   H1234     1.0  0.77130  0.21512  0.57363  1.0000
  C   C1035     1.0  0.73999  0.22267  0.75969  1.0000
  H   H1235     1.0  0.79019  0.21717  0.55028  1.0000
  C   C1036     1.0  0.78229  0.22420  0.55777  1.0000
  S   S276      1.0  0.74174  0.22374  0.65097  1.0000
  C   C1037     1.0  0.74554  0.22609  0.72428  1.0000
  Fe  Fe139     1.0  0.72984  0.22239  0.59471  1.0000
  H   H1236     1.0  0.80810  0.23014  0.60649  1.0000
  H   H1237     1.0  0.77626  0.22663  0.53325  1.0000
  H   H1238     1.0  0.74934  0.22782  0.78151  1.0000
  H   H1239     1.0  0.75915  0.23389  0.71940  1.0000
  Fe  Fe140     1.0  0.87563  0.37221  0.39811  1.0000
  S   S277      1.0  0.88041  0.36294  0.45051  1.0000
  S   S278      1.0  0.86663  0.39314  0.38753  1.0000
  Fe  Fe141     1.0  0.88091  0.34420  0.35681  1.0000
  S   S279      1.0  0.88639  0.33269  0.40728  1.0000
  S   S280      1.0  0.87414  0.33300  0.29971  1.0000
  Fe  Fe142     1.0  0.86319  0.33549  0.43038  1.0000
  S   S281      1.0  0.84197  0.31838  0.46973  1.0000
  Fe  Fe143     1.0  0.90332  0.36095  0.42457  1.0000
  S   S282      1.0  0.92857  0.37382  0.46013  1.0000
  S   S283      1.0  0.85715  0.34539  0.37950  1.0000
  S   S284      1.0  0.89910  0.37188  0.37278  1.0000
  Fe  Fe144     1.0  0.89594  0.35507  0.09032  1.0000
  S   S285      1.0  0.89878  0.33636  0.05061  1.0000
  S   S286      1.0  0.90644  0.35858  0.14774  1.0000
  Fe  Fe145     1.0  0.88303  0.37144  0.03247  1.0000
  S   S287      1.0  0.88464  0.35363  0.98952  1.0000
  S   S288      1.0  0.87415  0.39162  0.01476  1.0000
  Fe  Fe146     1.0  0.87208  0.33222  0.02871  1.0000
  S   S289      1.0  0.84960  0.30422  0.02110  1.0000
  Fe  Fe147     1.0  0.91099  0.35950  0.01477  1.0000
  S   S290      1.0  0.93491  0.36645  0.97901  1.0000
  S   S291      1.0  0.86907  0.35001  0.07050  1.0000
  S   S292      1.0  0.90962  0.37820  0.05568  1.0000
  S   S293      1.0  0.74642  0.45560  0.91363  1.0000
  C   C1038     1.0  0.95202  0.44772  0.42182  1.0000
  S   S294      1.0  0.77410  0.26154  0.94270  1.0000
  C   C1039     1.0  0.97222  0.43606  0.43983  1.0000
  C   C1040     1.0  0.96386  0.39772  0.99912  1.0000
  H   H1240     1.0  0.79784  0.44565  0.53684  1.0000
  S   S295      1.0  0.90480  0.46439  0.09726  1.0000
  S   S296      1.0  0.90882  0.46852  0.45567  1.0000
  C   C1041     1.0  0.76537  0.30789  0.98829  1.0000
  C   C1042     1.0  0.96238  0.38465  0.43383  1.0000
  C   C1043     1.0  0.78142  0.24920  0.58610  1.0000
  C   C1044     1.0  0.80807  0.25288  0.55813  1.0000
  C   C1045     1.0  0.83428  0.28067  0.55627  1.0000
  H   H1241     1.0  0.76647  0.40967  0.47642  1.0000
  C   C1046     1.0  0.88243  0.41171  0.03820  1.0000
  C   C1047     1.0  0.89335  0.41467  0.06807  1.0000
  C   C1048     1.0  0.90013  0.43092  0.08591  1.0000
  C   C1049     1.0  0.89606  0.44430  0.07394  1.0000
  C   C1050     1.0  0.88513  0.44137  0.04410  1.0000
  C   C1051     1.0  0.87833  0.42508  0.02626  1.0000
  H   H1242     1.0  0.89663  0.40446  0.07734  1.0000
  H   H1243     1.0  0.90864  0.43317  0.10895  1.0000
  H   H1244     1.0  0.88192  0.45164  0.03479  1.0000
  H   H1245     1.0  0.86988  0.42285  0.00313  1.0000
  C   C1052     1.0  0.82850  0.29286  0.99925  1.0000
  C   C1053     1.0  0.82181  0.30063  0.97428  1.0000
  C   C1054     1.0  0.80536  0.29088  0.95723  1.0000
  C   C1055     1.0  0.79503  0.27324  0.96504  1.0000
  C   C1056     1.0  0.80162  0.26557  0.99034  1.0000
  C   C1057     1.0  0.81818  0.27523  0.00699  1.0000
  H   H1246     1.0  0.82949  0.31407  0.96759  1.0000
  H   H1247     1.0  0.80075  0.29708  0.93747  1.0000
  H   H1248     1.0  0.79406  0.25207  0.99678  1.0000
  H   H1249     1.0  0.82307  0.26890  0.02596  1.0000
  C   C1058     1.0  0.96608  0.38378  0.94458  1.0000
  C   C1059     1.0  0.95629  0.38392  0.97430  1.0000
  H   H1250     1.0  0.96050  0.37323  0.92512  1.0000
  H   H1251     1.0  0.95674  0.39806  0.02234  1.0000
  C   C1060     1.0  0.82097  0.29985  0.47224  1.0000
  C   C1061     1.0  0.81116  0.29768  0.50313  1.0000
  C   C1062     1.0  0.79509  0.28288  0.50746  1.0000
  C   C1063     1.0  0.78856  0.26961  0.48123  1.0000
  C   C1064     1.0  0.79832  0.27181  0.45027  1.0000
  C   C1065     1.0  0.81422  0.28679  0.44564  1.0000
  H   H1252     1.0  0.81611  0.30754  0.52407  1.0000
  H   H1253     1.0  0.78791  0.28166  0.53138  1.0000
  H   H1254     1.0  0.79358  0.26176  0.42967  1.0000
  H   H1255     1.0  0.82147  0.28801  0.42179  1.0000
  C   C1066     1.0  0.88316  0.34150  0.25810  1.0000
  C   C1067     1.0  0.87232  0.33644  0.22740  1.0000
  C   C1068     1.0  0.87906  0.34195  0.19355  1.0000
  C   C1069     1.0  0.89686  0.35227  0.18986  1.0000
  C   C1070     1.0  0.90766  0.35751  0.22058  1.0000
  C   C1071     1.0  0.90085  0.35232  0.25452  1.0000
  H   H1256     1.0  0.85862  0.32802  0.22977  1.0000
  H   H1257     1.0  0.87054  0.33796  0.17033  1.0000
  H   H1258     1.0  0.92146  0.36548  0.21809  1.0000
  H   H1259     1.0  0.90941  0.35619  0.27776  1.0000
  C   C1072     1.0  0.95202  0.38384  0.46285  1.0000
  C   C1073     1.0  0.96054  0.39125  0.49552  1.0000
  H   H1260     1.0  0.95285  0.39064  0.51837  1.0000
  C   C1074     1.0  0.87899  0.41428  0.40493  1.0000
  C   C1075     1.0  0.89450  0.41843  0.42410  1.0000
  C   C1076     1.0  0.90359  0.43519  0.43934  1.0000
  C   C1077     1.0  0.89745  0.44794  0.43485  1.0000
  C   C1078     1.0  0.88222  0.44392  0.41474  1.0000
  C   C1079     1.0  0.87297  0.42709  0.39991  1.0000
  H   H1261     1.0  0.89932  0.40866  0.42763  1.0000
  H   H1262     1.0  0.91538  0.43828  0.45478  1.0000
  H   H1263     1.0  0.87734  0.45364  0.41133  1.0000
  H   H1264     1.0  0.86096  0.42391  0.38509  1.0000
  H   H1265     1.0  0.95621  0.37903  0.40852  1.0000
  H   H1266     1.0  0.77887  0.46323  0.62011  1.0000
  C   C1080     1.0  0.73269  0.31023  0.98715  1.0000
  C   C1081     1.0  0.74408  0.41805  0.06322  1.0000
  C   C1082     1.0  0.95546  0.43349  0.42926  1.0000
  H   H1267     1.0  0.87759  0.44850  0.14635  1.0000
  C   C1083     1.0  0.88774  0.45077  0.28771  1.0000
  Fe  Fe148     1.0  0.74442  0.23688  0.52099  1.0000
  C   C1084     1.0  0.73426  0.47290  0.78152  1.0000
  H   H1268     1.0  0.79695  0.46598  0.64911  1.0000
  N   N69       1.0  0.79291  0.24068  0.57779  1.0000
  C   C1085     1.0  0.77465  0.47112  0.69013  1.0000
  H   H1269     1.0  0.75587  0.27411  0.98605  1.0000
  H   H1270     1.0  0.91648  0.46366  0.53439  1.0000
  H   H1271     1.0  0.73910  0.39088  0.99166  1.0000
  H   H1272     1.0  0.96237  0.47559  0.42015  1.0000
  S   S297      1.0  0.73147  0.24391  0.89038  1.0000
  H   H1273     1.0  0.82719  0.25932  0.47683  1.0000
  H   H1274     1.0  0.76088  0.30651  0.91520  1.0000
  C   C1086     1.0  0.73736  0.47864  0.71750  1.0000
  H   H1275     1.0  0.79277  0.47478  0.94752  1.0000
  H   H1276     1.0  0.74108  0.31593  0.01008  1.0000
  C   C1087     1.0  0.83696  0.27710  0.52136  1.0000
  S   S298      1.0  0.74290  0.47925  0.82598  1.0000
  H   H1277     1.0  0.76700  0.40962  0.97422  1.0000
  C   C1088     1.0  0.76226  0.44759  0.47430  1.0000
  C   C1089     1.0  0.76902  0.46339  0.75268  1.0000
  H   H1278     1.0  0.72891  0.27864  0.66645  1.0000
  C   C1090     1.0  0.86303  0.46421  0.18480  1.0000
  C   C1091     1.0  0.95142  0.44476  0.96097  1.0000
  H   H1279     1.0  0.86881  0.29978  0.25522  1.0000
  N   N70       1.0  0.92428  0.41666  0.96404  1.0000
  H   H1280     1.0  0.93365  0.40843  0.01007  1.0000
  H   H1281     1.0  0.89921  0.41743  0.96291  1.0000
  C   C1092     1.0  0.88168  0.46316  0.23347  1.0000
  C   C1093     1.0  0.91553  0.39878  0.94814  1.0000
  H   H1282     1.0  0.86069  0.46336  0.15552  1.0000
  H   H1283     1.0  0.74981  0.28300  0.91374  1.0000
  H   H1284     1.0  0.75092  0.42703  0.52927  1.0000
  H   H1285     1.0  0.88402  0.37199  0.29042  1.0000
  C   C1094     1.0  0.74959  0.44446  0.70717  1.0000
  H   H1286     1.0  0.74018  0.43405  0.98665  1.0000
  H   H1287     1.0  0.73668  0.26360  0.70750  1.0000
  H   H1288     1.0  0.83805  0.27826  0.25387  1.0000
  H   H1289     1.0  0.89290  0.44796  0.17808  1.0000
  H   H1290     1.0  0.88749  0.44038  0.23624  1.0000
  C   C1095     1.0  0.94207  0.42686  0.95114  1.0000
  C   C1096     1.0  0.79011  0.47295  0.63580  1.0000
  H   H1291     1.0  0.94521  0.40568  0.92249  1.0000
  C   C1097     1.0  0.81899  0.45441  0.50235  1.0000
  N   N71       1.0  0.87972  0.46354  0.19439  1.0000
  N   N72       1.0  0.75987  0.42677  0.00588  1.0000
  C   C1098     1.0  0.75353  0.44015  0.99876  1.0000
  C   C1099     1.0  0.77726  0.43532  0.02384  1.0000
  C   C1100     1.0  0.76211  0.41974  0.97099  1.0000
  H   H1292     1.0  0.86969  0.43578  0.18491  1.0000
  H   H1293     1.0  0.73773  0.43309  0.69966  1.0000
  H   H1294     1.0  0.92229  0.39063  0.95587  1.0000
  H   H1295     1.0  0.89101  0.44120  0.30053  1.0000
  C   C1101     1.0  0.92527  0.41504  0.00292  1.0000
  C   C1102     1.0  0.82543  0.26168  0.50448  1.0000
  C   C1103     1.0  0.95096  0.41931  0.93031  1.0000
  H   H1296     1.0  0.74105  0.25922  0.76998  1.0000
  H   H1297     1.0  0.77166  0.43012  0.95456  1.0000
  N   N73       1.0  0.87259  0.29634  0.13125  1.0000
  C   C1104     1.0  0.89126  0.30867  0.13564  1.0000
  C   C1105     1.0  0.87171  0.28058  0.11209  1.0000
  C   C1106     1.0  0.86409  0.30475  0.10877  1.0000
  C   C1107     1.0  0.86346  0.29140  0.16522  1.0000
  C   C1108     1.0  0.84570  0.27919  0.16547  1.0000
  C   C1109     1.0  0.87160  0.29863  0.19861  1.0000
  C   C1110     1.0  0.83670  0.27444  0.19712  1.0000
  C   C1111     1.0  0.86245  0.29382  0.23008  1.0000
  C   C1112     1.0  0.84506  0.28177  0.22935  1.0000
  H   H1298     1.0  0.89855  0.30314  0.15210  1.0000
  H   H1299     1.0  0.89782  0.31201  0.10972  1.0000
  H   H1300     1.0  0.89293  0.32128  0.14797  1.0000
  H   H1301     1.0  0.87711  0.27332  0.12886  1.0000
  H   H1302     1.0  0.87915  0.28400  0.08713  1.0000
  H   H1303     1.0  0.85820  0.27149  0.10382  1.0000
  H   H1304     1.0  0.86451  0.31673  0.12193  1.0000
  H   H1305     1.0  0.87056  0.30856  0.08294  1.0000
  H   H1306     1.0  0.85026  0.29602  0.10204  1.0000
  H   H1307     1.0  0.83858  0.27334  0.14108  1.0000
  H   H1308     1.0  0.88492  0.30832  0.20126  1.0000
  H   H1309     1.0  0.73504  0.26747  0.96427  1.0000
  H   H1310     1.0  0.76212  0.45007  0.98031  1.0000
  C   C1113     1.0  0.74497  0.27782  0.98154  1.0000
  C   C1114     1.0  0.77913  0.47468  0.72685  1.0000
  H   H1311     1.0  0.85185  0.45337  0.19685  1.0000
  H   H1312     1.0  0.83963  0.36256  0.25834  1.0000
  H   H1313     1.0  0.78603  0.44433  0.42381  1.0000
  H   H1314     1.0  0.74965  0.41410  0.95509  1.0000
  H   H1315     1.0  0.81721  0.45719  0.41304  1.0000
  H   H1316     1.0  0.97420  0.42460  0.44552  1.0000
  H   H1317     1.0  0.91686  0.43793  0.97164  1.0000
  C   C1115     1.0  0.96844  0.45454  0.95009  1.0000
  H   H1318     1.0  0.94634  0.47311  0.51356  1.0000
  S   S299      1.0  0.73959  0.24895  0.57050  1.0000
  H   H1319     1.0  0.87553  0.37976  0.32530  1.0000
  H   H1320     1.0  0.91323  0.42856  0.92738  1.0000
  N   N74       1.0  0.75097  0.29514  0.96547  1.0000
  H   H1321     1.0  0.82851  0.45784  0.52397  1.0000
  C   C1116     1.0  0.88565  0.45047  0.25072  1.0000
  H   H1322     1.0  0.94572  0.45125  0.97765  1.0000
  H   H1323     1.0  0.84761  0.28664  0.50686  1.0000
  H   H1324     1.0  0.77083  0.44526  0.54134  1.0000
  H   H1325     1.0  0.90197  0.39166  0.95748  1.0000
  C   C1117     1.0  0.80058  0.48030  0.97132  1.0000
  C   C1118     1.0  0.73187  0.40581  0.08488  1.0000
  C   C1119     1.0  0.89417  0.47934  0.18110  1.0000
  C   C1120     1.0  0.82467  0.45775  0.46771  1.0000
  H   H1326     1.0  0.95797  0.45141  0.50242  1.0000
  C   C1121     1.0  0.88229  0.47627  0.29228  1.0000
  H   H1327     1.0  0.74660  0.41227  0.47379  1.0000
  H   H1328     1.0  0.76452  0.45032  0.44571  1.0000
  C   C1122     1.0  0.88605  0.46364  0.30840  1.0000
  H   H1329     1.0  0.89119  0.39524  0.29739  1.0000
  H   H1330     1.0  0.82293  0.47729  0.95194  1.0000
  H   H1331     1.0  0.76803  0.46030  0.48905  1.0000
  H   H1332     1.0  0.73902  0.27762  0.00765  1.0000
  N   N75       1.0  0.90527  0.40474  0.53175  1.0000
  C   C1123     1.0  0.91157  0.39297  0.51376  1.0000
  C   C1124     1.0  0.90447  0.40129  0.57016  1.0000
  C   C1125     1.0  0.88734  0.40002  0.51763  1.0000
  C   C1126     1.0  0.91672  0.42342  0.52658  1.0000
  C   C1127     1.0  0.93420  0.42939  0.51547  1.0000
  C   C1128     1.0  0.91088  0.43638  0.53458  1.0000
  H   H1333     1.0  0.76965  0.24033  0.60030  1.0000
  C   C1129     1.0  0.92151  0.45405  0.52987  1.0000
  C   C1130     1.0  0.73592  0.29944  0.96191  1.0000
  H   H1334     1.0  0.92399  0.39390  0.52565  1.0000
  H   H1335     1.0  0.90234  0.37898  0.51575  1.0000
  H   H1336     1.0  0.91340  0.39577  0.48498  1.0000
  H   H1337     1.0  0.91768  0.40462  0.58171  1.0000
  C   C1131     1.0  0.96525  0.46456  0.42544  1.0000
  H   H1338     1.0  0.89905  0.40917  0.58497  1.0000
  H   H1339     1.0  0.88755  0.40436  0.48990  1.0000
  H   H1340     1.0  0.87912  0.38568  0.51731  1.0000
  H   H1341     1.0  0.88018  0.40573  0.53363  1.0000
  H   H1342     1.0  0.94000  0.42062  0.50947  1.0000
  H   H1343     1.0  0.89799  0.43304  0.54403  1.0000
  H   H1344     1.0  0.93904  0.44574  0.41345  1.0000
  C   C1132     1.0  0.91302  0.42559  0.95603  1.0000
  H   H1345     1.0  0.76944  0.32142  0.97903  1.0000
  N   N76       1.0  0.86547  0.38170  0.27348  1.0000
  C   C1133     1.0  0.85125  0.36385  0.27417  1.0000
  C   C1134     1.0  0.87977  0.38229  0.29740  1.0000
  C   C1135     1.0  0.85913  0.39409  0.28860  1.0000
  C   C1136     1.0  0.87083  0.38604  0.23637  1.0000
  C   C1137     1.0  0.85958  0.38869  0.21133  1.0000
  C   C1138     1.0  0.88677  0.38691  0.22351  1.0000
  C   C1139     1.0  0.86428  0.39254  0.17604  1.0000
  C   C1140     1.0  0.89123  0.39057  0.18807  1.0000
  C   C1141     1.0  0.88007  0.39347  0.16445  1.0000
  H   H1346     1.0  0.84703  0.35991  0.30176  1.0000
  C   C1142     1.0  0.75834  0.29454  0.93027  1.0000
  H   H1347     1.0  0.85555  0.35413  0.26326  1.0000
  Fe  Fe149     1.0  0.73311  0.46890  0.88165  1.0000
  C   C1143     1.0  0.94478  0.44715  0.51133  1.0000
  H   H1348     1.0  0.84696  0.39303  0.27548  1.0000
  H   H1349     1.0  0.85588  0.39157  0.31705  1.0000
  H   H1350     1.0  0.86917  0.40777  0.28706  1.0000
  H   H1351     1.0  0.84690  0.38741  0.21859  1.0000
  H   H1352     1.0  0.89590  0.38444  0.24004  1.0000
  H   H1353     1.0  0.85549  0.39443  0.15726  1.0000
  H   H1354     1.0  0.90328  0.39074  0.17861  1.0000
  H   H1355     1.0  0.88352  0.39606  0.13693  1.0000
  H   H1356     1.0  0.80232  0.23846  0.50699  1.0000
  C   C1144     1.0  0.76080  0.41872  0.46837  1.0000
  C   C1145     1.0  0.87995  0.44819  0.17545  1.0000
  H   H1357     1.0  0.75498  0.45233  0.65398  1.0000
  H   H1358     1.0  0.76180  0.42003  0.43916  1.0000
  C   C1146     1.0  0.93836  0.45941  0.51797  1.0000
  Fe  Fe150     1.0  0.74849  0.47407  0.95847  1.0000
  H   H1359     1.0  0.76188  0.47964  0.63126  1.0000
  H   H1360     1.0  0.91478  0.39903  0.91871  1.0000
  C   C1147     1.0  0.79482  0.44685  0.44637  1.0000
  H   H1361     1.0  0.77716  0.44275  0.04827  1.0000
  H   H1362     1.0  0.78214  0.42558  0.03135  1.0000
  H   H1363     1.0  0.89617  0.38730  0.57537  1.0000
  S   S300      1.0  0.76900  0.24967  0.48631  1.0000
  H   H1364     1.0  0.74615  0.43999  0.76304  1.0000
  N   N77       1.0  0.76961  0.43576  0.48757  1.0000
  H   H1365     1.0  0.93059  0.42789  0.01717  1.0000
  H   H1366     1.0  0.94511  0.42037  0.42678  1.0000
  C   C1148     1.0  0.80123  0.44742  0.50932  1.0000
  H   H1367     1.0  0.76179  0.30725  0.01661  1.0000
  C   C1149     1.0  0.75429  0.44834  0.74286  1.0000
  H   H1368     1.0  0.77691  0.25316  0.56138  1.0000
  H   H1369     1.0  0.77708  0.30517  0.98819  1.0000
  H   H1370     1.0  0.77080  0.29331  0.93272  1.0000
  H   H1371     1.0  0.82313  0.26514  0.19663  1.0000
  C   C1150     1.0  0.74744  0.41337  0.02884  1.0000
  H   H1372     1.0  0.78801  0.26110  0.60315  1.0000
  H   H1373     1.0  0.83849  0.46382  0.46256  1.0000
  C   C1151     1.0  0.76523  0.43278  0.52558  1.0000
  C   C1152     1.0  0.78855  0.44335  0.48137  1.0000
  H   H1374     1.0  0.78707  0.44501  0.00658  1.0000
  H   H1375     1.0  0.91218  0.40728  0.01362  1.0000
  N   N78       1.0  0.78480  0.48286  0.66193  1.0000
  H   H1376     1.0  0.75312  0.44748  0.02311  1.0000
  H   H1377     1.0  0.76985  0.42352  0.53716  1.0000
  H   H1378     1.0  0.77220  0.46660  0.78063  1.0000
  Fe  Fe151     1.0  0.75273  0.47526  0.55044  1.0000
  C   C1153     1.0  0.79882  0.23594  0.61154  1.0000
  C   C1154     1.0  0.75955  0.45566  0.68116  1.0000
  S   S301      1.0  0.74016  0.45006  0.57962  1.0000
  S   S302      1.0  0.73309  0.46591  0.50509  1.0000
  C   C1155     1.0  0.81112  0.24973  0.52233  1.0000
  H   H1379     1.0  0.74794  0.44197  0.47753  1.0000
  C   C1156     1.0  0.81262  0.45403  0.43980  1.0000
  C   C1157     1.0  0.82006  0.26879  0.57447  1.0000
  C   C1158     1.0  0.72796  0.25515  0.75922  1.0000
  H   H1380     1.0  0.81830  0.27237  0.60117  1.0000
  H   H1381     1.0  0.89379  0.47981  0.15171  1.0000
  H   H1382     1.0  0.88796  0.46404  0.33700  1.0000
  H   H1383     1.0  0.80535  0.24729  0.63001  1.0000
  C   C1159     1.0  0.88025  0.47616  0.25540  1.0000
  H   H1384     1.0  0.75062  0.43133  0.07329  1.0000
  H   H1385     1.0  0.90707  0.48002  0.18926  1.0000
  C   C1160     1.0  0.73791  0.39564  0.01767  1.0000
  H   H1386     1.0  0.84303  0.29295  0.56885  1.0000
  H   H1387     1.0  0.86279  0.47669  0.19337  1.0000
  H   H1388     1.0  0.79900  0.48164  0.61585  1.0000
  H   H1389     1.0  0.72793  0.24993  0.65344  1.0000
  C   C1161     1.0  0.96799  0.42923  0.91964  1.0000
  H   H1390     1.0  0.72921  0.40975  0.11070  1.0000
  C   C1162     1.0  0.74310  0.48346  0.75318  1.0000
  C   C1163     1.0  0.81776  0.48171  0.97393  1.0000
  Fe  Fe152     1.0  0.74729  0.23758  0.93216  1.0000
  H   H1391     1.0  0.97531  0.46818  0.95788  1.0000
  H   H1392     1.0  0.97464  0.42317  0.90423  1.0000
  S   S303      1.0  0.73668  0.48870  0.92574  1.0000
  H   H1393     1.0  0.93982  0.58496  0.35992  1.0000
  H   H1394     1.0  0.93428  0.55423  0.34381  1.0000
  H   H1395     1.0  0.87323  0.52471  0.23549  1.0000
  H   H1396     1.0  0.96009  0.59914  0.38165  1.0000
  C   C1164     1.0  0.82851  0.48916  0.00430  1.0000
  H   H1397     1.0  0.96610  0.58021  0.52950  1.0000
  Fe  Fe153     1.0  0.89449  0.51668  0.11337  1.0000
  S   S304      1.0  0.89329  0.52841  0.06003  1.0000
  C   C1165     1.0  0.80084  0.49785  0.67536  1.0000
  C   C1166     1.0  0.80999  0.52461  0.93480  1.0000
  S   S305      1.0  0.89775  0.49561  0.02382  1.0000
  Fe  Fe154     1.0  0.91607  0.52249  0.04494  1.0000
  S   S306      1.0  0.93870  0.53737  0.00665  1.0000
  Fe  Fe155     1.0  0.87516  0.50089  0.04210  1.0000
  C   C1167     1.0  0.96939  0.55342  0.96980  1.0000
  S   S307      1.0  0.91830  0.51294  0.09956  1.0000
  H   H1398     1.0  0.75458  0.49542  0.75887  1.0000
  Fe  Fe156     1.0  0.90356  0.51517  0.38167  1.0000
  S   S308      1.0  0.89802  0.53291  0.41952  1.0000
  S   S309      1.0  0.91388  0.51927  0.32504  1.0000
  C   C1168     1.0  0.79800  0.53568  0.88790  1.0000
  S   S310      1.0  0.89590  0.50626  0.48330  1.0000
  Fe  Fe157     1.0  0.87717  0.50816  0.44212  1.0000
  H   H1399     1.0  0.96162  0.53615  0.46595  1.0000
  Fe  Fe158     1.0  0.91711  0.52955  0.45809  1.0000
  S   S311      1.0  0.93879  0.55206  0.49031  1.0000
  C   C1169     1.0  0.83029  0.49851  0.47687  1.0000
  S   S312      1.0  0.92377  0.51359  0.41895  1.0000
  C   C1170     1.0  0.96145  0.55743  0.49724  1.0000
  S   S313      1.0  0.77257  0.48613  0.99654  1.0000
  H   H1400     1.0  0.80824  0.50621  0.65332  1.0000
  H   H1401     1.0  0.79777  0.50650  0.69360  1.0000
  N   N79       1.0  0.79371  0.52314  0.91714  1.0000
  C   C1171     1.0  0.97271  0.55836  0.03310  1.0000
  C   C1172     1.0  0.84158  0.52748  0.96688  1.0000
  C   C1173     1.0  0.90638  0.52121  0.28163  1.0000
  C   C1174     1.0  0.89067  0.52234  0.27520  1.0000
  H   H1402     1.0  0.95954  0.59264  0.33593  1.0000
  C   C1175     1.0  0.89556  0.52387  0.21103  1.0000
  C   C1176     1.0  0.91136  0.52293  0.21758  1.0000
  C   C1177     1.0  0.91668  0.52159  0.25259  1.0000
  C   C1178     1.0  0.81413  0.52945  0.97124  1.0000
  C   C1179     1.0  0.82241  0.52130  0.91525  1.0000
  H   H1403     1.0  0.91946  0.52322  0.19560  1.0000
  H   H1404     1.0  0.89356  0.49140  0.19081  1.0000
  C   C1180     1.0  0.77389  0.49003  0.64342  1.0000
  H   H1405     1.0  0.79015  0.48623  0.73646  1.0000
  H   H1406     1.0  0.78095  0.49866  0.62144  1.0000
  H   H1407     1.0  0.76981  0.49778  0.66196  1.0000
  H   H1408     1.0  0.78842  0.54038  0.95260  1.0000
  H   H1409     1.0  0.83251  0.53421  0.01481  1.0000
  H   H1410     1.0  0.78605  0.53538  0.87475  1.0000
  H   H1411     1.0  0.82953  0.50066  0.05592  1.0000
  H   H1412     1.0  0.80538  0.53175  0.98865  1.0000
  C   C1181     1.0  0.94860  0.55856  0.34646  1.0000
  S   S314      1.0  0.85058  0.49165  0.00472  1.0000
  H   H1413     1.0  0.88262  0.52217  0.29719  1.0000
  S   S315      1.0  0.84816  0.50318  0.44746  1.0000
  H   H1414     1.0  0.78049  0.49544  0.92330  1.0000
  H   H1415     1.0  0.95361  0.56243  0.31951  1.0000
  C   C1182     1.0  0.83188  0.49740  0.51371  1.0000
  H   H1416     1.0  0.96118  0.54756  0.94659  1.0000
  H   H1417     1.0  0.76987  0.52549  0.92737  1.0000
  C   C1183     1.0  0.82155  0.49486  0.03240  1.0000
  H   H1418     1.0  0.80604  0.54924  0.89796  1.0000
  C   C1184     1.0  0.80079  0.49029  0.52113  1.0000
  S   S316      1.0  0.88796  0.52510  0.16724  1.0000
  C   C1185     1.0  0.96179  0.55051  0.00350  1.0000
  H   H1419     1.0  0.81893  0.49267  0.56381  1.0000
  C   C1186     1.0  0.82976  0.53094  0.98678  1.0000
  C   C1187     1.0  0.94694  0.56641  0.40679  1.0000
  H   H1420     1.0  0.80538  0.53280  0.86678  1.0000
  H   H1421     1.0  0.85337  0.52802  0.97945  1.0000
  Fe  Fe159     1.0  0.90188  0.49056  0.44154  1.0000
  H   H1422     1.0  0.84703  0.51961  0.91618  1.0000
  C   C1188     1.0  0.78205  0.52686  0.94129  1.0000
  C   C1189     1.0  0.83790  0.52264  0.93122  1.0000
  H   H1423     1.0  0.92888  0.52078  0.25718  1.0000
  C   C1190     1.0  0.79923  0.49150  0.48432  1.0000
  H   H1424     1.0  0.93269  0.56207  0.40273  1.0000
  C   C1191     1.0  0.78376  0.50524  0.90213  1.0000
  H   H1425     1.0  0.95067  0.54689  0.35353  1.0000
  S   S317      1.0  0.88205  0.49072  0.40176  1.0000
  C   C1192     1.0  0.88537  0.52378  0.24013  1.0000
  H   H1426     1.0  0.96723  0.55643  0.05920  1.0000
  C   C1193     1.0  0.80441  0.49358  0.02968  1.0000
  C   C1194     1.0  0.96939  0.54766  0.48192  1.0000
  H   H1427     1.0  0.81232  0.49647  0.43421  1.0000
  H   H1428     1.0  0.79945  0.49842  0.05139  1.0000
  S   S318      1.0  0.87534  0.48968  0.09573  1.0000
  H   H1429     1.0  0.77791  0.51760  0.96353  1.0000
  C   C1195     1.0  0.95391  0.58805  0.36225  1.0000
  H   H1430     1.0  0.95107  0.57671  0.42809  1.0000
  C   C1196     1.0  0.81381  0.49555  0.46253  1.0000
  H   H1431     1.0  0.84438  0.49966  0.52538  1.0000
  H   H1432     1.0  0.77132  0.50360  0.88890  1.0000
  H   H1433     1.0  0.82018  0.51747  0.88754  1.0000
  N   N80       1.0  0.95659  0.57275  0.37365  1.0000
  C   C1197     1.0  0.81731  0.49337  0.53552  1.0000
  S   S319      1.0  0.73709  0.48699  0.58027  1.0000
  H   H1434     1.0  0.87794  0.48662  0.24417  1.0000
  H   H1435     1.0  0.79101  0.50171  0.88178  1.0000
  C   C1198     1.0  0.97197  0.57242  0.51775  1.0000
  Fe  Fe160     1.0  0.89903  0.48664  0.07884  1.0000
  C   C1199     1.0  0.79382  0.48645  0.99905  1.0000
  H   H1436     1.0  0.94864  0.55499  0.41695  1.0000
  H   H1437     1.0  0.74430  0.48695  0.69631  1.0000
  H   H1438     1.0  0.88138  0.48651  0.30843  1.0000
  S   S320      1.0  0.78280  0.48509  0.55054  1.0000
  H   H1439     1.0  0.80977  0.49338  0.68928  1.0000
  H   H1440     1.0  0.78688  0.48963  0.47251  1.0000
  C   C1200     1.0  0.97548  0.57777  0.37777  1.0000
