data_image0
_chemical_formula_structural       HFeS2FeS2FeSFeCS2CHSH2SHNSCFe2SH2FeS2FeC2FeSFeS3H3C2H2CHSH2CH2NHC7H4C6H4C6H4C6H4NC9H13CHCNCH3SHNHC3HC2H2CFeCHCNC6HCH12CH2C5H4CSH6CHC2H2C2H2SHCH3NCH2C5H4SHSHCH7C2HCHC3H2SCHCHFeSH2SCFeSFeSCFeS2FeS2Fe2S3HFeS2C2FeHSH3FeS2H4S2H4C4H3CSC4H3C7H4C6H4CHN2HC7H6C2HCHC2HSCNC9HCH12CH3CHCHFeC2H2FeH2SH5CH3CH2C2SH3CNC9H14C2FeSC5HCHCH2C3HCH4CSCNH2FeHCSHC2HC4S2CH5SHCSFeSHCFeS2FeS2FeSFeS3CHC6H4C3HC2HCH2C2H3C8H4CH4SC4H2CHFeH2N2CHSCHC3H4C2H3SH2CH2NC9H13CHC4HCNH2CH3CH2CHSHCSCHCH2CH3SHC3HCHCHSHCSH3C2Fe2H2C2HC4HC2SH3CH4CSH2FeS2FeS2FeSFeS3CHC3NC2H2C7H4C6H4C6H5C5H3CH2C2H7SCH3CSHCHCH2NC5H10NC9NFeH12CHSH3C2H6FeSH3CHSH2NC5HCH4CH2CHSCSCHCS2H2CH2C2HSHFeCHSCH2FeHSC2S2FeS4HFeSCHSHFeS2FeS2FeSFeS3HC3H2FeH4C6H3C6H11CH2C6H4C3H2CH2C5H5C2H2C2HSNCH2CHCSHC2H3CH2C3HCH2CHN2CH2CSHC2H2CH5CFeH2CHC3HCHCH3CNC6HSCH11CH2NC10HSFeCH2FeC3SH4C3HC3FeSFeH3CHCSC2HSFeS2FeHSFeSHCS2FeS2FeS2FeSFeS3C6H4C7H3C6H9CHNSH5C3H5CHCH2CHFeH4NCHC4NHCHNC7H2C4HCH3FeHCH3C3S2CH2CSHCH5C2H6C3H3C2H2C2H4NHCHC2HC3HCH2CH3CHCHC2H3FeC2HCHC2HCHCH2CH5SCH4CH2SCHSHFeSHCFe2HFeS2FeSFeS2FeSFeS2FeSFeS3FeS2CHC2HC2SNC3HC2H2C6H4FeC7H5FeC5H3C6H5CHCHC2H2CHC2NC2H2SHC2SH5FeH3C2SCH4SCH3C2HCH6CH2C4HSC2H2C3H4NC8H12NCHSH3CHC2HC2NCHCHSCH3C2HCNC9H13FeHCHCHCSH2CHCHC2H2C2HFeSC3HCH6C2H2C2H3CH2SHCH3NH2CFeSFeS2FeSFeS3FeS2HFeSFeCS2FeS2FeS2HFeS2CH3CFeHS2HSHCHSHSFeC3HCH2CNC6H2C2H4CH2CH5C4H2C6H4C6H4C6H8CH2CHCH2S2CH2CN2C3H3C2HC2H2C2HCFeHC3HCH5CHFeSHCH3NC8H14CHCH3CHCH6CNHFeC3HSH4CNC9HSN2H3CHC2H4CH5FeCHCHFeCFeS2FeSFeS2FeSFeS3FeHSFeS2CHFeCS2HC3H3SCH2FeSCSH3CH2C2FeHCHC2H2CH2SC6H4C6H4C3H5NC6H4C5H4NH5CHC4H2CH2CHC2H4C2NCFeC3H2CHCH2CH5SH2CH2CSC2H2SCNHC2HC2SH6CH2SCNHCHC3H2CH3SH2CHC7H9NH2C2HCH4FeC2HC2H2CFeCSFeHSC2HCS2FeS2FeS2Fe2S3HCHNSFeSCS2FeNSH5SHSHCH2SCHCHNC4H3C6H4C6H6C2FeH6C6H4CHCHCHC3H10CHCH2FeHCH5CHNC3H3CFeH2CHNC9H11CHNHCHCHC3SCHCSHSH3CH3C4H3CHNHC5H3FeCH3C4HC2S2NH3CH3CH5SHCSFeSFeSHFeS2FeS2FeSFeS3C6H3CHC3HC6H4C8H6C2SHCH5FeH3C5HSCH3CNCHSH2CSCHC6HFeCH2C2H5NHC3HCNCHC2NH3C2H4CHCHCH4CH3SH2CHC2H3NHSHC2HC2H5CH5CHC3SFeHCH3CH2C4H2CHCSCHCH2C3HFeCSCHCHC2H2SFeS2FeS2FeSFeS3HC4HC2HCH2C4H3CH2SHCH4C6H4C7H4CHSCH4SHSCH2NHC2HCHC2H3C3H2CHCHFeHNH2NC9H15NCHC2H2CH3NCH2C2HNH4C2H3C5H3C3HCH4CH3SHCH2S2C3H8CS2FeS2FeS2FeSFeS3CSFeCSHSC8H4C6H4C6H5NHFeCHCHCH2C5SH3CH2C2HCSC2HNHC2H2CHCHC2H5C2HCHC2HS3H2CH2NC3H2C2HCH10CH4C2H2C2H2C4HC3NHCHC2H5C3HFeCHCHNH2C2HCHCH7CH2NCH6SHSCHC2HSFeH2C2H2C2SC2SC2NHC2HFeH2FeC2SHCFe2H3FeHFeS2FeS2FeSFeS3H2CSFeCSNHSHSHC3HCH2FeC3H3C6H4C6H5C5SH4S2C3H4C4HC3HCHCSC2H3NC9H14NC9H15C2HCHC3HSH2NFeC2H2C2HC2NC8HCSH3FeH4CSCH2SH5C2H2FeSHC2SH5CH7SFe2HC3NH3CHCHCH3CH5SH2FeS2C2FeSFeS2FeS2FeS2FeHFeHS2FeS2FeSFeSFeS3H2FeS2C3FeSC2S2CH5C2HC2H3C7H9SFeCHC6H4C2H2C2H2CHC6H5C3HNHCNCHNC9H11CH2NC9H15CH3CHCH3CNH2CHCH2CH3C4H3CSH2C2HNH5CH3CFeSCHCH2C2HCH2SC3SHCFeSHFeSCFeSFeSHSH2CS2FeS2FeS2FeS2Fe2S3FeS2FeHCFeCFeS3CHCHCFeCHCHSC3HSCH2C7H4SC6H4C2H2C6H4CSHSH2CH2CH2C2HC2H4C2H3CH3CH6CH2NHC3SHCFeH2NC9H14NC9H14C3HFeC5H4C2HCHCSNC6HNFeC2HC2H8CHCH2CH3C2HCHFeHCSC2NC3SHC2H2CHC2H2C3H3SH2C2H2
_chemical_formula_sum              "H1728 Fe192 S384 C1440 N96"
_cell_length_a       61.4702
_cell_length_b       61.4156
_cell_length_c       61.2802
_cell_angle_alpha    80.0837
_cell_angle_beta     80.0709
_cell_angle_gamma    80.0945

_space_group_name_H-M_alt    "P 1"
_space_group_IT_number       1

loop_
  _space_group_symop_operation_xyz
  'x, y, z'

loop_
  _atom_site_type_symbol
  _atom_site_label
  _atom_site_symmetry_multiplicity
  _atom_site_fract_x
  _atom_site_fract_y
  _atom_site_fract_z
  _atom_site_occupancy
  H   H1        1.0  0.21019  0.18376  0.31311  1.0000
  Fe  Fe1       1.0  0.08764  0.21435  0.18588  1.0000
  S   S1        1.0  0.06826  0.18763  0.20560  1.0000
  S   S2        1.0  0.09453  0.22202  0.14822  1.0000
  Fe  Fe2       1.0  0.09383  0.23243  0.22750  1.0000
  S   S3        1.0  0.07441  0.20786  0.25074  1.0000
  S   S4        1.0  0.11440  0.25583  0.23643  1.0000
  Fe  Fe3       1.0  0.09376  0.18304  0.22901  1.0000
  S   S5        1.0  0.11350  0.15150  0.24427  1.0000
  Fe  Fe4       1.0  0.05036  0.21480  0.22539  1.0000
  C   C1        1.0  0.23407  0.29215  0.01910  1.0000
  S   S6        1.0  0.11463  0.20719  0.20743  1.0000
  S   S7        1.0  0.06831  0.24186  0.20406  1.0000
  C   C2        1.0  0.14420  0.28692  0.47012  1.0000
  H   H2        1.0  0.17022  0.12564  0.12474  1.0000
  S   S8        1.0  0.18641  0.11301  0.16914  1.0000
  H   H3        1.0  0.20371  0.18022  0.16552  1.0000
  H   H4        1.0  0.16976  0.17228  0.19031  1.0000
  S   S9        1.0  0.21126  0.25174  0.06818  1.0000
  H   H5        1.0  0.21730  0.28828  0.14443  1.0000
  N   N1        1.0  0.21537  0.31093  0.01801  1.0000
  S   S10       1.0  0.22167  0.20106  0.05475  1.0000
  C   C3        1.0  0.17459  0.18144  0.20244  1.0000
  Fe  Fe5       1.0  0.22049  0.23613  0.03633  1.0000
  Fe  Fe6       1.0  0.21623  0.21658  0.08616  1.0000
  S   S11       1.0  0.19862  0.20036  0.11857  1.0000
  H   H6        1.0  0.23475  0.34101  0.07576  1.0000
  H   H7        1.0  0.04932  0.21304  0.16676  1.0000
  Fe  Fe7       1.0  0.17979  0.23920  0.33614  1.0000
  S   S12       1.0  0.18132  0.26473  0.35773  1.0000
  S   S13       1.0  0.14693  0.23025  0.33137  1.0000
  Fe  Fe8       1.0  0.23038  0.22803  0.32621  1.0000
  C   C4        1.0  0.99930  0.24242  0.15577  1.0000
  C   C5        1.0  0.20896  0.14263  0.12080  1.0000
  Fe  Fe9       1.0  0.20852  0.24021  0.37242  1.0000
  S   S14       1.0  0.20489  0.23104  0.41048  1.0000
  Fe  Fe10      1.0  0.20887  0.27537  0.33104  1.0000
  S   S15       1.0  0.20741  0.31167  0.31640  1.0000
  S   S16       1.0  0.20466  0.21354  0.35278  1.0000
  S   S17       1.0  0.20516  0.25184  0.30828  1.0000
  H   H8        1.0  0.24412  0.14030  0.03235  1.0000
  H   H9        1.0  0.02756  0.27252  0.14530  1.0000
  H   H10       1.0  0.02956  0.24622  0.11686  1.0000
  C   C6        1.0  0.22956  0.33644  0.28058  1.0000
  C   C7        1.0  0.22985  0.31604  0.29497  1.0000
  H   H11       1.0  0.02289  0.20357  0.16836  1.0000
  H   H12       1.0  0.22987  0.09868  0.10889  1.0000
  C   C8        1.0  0.22081  0.32976  0.02727  1.0000
  H   H13       1.0  0.21600  0.34991  0.28332  1.0000
  S   S18       1.0  0.23368  0.32245  0.16106  1.0000
  H   H14       1.0  0.16624  0.17451  0.21916  1.0000
  H   H15       1.0  0.17498  0.29605  0.39448  1.0000
  C   C9        1.0  0.15331  0.26941  0.42644  1.0000
  H   H16       1.0  0.23679  0.28530  0.03654  1.0000
  H   H17       1.0  0.19379  0.17096  0.08740  1.0000
  N   N2        1.0  0.19904  0.13647  0.10275  1.0000
  H   H18       1.0  0.22541  0.31059  0.06016  1.0000
  C   C10       1.0  0.23641  0.17538  0.46943  1.0000
  C   C11       1.0  0.12333  0.24840  0.26277  1.0000
  C   C12       1.0  0.10928  0.23964  0.28145  1.0000
  C   C13       1.0  0.11647  0.23469  0.30254  1.0000
  C   C14       1.0  0.13791  0.23799  0.30496  1.0000
  C   C15       1.0  0.15201  0.24650  0.28620  1.0000
  C   C16       1.0  0.14468  0.25186  0.26519  1.0000
  H   H19       1.0  0.09267  0.23718  0.27974  1.0000
  H   H20       1.0  0.10539  0.22824  0.31701  1.0000
  H   H21       1.0  0.16855  0.24892  0.28784  1.0000
  H   H22       1.0  0.15565  0.25845  0.25071  1.0000
  C   C17       1.0  0.13333  0.13994  0.22357  1.0000
  C   C18       1.0  0.13121  0.14659  0.20096  1.0000
  C   C19       1.0  0.14738  0.13782  0.18439  1.0000
  C   C20       1.0  0.16595  0.12273  0.19036  1.0000
  C   C21       1.0  0.16814  0.11610  0.21298  1.0000
  C   C22       1.0  0.15171  0.12452  0.22958  1.0000
  H   H23       1.0  0.11691  0.15826  0.19624  1.0000
  H   H24       1.0  0.14556  0.14293  0.16692  1.0000
  H   H25       1.0  0.18221  0.10412  0.21768  1.0000
  H   H26       1.0  0.15322  0.11889  0.24702  1.0000
  C   C23       1.0  0.12319  0.21538  0.13870  1.0000
  C   C24       1.0  0.13342  0.22768  0.11933  1.0000
  C   C25       1.0  0.15663  0.22309  0.11259  1.0000
  C   C26       1.0  0.16945  0.20598  0.12509  1.0000
  C   C27       1.0  0.15900  0.19307  0.14372  1.0000
  C   C28       1.0  0.13601  0.19789  0.15066  1.0000
  H   H27       1.0  0.12351  0.24114  0.10994  1.0000
  H   H28       1.0  0.16459  0.23300  0.09804  1.0000
  H   H29       1.0  0.16867  0.17921  0.15275  1.0000
  H   H30       1.0  0.12811  0.18788  0.16513  1.0000
  C   C29       1.0  0.22911  0.25975  0.46526  1.0000
  C   C30       1.0  0.18089  0.29783  0.45762  1.0000
  C   C31       1.0  0.23107  0.25665  0.42556  1.0000
  C   C32       1.0  0.21455  0.24270  0.43096  1.0000
  C   C33       1.0  0.20521  0.23761  0.45349  1.0000
  C   C34       1.0  0.21219  0.24633  0.47046  1.0000
  H   H31       1.0  0.01259  0.18608  0.21159  1.0000
  H   H32       1.0  0.21203  0.15434  0.05767  1.0000
  H   H33       1.0  0.19239  0.22690  0.45786  1.0000
  H   H34       1.0  0.22741  0.38521  0.01435  1.0000
  N   N3        1.0  0.17429  0.31458  0.25835  1.0000
  C   C35       1.0  0.15687  0.30931  0.27774  1.0000
  C   C36       1.0  0.19455  0.29798  0.26119  1.0000
  C   C37       1.0  0.17938  0.33714  0.25932  1.0000
  C   C38       1.0  0.16763  0.31396  0.23639  1.0000
  C   C39       1.0  0.14759  0.30637  0.23426  1.0000
  C   C40       1.0  0.18192  0.32012  0.21623  1.0000
  C   C41       1.0  0.14237  0.30503  0.21325  1.0000
  C   C42       1.0  0.17640  0.31890  0.19531  1.0000
  C   C43       1.0  0.15670  0.31130  0.19383  1.0000
  H   H35       1.0  0.15314  0.29202  0.27915  1.0000
  H   H36       1.0  0.16232  0.31031  0.29396  1.0000
  H   H37       1.0  0.14110  0.32118  0.27657  1.0000
  H   H38       1.0  0.19937  0.29683  0.27805  1.0000
  H   H39       1.0  0.20923  0.30240  0.24891  1.0000
  H   H40       1.0  0.19171  0.28101  0.25934  1.0000
  H   H41       1.0  0.16522  0.35032  0.25517  1.0000
  H   H42       1.0  0.18260  0.33861  0.27633  1.0000
  H   H43       1.0  0.19458  0.34128  0.24767  1.0000
  H   H44       1.0  0.13571  0.30103  0.24852  1.0000
  H   H45       1.0  0.19758  0.32582  0.21642  1.0000
  H   H46       1.0  0.12714  0.29884  0.21207  1.0000
  H   H47       1.0  0.18751  0.32382  0.18013  1.0000
  C   C44       1.0  0.03342  0.25718  0.15655  1.0000
  H   H48       1.0  0.22585  0.15052  0.20283  1.0000
  C   C45       1.0  0.20260  0.17547  0.30270  1.0000
  N   N4        1.0  0.19922  0.17870  0.20145  1.0000
  C   C46       1.0  0.20876  0.18814  0.17856  1.0000
  H   H49       1.0  0.17647  0.15323  0.07969  1.0000
  H   H50       1.0  0.18186  0.31362  0.41185  1.0000
  H   H51       1.0  0.21846  0.12794  0.13004  1.0000
  S   S19       1.0  0.20105  0.24737  0.00692  1.0000
  H   H52       1.0  0.19350  0.10441  0.12233  1.0000
  N   N5        1.0  0.15806  0.29176  0.42867  1.0000
  H   H53       1.0  0.12298  0.30540  0.43366  1.0000
  C   C47       1.0  0.22687  0.36878  0.02414  1.0000
  C   C48       1.0  0.20736  0.15435  0.20506  1.0000
  C   C49       1.0  0.23795  0.28340  0.11287  1.0000
  H   H54       1.0  0.20444  0.24271  0.48756  1.0000
  C   C50       1.0  0.18456  0.11917  0.11259  1.0000
  C   C51       1.0  0.24232  0.31023  0.13636  1.0000
  H   H55       1.0  0.02633  0.22197  0.18685  1.0000
  H   H56       1.0  0.20298  0.20642  0.17493  1.0000
  C   C52       1.0  0.23651  0.19746  0.23615  1.0000
  Fe  Fe11      1.0  0.22010  0.09751  0.17825  1.0000
  C   C53       1.0  0.17778  0.29666  0.41184  1.0000
  H   H57       1.0  0.15257  0.31017  0.17760  1.0000
  C   C54       1.0  0.03091  0.21822  0.16939  1.0000
  N   N6        1.0  0.14442  0.16713  0.29434  1.0000
  C   C55       1.0  0.13628  0.18308  0.27542  1.0000
  C   C56       1.0  0.13816  0.14492  0.29386  1.0000
  C   C57       1.0  0.13242  0.17466  0.31557  1.0000
  C   C58       1.0  0.16899  0.16591  0.29206  1.0000
  C   C59       1.0  0.18326  0.15510  0.27503  1.0000
  C   C60       1.0  0.17939  0.17649  0.30557  1.0000
  H   H58       1.0  0.20204  0.14557  0.19286  1.0000
  C   C61       1.0  0.19839  0.21205  0.24905  1.0000
  H   H59       1.0  0.20090  0.14648  0.22215  1.0000
  H   H60       1.0  0.14325  0.17743  0.25901  1.0000
  H   H61       1.0  0.11775  0.18509  0.27659  1.0000
  H   H62       1.0  0.14096  0.19989  0.27492  1.0000
  H   H63       1.0  0.11968  0.14532  0.29668  1.0000
  H   H64       1.0  0.14534  0.13200  0.30682  1.0000
  H   H65       1.0  0.14359  0.13910  0.27739  1.0000
  H   H66       1.0  0.13422  0.19213  0.31639  1.0000
  H   H67       1.0  0.11409  0.17454  0.31732  1.0000
  H   H68       1.0  0.13859  0.16382  0.33042  1.0000
  H   H69       1.0  0.17658  0.14764  0.26337  1.0000
  H   H70       1.0  0.17001  0.18586  0.31841  1.0000
  C   C62       1.0  0.23160  0.36503  0.04604  1.0000
  H   H71       1.0  0.14164  0.32575  0.42487  1.0000
  H   H72       1.0  0.02886  0.26070  0.17410  1.0000
  C   C63       1.0  0.21728  0.12766  0.08597  1.0000
  C   C64       1.0  0.22939  0.18772  0.22009  1.0000
  C   C65       1.0  0.24484  0.48644  0.12208  1.0000
  C   C66       1.0  0.20638  0.18972  0.21816  1.0000
  C   C67       1.0  0.16126  0.29212  0.45204  1.0000
  H   H73       1.0  0.18639  0.22113  0.26061  1.0000
  H   H74       1.0  0.19502  0.30159  0.44521  1.0000
  H   H75       1.0  0.17775  0.11319  0.09939  1.0000
  H   H76       1.0  0.23161  0.16672  0.43808  1.0000
  C   C68       1.0  0.19105  0.20260  0.23293  1.0000
  S   S20       1.0  0.22965  0.08458  0.21232  1.0000
  H   H77       1.0  0.23382  0.47196  0.18510  1.0000
  H   H78       1.0  0.17327  0.20549  0.23252  1.0000
  H   H79       1.0  0.21735  0.20018  0.99540  1.0000
  H   H80       1.0  0.22062  0.15498  0.11393  1.0000
  H   H81       1.0  0.22938  0.27039  0.11000  1.0000
  H   H82       1.0  0.23454  0.45376  0.13074  1.0000
  C   C69       1.0  0.23623  0.00156  0.18311  1.0000
  H   H83       1.0  0.19025  0.28900  0.02513  1.0000
  C   C70       1.0  0.23842  0.26498  0.44269  1.0000
  C   C71       1.0  0.18441  0.15660  0.09352  1.0000
  H   H84       1.0  0.22731  0.18545  0.17591  1.0000
  H   H85       1.0  0.21712  0.14549  0.25947  1.0000
  C   C72       1.0  0.23119  0.29349  0.13238  1.0000
  C   C73       1.0  0.20648  0.15397  0.27248  1.0000
  H   H86       1.0  0.02949  0.21661  0.12696  1.0000
  H   H87       1.0  0.23403  0.16370  0.28404  1.0000
  S   S21       1.0  0.23921  0.26990  0.48650  1.0000
  H   H88       1.0  0.05288  0.22950  0.12838  1.0000
  C   C74       1.0  0.21610  0.16409  0.28634  1.0000
  H   H89       1.0  0.13693  0.26572  0.43587  1.0000
  H   H90       1.0  0.23094  0.01844  0.17551  1.0000
  H   H91       1.0  0.05205  0.25436  0.15346  1.0000
  N   N7        1.0  0.02400  0.23764  0.15282  1.0000
  C   C75       1.0  0.19483  0.30333  0.03144  1.0000
  H   H92       1.0  0.13624  0.30934  0.40524  1.0000
  H   H93       1.0  0.22651  0.21620  0.26376  1.0000
  C   C76       1.0  0.23923  0.17731  0.44607  1.0000
  C   C77       1.0  0.22196  0.13898  0.06378  1.0000
  C   C78       1.0  0.22559  0.32662  0.04958  1.0000
  C   C79       1.0  0.24031  0.13095  0.04889  1.0000
  C   C80       1.0  0.22102  0.20941  0.25075  1.0000
  H   H94       1.0  0.12880  0.28246  0.46723  1.0000
  H   H95       1.0  0.17069  0.16251  0.10656  1.0000
  H   H96       1.0  0.22688  0.16275  0.47892  1.0000
  H   H97       1.0  0.16628  0.25598  0.43275  1.0000
  S   S22       1.0  0.01275  0.22437  0.23443  1.0000
  H   H98       1.0  0.23654  0.28516  0.21483  1.0000
  S   S23       1.0  0.23655  0.25275  0.34706  1.0000
  H   H99       1.0  0.19670  0.29761  0.04930  1.0000
  C   C81       1.0  0.23184  0.10776  0.09207  1.0000
  H   H100      1.0  0.15310  0.26764  0.40867  1.0000
  H   H101      1.0  0.24207  0.17829  0.20939  1.0000
  H   H102      1.0  0.16728  0.19926  0.19815  1.0000
  H   H103      1.0  0.23583  0.37843  0.05321  1.0000
  H   H104      1.0  0.24304  0.25051  0.24142  1.0000
  H   H105      1.0  0.18040  0.31702  0.03100  1.0000
  H   H106      1.0  0.19594  0.15019  0.13345  1.0000
  C   C82       1.0  0.03426  0.23231  0.13020  1.0000
  C   C83       1.0  0.14668  0.28737  0.49232  1.0000
  H   H107      1.0  0.19832  0.30254  0.48376  1.0000
  C   C84       1.0  0.23095  0.34399  0.05873  1.0000
  H   H108      1.0  0.23100  0.27796  0.01148  1.0000
  C   C85       1.0  0.22153  0.35147  0.01478  1.0000
  C   C86       1.0  0.18309  0.29837  0.47986  1.0000
  C   C87       1.0  0.13889  0.30878  0.42289  1.0000
  H   H109      1.0  0.23845  0.26069  0.40828  1.0000
  H   H110      1.0  0.19270  0.28413  0.41482  1.0000
  S   S24       1.0  0.23971  0.06860  0.16210  1.0000
  C   C88       1.0  0.24529  0.18979  0.48028  1.0000
  H   H111      1.0  0.21812  0.35551  0.99773  1.0000
  C   C89       1.0  0.21146  0.31652  0.99428  1.0000
  H   H112      1.0  0.20759  0.30177  0.98802  1.0000
  Fe  Fe12      1.0  0.21671  0.22725  0.56261  1.0000
  S   S25       1.0  0.19699  0.24294  0.53481  1.0000
  H   H113      1.0  0.21799  0.18477  0.92411  1.0000
  H   H114      1.0  0.13354  0.28325  0.50595  1.0000
  S   S26       1.0  0.20865  0.29153  0.54396  1.0000
  C   C90       1.0  0.04856  0.34842  0.67477  1.0000
  Fe  Fe13      1.0  0.18257  0.26921  0.55662  1.0000
  S   S27       1.0  0.14656  0.28389  0.56329  1.0000
  Fe  Fe14      1.0  0.22450  0.26392  0.52348  1.0000
  S   S28       1.0  0.19920  0.25130  0.58553  1.0000
  C   C91       1.0  0.17268  0.28258  0.72645  1.0000
  Fe  Fe15      1.0  0.09962  0.25345  0.68328  1.0000
  S   S29       1.0  0.07419  0.28437  0.68082  1.0000
  S   S30       1.0  0.11397  0.23098  0.65739  1.0000
  Fe  Fe16      1.0  0.10758  0.25726  0.73010  1.0000
  S   S31       1.0  0.08268  0.28869  0.73196  1.0000
  S   S32       1.0  0.13238  0.23687  0.75190  1.0000
  Fe  Fe17      1.0  0.06077  0.27134  0.71630  1.0000
  Fe  Fe18      1.0  0.09780  0.29918  0.69635  1.0000
  S   S33       1.0  0.10910  0.33193  0.67984  1.0000
  S   S34       1.0  0.08456  0.23909  0.71752  1.0000
  S   S35       1.0  0.12413  0.26937  0.69578  1.0000
  H   H115      1.0  0.02062  0.32493  0.72287  1.0000
  Fe  Fe19      1.0  0.21007  0.38125  0.70127  1.0000
  S   S36       1.0  0.20986  0.40528  0.66927  1.0000
  S   S37       1.0  0.18252  0.36407  0.72306  1.0000
  C   C92       1.0  0.18243  0.29044  0.70496  1.0000
  C   C93       1.0  0.00985  0.35003  0.67060  1.0000
  Fe  Fe20      1.0  0.23153  0.42395  0.68354  1.0000
  H   H116      1.0  0.18274  0.24908  0.63502  1.0000
  S   S38       1.0  0.22897  0.40141  0.71670  1.0000
  H   H117      1.0  0.20762  0.20513  0.50457  1.0000
  H   H118      1.0  0.21669  0.33729  0.74779  1.0000
  H   H119      1.0  0.23978  0.32235  0.57357  1.0000
  Fe  Fe21      1.0  0.19976  0.25531  0.83939  1.0000
  S   S39       1.0  0.20705  0.22900  0.86900  1.0000
  S   S40       1.0  0.16689  0.27280  0.82890  1.0000
  H   H120      1.0  0.24086  0.06276  0.70170  1.0000
  H   H121      1.0  0.24035  0.23555  0.70844  1.0000
  H   H122      1.0  0.20955  0.17531  0.51060  1.0000
  H   H123      1.0  0.22651  0.32175  0.98305  1.0000
  S   S41       1.0  0.22316  0.27737  0.84541  1.0000
  S   S42       1.0  0.22459  0.23809  0.81434  1.0000
  H   H124      1.0  0.16823  0.18185  0.63669  1.0000
  H   H125      1.0  0.24515  0.14970  0.92961  1.0000
  H   H126      1.0  0.21757  0.20026  0.95588  1.0000
  H   H127      1.0  0.15886  0.27314  0.72875  1.0000
  C   C94       1.0  0.21370  0.24864  0.97850  1.0000
  C   C95       1.0  0.20022  0.25072  0.96167  1.0000
  C   C96       1.0  0.20968  0.25207  0.93888  1.0000
  C   C97       1.0  0.24310  0.33051  0.63440  1.0000
  H   H128      1.0  0.06536  0.35164  0.66781  1.0000
  H   H129      1.0  0.23545  0.22994  0.67461  1.0000
  H   H130      1.0  0.19911  0.25378  0.92610  1.0000
  C   C98       1.0  0.21065  0.24061  0.65329  1.0000
  S   S43       1.0  0.22356  0.46223  0.67736  1.0000
  C   C99       1.0  0.19713  0.30099  0.74287  1.0000
  C   C100      1.0  0.17785  0.48873  0.72188  1.0000
  C   C101      1.0  0.21416  0.17309  0.79001  1.0000
  C   C102      1.0  0.21967  0.18007  0.80878  1.0000
  H   H131      1.0  0.21945  0.31952  0.71722  1.0000
  H   H132      1.0  0.19957  0.18163  0.78281  1.0000
  H   H133      1.0  0.20932  0.19395  0.81593  1.0000
  C   C103      1.0  0.18010  0.28749  0.74511  1.0000
  C   C104      1.0  0.14057  0.24680  0.77414  1.0000
  C   C105      1.0  0.15767  0.23371  0.78510  1.0000
  C   C106      1.0  0.16568  0.24146  0.80203  1.0000
  C   C107      1.0  0.15634  0.26222  0.80846  1.0000
  C   C108      1.0  0.13881  0.27510  0.79791  1.0000
  C   C109      1.0  0.13106  0.26751  0.78063  1.0000
  H   H134      1.0  0.16466  0.21740  0.78063  1.0000
  H   H135      1.0  0.17877  0.23115  0.81041  1.0000
  H   H136      1.0  0.13141  0.29113  0.80290  1.0000
  H   H137      1.0  0.11778  0.27767  0.77236  1.0000
  C   C110      1.0  0.12958  0.34068  0.69186  1.0000
  C   C111      1.0  0.14220  0.35686  0.67943  1.0000
  C   C112      1.0  0.15887  0.36381  0.68862  1.0000
  C   C113      1.0  0.16246  0.35512  0.71056  1.0000
  C   C114      1.0  0.14956  0.33920  0.72305  1.0000
  C   C115      1.0  0.13349  0.33166  0.71361  1.0000
  H   H138      1.0  0.13912  0.36403  0.66264  1.0000
  H   H139      1.0  0.16848  0.37633  0.67897  1.0000
  H   H140      1.0  0.15199  0.33259  0.74010  1.0000
  H   H141      1.0  0.12378  0.31926  0.72336  1.0000
  C   C116      1.0  0.16607  0.29311  0.49716  1.0000
  H   H142      1.0  0.23975  0.22180  0.59557  1.0000
  N   N8        1.0  0.20374  0.30682  0.76305  1.0000
  N   N9        1.0  0.21004  0.22040  0.71576  1.0000
  H   H143      1.0  0.02591  0.25798  0.68627  1.0000
  C   C117      1.0  0.23236  0.19349  0.91586  1.0000
  C   C118      1.0  0.13522  0.26868  0.58828  1.0000
  C   C119      1.0  0.11912  0.27943  0.60353  1.0000
  C   C120      1.0  0.11247  0.26797  0.62490  1.0000
  C   C121      1.0  0.12127  0.24552  0.63060  1.0000
  C   C122      1.0  0.13655  0.23454  0.61490  1.0000
  C   C123      1.0  0.14373  0.24617  0.59389  1.0000
  H   H144      1.0  0.11231  0.29677  0.59908  1.0000
  H   H145      1.0  0.10043  0.27644  0.63685  1.0000
  H   H146      1.0  0.14306  0.21710  0.61900  1.0000
  H   H147      1.0  0.15584  0.23768  0.58197  1.0000
  H   H148      1.0  0.20468  0.48416  0.74119  1.0000
  H   H149      1.0  0.16794  0.29340  0.51439  1.0000
  C   C124      1.0  0.22189  0.32091  0.75793  1.0000
  C   C125      1.0  0.19954  0.30337  0.70205  1.0000
  H   H150      1.0  0.17748  0.33482  0.76542  1.0000
  C   C126      1.0  0.03147  0.35434  0.66166  1.0000
  H   H151      1.0  0.18038  0.47133  0.71943  1.0000
  C   C127      1.0  0.02260  0.33358  0.70589  1.0000
  C   C128      1.0  0.23800  0.16853  0.81875  1.0000
  H   H152      1.0  0.22026  0.03160  0.70015  1.0000
  S   S44       1.0  0.02358  0.27301  0.72966  1.0000
  C   C129      1.0  0.04414  0.33804  0.69677  1.0000
  N   N10       1.0  0.17461  0.17031  0.67077  1.0000
  C   C130      1.0  0.16112  0.18444  0.65421  1.0000
  C   C131      1.0  0.19757  0.17613  0.66518  1.0000
  C   C132      1.0  0.17543  0.14668  0.66783  1.0000
  C   C133      1.0  0.16559  0.17321  0.69430  1.0000
  C   C134      1.0  0.17636  0.16051  0.71214  1.0000
  C   C135      1.0  0.14603  0.18835  0.70029  1.0000
  C   C136      1.0  0.16786  0.16262  0.73450  1.0000
  C   C137      1.0  0.13786  0.19044  0.72269  1.0000
  C   C138      1.0  0.14868  0.17759  0.73976  1.0000
  H   H153      1.0  0.16045  0.20254  0.65481  1.0000
  C   C139      1.0  0.18420  0.31924  0.77585  1.0000
  H   H154      1.0  0.14365  0.18070  0.65705  1.0000
  H   H155      1.0  0.19789  0.19338  0.66819  1.0000
  H   H156      1.0  0.18234  0.25130  0.96626  1.0000
  H   H157      1.0  0.20956  0.16464  0.67506  1.0000
  H   H158      1.0  0.18136  0.14405  0.65010  1.0000
  H   H159      1.0  0.18702  0.13498  0.67802  1.0000
  H   H160      1.0  0.15860  0.14139  0.67278  1.0000
  H   H161      1.0  0.19138  0.14873  0.70901  1.0000
  H   H162      1.0  0.13658  0.19876  0.68807  1.0000
  H   H163      1.0  0.17618  0.15256  0.74789  1.0000
  H   H164      1.0  0.12296  0.20215  0.72692  1.0000
  H   H165      1.0  0.14223  0.17943  0.75709  1.0000
  C   C140      1.0  0.17914  0.23244  0.69133  1.0000
  H   H166      1.0  0.20670  0.31007  0.68530  1.0000
  H   H167      1.0  0.17189  0.28123  0.76141  1.0000
  H   H168      1.0  0.24188  0.22269  0.50677  1.0000
  C   C141      1.0  0.00881  0.25912  0.69455  1.0000
  H   H169      1.0  0.21303  0.19053  0.53154  1.0000
  C   C142      1.0  0.21685  0.18981  0.51320  1.0000
  H   H170      1.0  0.19820  0.21261  0.75118  1.0000
  Fe  Fe22      1.0  0.22670  0.27165  0.57173  1.0000
  C   C143      1.0  0.22461  0.23545  0.72048  1.0000
  C   C144      1.0  0.22306  0.19781  0.71501  1.0000
  H   H171      1.0  0.18113  0.23504  0.73665  1.0000
  H   H172      1.0  0.17033  0.30921  0.78191  1.0000
  Fe  Fe23      1.0  0.23400  0.21374  0.84392  1.0000
  H   H173      1.0  0.22653  0.32477  0.77346  1.0000
  H   H174      1.0  0.99626  0.25017  0.66699  1.0000
  S   S45       1.0  0.22071  0.14701  0.75674  1.0000
  H   H175      1.0  0.23990  0.29554  0.64308  1.0000
  H   H176      1.0  0.23523  0.15159  0.60810  1.0000
  H   H177      1.0  0.99727  0.35455  0.65965  1.0000
  H   H178      1.0  0.24405  0.33267  0.65130  1.0000
  H   H179      1.0  0.18078  0.20649  0.73348  1.0000
  C   C145      1.0  0.23224  0.19262  0.98552  1.0000
  H   H180      1.0  0.17634  0.28683  0.69063  1.0000
  H   H181      1.0  0.16599  0.22969  0.70528  1.0000
  H   H182      1.0  0.22604  0.27598  0.76871  1.0000
  C   C146      1.0  0.20211  0.22885  0.69392  1.0000
  H   H183      1.0  0.23383  0.19290  0.89757  1.0000
  H   H184      1.0  0.22278  0.24385  0.63843  1.0000
  C   C147      1.0  0.24462  0.47779  0.70722  1.0000
  C   C148      1.0  0.20684  0.30865  0.72067  1.0000
  S   S46       1.0  0.22267  0.19044  0.57583  1.0000
  H   H185      1.0  0.21711  0.28995  0.79285  1.0000
  H   H186      1.0  0.20432  0.17542  0.64722  1.0000
  H   H187      1.0  0.18857  0.32405  0.79108  1.0000
  C   C149      1.0  0.23957  0.30644  0.60774  1.0000
  N   N11       1.0  0.16188  0.31729  0.62389  1.0000
  C   C150      1.0  0.16415  0.30416  0.64633  1.0000
  C   C151      1.0  0.13773  0.32425  0.62277  1.0000
  C   C152      1.0  0.17143  0.30216  0.60706  1.0000
  C   C153      1.0  0.17308  0.33745  0.61916  1.0000
  C   C154      1.0  0.18249  0.34499  0.63564  1.0000
  C   C155      1.0  0.17386  0.35083  0.59777  1.0000
  C   C156      1.0  0.19198  0.36468  0.63086  1.0000
  C   C157      1.0  0.18380  0.37028  0.59306  1.0000
  C   C158      1.0  0.19282  0.37720  0.60960  1.0000
  H   H188      1.0  0.15583  0.31395  0.65995  1.0000
  H   H189      1.0  0.15586  0.28894  0.64919  1.0000
  H   H190      1.0  0.18204  0.29861  0.64820  1.0000
  H   H191      1.0  0.13442  0.33118  0.60546  1.0000
  H   H192      1.0  0.13053  0.33731  0.63364  1.0000
  H   H193      1.0  0.12806  0.31008  0.62867  1.0000
  H   H194      1.0  0.16430  0.28622  0.61098  1.0000
  H   H195      1.0  0.16788  0.30942  0.58992  1.0000
  H   H196      1.0  0.18990  0.29803  0.60623  1.0000
  H   H197      1.0  0.18269  0.33610  0.65241  1.0000
  H   H198      1.0  0.16672  0.34635  0.58453  1.0000
  H   H199      1.0  0.19936  0.37000  0.64353  1.0000
  H   H200      1.0  0.18463  0.38001  0.57649  1.0000
  H   H201      1.0  0.20093  0.39204  0.60591  1.0000
  C   C159      1.0  0.23261  0.19250  0.96264  1.0000
  C   C160      1.0  0.23676  0.24795  0.97233  1.0000
  Fe  Fe24      1.0  0.23274  0.24968  0.87290  1.0000
  S   S47       1.0  0.24043  0.35869  0.68834  1.0000
  C   C161      1.0  0.00465  0.33976  0.69309  1.0000
  C   C162      1.0  0.21767  0.23297  0.67417  1.0000
  C   C163      1.0  0.22741  0.15506  0.78067  1.0000
  C   C164      1.0  0.17242  0.23952  0.67023  1.0000
  C   C165      1.0  0.18809  0.24369  0.65131  1.0000
  H   H202      1.0  0.19833  0.27551  0.78408  1.0000
  C   C166      1.0  0.19172  0.21864  0.73498  1.0000
  H   H203      1.0  0.21272  0.18590  0.71165  1.0000
  C   C167      1.0  0.21163  0.28615  0.77769  1.0000
  H   H204      1.0  0.15492  0.24154  0.66842  1.0000
  H   H205      1.0  0.03511  0.36213  0.64443  1.0000
  C   C168      1.0  0.23166  0.48309  0.68985  1.0000
  C   C169      1.0  0.23272  0.25177  0.93272  1.0000
  C   C170      1.0  0.00344  0.26520  0.71603  1.0000
  H   H206      1.0  0.23737  0.31234  0.74884  1.0000
  C   C171      1.0  0.24242  0.20564  0.60568  1.0000
  H   H207      1.0  0.22967  0.23026  0.73744  1.0000
  H   H208      1.0  0.05766  0.33313  0.70673  1.0000
  H   H209      1.0  0.22817  0.21145  0.91791  1.0000
  H   H210      1.0  0.22666  0.03318  0.75239  1.0000
  C   C172      1.0  0.24056  0.32457  0.59054  1.0000
  S   S48       1.0  0.24554  0.17728  0.84195  1.0000
  C   C173      1.0  0.23602  0.18705  0.59962  1.0000
  N   N12       1.0  0.24120  0.18805  0.50503  1.0000
  H   H211      1.0  0.23793  0.19776  0.70180  1.0000
  H   H212      1.0  0.21584  0.25293  0.71975  1.0000
  Fe  Fe25      1.0  0.24187  0.38403  0.65737  1.0000
  H   H213      1.0  0.19695  0.32990  0.99221  1.0000
  C   C174      1.0  0.24072  0.30950  0.62969  1.0000
  S   S49       1.0  0.23825  0.27936  0.60248  1.0000
  H   H214      1.0  0.22915  0.19071  0.73124  1.0000
  C   C175      1.0  0.23829  0.02924  0.69670  1.0000
  C   C176      1.0  0.24216  0.99961  0.74876  1.0000
  H   H215      1.0  0.24449  0.35940  0.58175  1.0000
  C   C177      1.0  0.24002  0.16609  0.61281  1.0000
  C   C178      1.0  0.24467  0.34855  0.61710  1.0000
  C   C179      1.0  0.24219  0.02174  0.75113  1.0000
  C   C180      1.0  0.24336  0.34549  0.59519  1.0000
  S   S50       1.0  0.24543  0.24631  0.55003  1.0000
  S   S51       1.0  0.24560  0.25428  0.90433  1.0000
  C   C181      1.0  0.24584  0.14364  0.79052  1.0000
  H   H216      1.0  0.24575  0.15192  0.51066  1.0000
  H   H217      1.0  0.20710  0.79516  0.12148  1.0000
  H   H218      1.0  0.15959  0.78863  0.14456  1.0000
  H   H219      1.0  0.24031  0.55112  0.09344  1.0000
  H   H220      1.0  0.16402  0.71691  0.17497  1.0000
  S   S52       1.0  0.22987  0.87266  0.17646  1.0000
  H   H221      1.0  0.21746  0.63639  0.24557  1.0000
  C   C182      1.0  0.16338  0.79020  0.12597  1.0000
  S   S53       1.0  0.19731  0.79205  0.32832  1.0000
  Fe  Fe26      1.0  0.23109  0.85705  0.21227  1.0000
  S   S54       1.0  0.20953  0.83356  0.23468  1.0000
  H   H222      1.0  0.17878  0.88156  0.28099  1.0000
  C   C183      1.0  0.22037  0.74627  0.18130  1.0000
  Fe  Fe27      1.0  0.15044  0.69871  0.21803  1.0000
  S   S55       1.0  0.13594  0.69215  0.25417  1.0000
  S   S56       1.0  0.16290  0.67224  0.19581  1.0000
  Fe  Fe28      1.0  0.14289  0.74886  0.21720  1.0000
  S   S57       1.0  0.12696  0.74663  0.25332  1.0000
  S   S58       1.0  0.15187  0.77942  0.19357  1.0000
  Fe  Fe29      1.0  0.15517  0.71860  0.25886  1.0000
  S   S59       1.0  0.17859  0.71194  0.28465  1.0000
  Fe  Fe30      1.0  0.10891  0.72048  0.24519  1.0000
  S   S60       1.0  0.07319  0.71490  0.25986  1.0000
  S   S61       1.0  0.17200  0.72250  0.22331  1.0000
  S   S62       1.0  0.12244  0.72540  0.20853  1.0000
  C   C184      1.0  0.22402  0.62341  0.21422  1.0000
  H   H223      1.0  0.22801  0.74162  0.27236  1.0000
  C   C185      1.0  0.05142  0.71232  0.24521  1.0000
  C   C186      1.0  0.03179  0.70503  0.25748  1.0000
  C   C187      1.0  0.01388  0.70319  0.24664  1.0000
  C   C188      1.0  0.01521  0.70908  0.22342  1.0000
  C   C189      1.0  0.03502  0.71590  0.21109  1.0000
  C   C190      1.0  0.05302  0.71757  0.22190  1.0000
  H   H224      1.0  0.03048  0.70072  0.27549  1.0000
  H   H225      1.0  0.99921  0.69687  0.25619  1.0000
  H   H226      1.0  0.03633  0.72021  0.19308  1.0000
  H   H227      1.0  0.06788  0.72344  0.21222  1.0000
  C   C191      1.0  0.18339  0.73456  0.29650  1.0000
  C   C192      1.0  0.17274  0.75633  0.29068  1.0000
  C   C193      1.0  0.17700  0.77395  0.30052  1.0000
  H   H228      1.0  0.18229  0.73978  0.09325  1.0000
  C   C194      1.0  0.20324  0.74828  0.32127  1.0000
  C   C195      1.0  0.19859  0.73062  0.31188  1.0000
  H   H229      1.0  0.16097  0.75953  0.27888  1.0000
  C   C196      1.0  0.17251  0.71451  0.11930  1.0000
  H   H230      1.0  0.21495  0.74496  0.33311  1.0000
  H   H231      1.0  0.20662  0.71382  0.31680  1.0000
  C   C197      1.0  0.21679  0.62434  0.19361  1.0000
  C   C198      1.0  0.03743  0.76920  0.24701  1.0000
  H   H232      1.0  0.22074  0.69788  0.13609  1.0000
  H   H233      1.0  0.14821  0.78728  0.11990  1.0000
  H   H234      1.0  0.16587  0.80789  0.11993  1.0000
  C   C199      1.0  0.22213  0.72403  0.17788  1.0000
  C   C200      1.0  0.19221  0.76994  0.31591  1.0000
  C   C201      1.0  0.19483  0.81790  0.22238  1.0000
  C   C202      1.0  0.19298  0.82244  0.19955  1.0000
  C   C203      1.0  0.17992  0.81043  0.19065  1.0000
  C   C204      1.0  0.16906  0.79364  0.20448  1.0000
  C   C205      1.0  0.17178  0.78849  0.22705  1.0000
  C   C206      1.0  0.18440  0.80077  0.23603  1.0000
  H   H235      1.0  0.20099  0.83562  0.18892  1.0000
  H   H236      1.0  0.17792  0.81444  0.17315  1.0000
  H   H237      1.0  0.16356  0.77551  0.23779  1.0000
  H   H238      1.0  0.18571  0.79721  0.25370  1.0000
  C   C207      1.0  0.18826  0.77970  0.09360  1.0000
  H   H239      1.0  0.17401  0.75395  0.16160  1.0000
  H   H240      1.0  0.20885  0.71475  0.18620  1.0000
  H   H241      1.0  0.16283  0.69120  0.14834  1.0000
  H   H242      1.0  0.22727  0.67896  0.19521  1.0000
  S   S63       1.0  0.23664  0.80522  0.36782  1.0000
  C   C208      1.0  0.19790  0.63931  0.18817  1.0000
  C   C209      1.0  0.18629  0.65353  0.20322  1.0000
  C   C210      1.0  0.19350  0.65270  0.22383  1.0000
  C   C211      1.0  0.21221  0.63745  0.22941  1.0000
  H   H243      1.0  0.19230  0.63984  0.17225  1.0000
  H   H244      1.0  0.18447  0.66353  0.23561  1.0000
  C   C212      1.0  0.24108  0.78172  0.26303  1.0000
  H   H245      1.0  0.17218  0.70312  0.10767  1.0000
  Fe  Fe31      1.0  0.22726  0.78313  0.34642  1.0000
  H   H246      1.0  0.16842  0.79068  0.29628  1.0000
  H   H247      1.0  0.23107  0.84989  0.32713  1.0000
  N   N13       1.0  0.24244  0.69004  0.16139  1.0000
  N   N14       1.0  0.20339  0.85604  0.29510  1.0000
  C   C213      1.0  0.24251  0.70562  0.47012  1.0000
  H   H248      1.0  0.05502  0.77045  0.24187  1.0000
  S   S64       1.0  0.22885  0.93879  0.17482  1.0000
  C   C214      1.0  0.21883  0.87104  0.29796  1.0000
  H   H249      1.0  0.24203  0.79443  0.00778  1.0000
  C   C215      1.0  0.02807  0.76927  0.26937  1.0000
  C   C216      1.0  0.17377  0.74341  0.14931  1.0000
  C   C217      1.0  0.21661  0.62968  0.09307  1.0000
  H   H250      1.0  0.19703  0.84103  0.32992  1.0000
  H   H251      1.0  0.20585  0.82338  0.28556  1.0000
  H   H252      1.0  0.22600  0.82555  0.30251  1.0000
  H   H253      1.0  0.20343  0.76874  0.08683  1.0000
  C   C218      1.0  0.23834  0.74518  0.25569  1.0000
  C   C219      1.0  0.18925  0.86556  0.27738  1.0000
  H   H254      1.0  0.03193  0.76582  0.21420  1.0000
  H   H255      1.0  0.19949  0.86847  0.26060  1.0000
  H   H256      1.0  0.17782  0.85389  0.27564  1.0000
  S   S65       1.0  0.23659  0.75165  0.36951  1.0000
  H   H257      1.0  0.22655  0.75236  0.24347  1.0000
  H   H258      1.0  0.20595  0.75369  0.19194  1.0000
  C   C220      1.0  0.23699  0.75905  0.17097  1.0000
  H   H259      1.0  0.17881  0.86648  0.32228  1.0000
  H   H260      1.0  0.03853  0.77070  0.28147  1.0000
  N   N15       1.0  0.09409  0.65287  0.22625  1.0000
  C   C221      1.0  0.10402  0.67322  0.21589  1.0000
  C   C222      1.0  0.09270  0.65135  0.25092  1.0000
  C   C223      1.0  0.10951  0.63310  0.21922  1.0000
  C   C224      1.0  0.07222  0.65396  0.21875  1.0000
  C   C225      1.0  0.05189  0.65334  0.23385  1.0000
  C   C226      1.0  0.07079  0.65595  0.19558  1.0000
  C   C227      1.0  0.03152  0.65474  0.22606  1.0000
  C   C228      1.0  0.05029  0.65765  0.18799  1.0000
  C   C229      1.0  0.03069  0.65713  0.20320  1.0000
  H   H261      1.0  0.09291  0.68849  0.22060  1.0000
  H   H262      1.0  0.12030  0.67303  0.22145  1.0000
  H   H263      1.0  0.10745  0.67501  0.19733  1.0000
  H   H264      1.0  0.08202  0.66626  0.25720  1.0000
  H   H265      1.0  0.10939  0.65080  0.25596  1.0000
  H   H266      1.0  0.08606  0.63599  0.25994  1.0000
  H   H267      1.0  0.11322  0.63406  0.20071  1.0000
  H   H268      1.0  0.12600  0.63156  0.22507  1.0000
  H   H269      1.0  0.10236  0.61741  0.22604  1.0000
  H   H270      1.0  0.05111  0.65235  0.25171  1.0000
  H   H271      1.0  0.08551  0.65658  0.18311  1.0000
  H   H272      1.0  0.01609  0.65489  0.23773  1.0000
  H   H273      1.0  0.04949  0.65976  0.17020  1.0000
  C   C230      1.0  0.00560  0.76680  0.27630  1.0000
  H   H274      1.0  0.22900  0.83809  0.27360  1.0000
  C   C231      1.0  0.17824  0.73583  0.11122  1.0000
  C   C232      1.0  0.22274  0.68652  0.15212  1.0000
  C   C233      1.0  0.20253  0.77821  0.12795  1.0000
  C   C234      1.0  0.17866  0.75113  0.12610  1.0000
  H   H275      1.0  0.22563  0.61340  0.18189  1.0000
  C   C235      1.0  0.16729  0.70773  0.14219  1.0000
  N   N16       1.0  0.18319  0.77433  0.11835  1.0000
  H   H276      1.0  0.22440  0.83314  0.10317  1.0000
  H   H277      1.0  0.23323  0.52362  0.14258  1.0000
  C   C236      1.0  0.20947  0.65205  0.08483  1.0000
  H   H278      1.0  0.22090  0.67201  0.25994  1.0000
  H   H279      1.0  0.24106  0.84852  0.13034  1.0000
  H   H280      1.0  0.17403  0.77804  0.08528  1.0000
  C   C237      1.0  0.16804  0.72215  0.15716  1.0000
  H   H281      1.0  0.19178  0.79719  0.08828  1.0000
  H   H282      1.0  0.22033  0.98642  0.16191  1.0000
  C   C238      1.0  0.24311  0.67588  0.18355  1.0000
  H   H283      1.0  0.21755  0.76589  0.12365  1.0000
  S   S66       1.0  0.21216  0.69670  0.07642  1.0000
  H   H284      1.0  0.19904  0.77724  0.14646  1.0000
  C   C239      1.0  0.23208  0.86519  0.31550  1.0000
  S   S67       1.0  0.24067  0.74829  0.04355  1.0000
  C   C240      1.0  0.23471  0.62406  0.10503  1.0000
  H   H285      1.0  0.20695  0.68931  0.16387  1.0000
  C   C241      1.0  0.18813  0.85092  0.31629  1.0000
  H   H286      1.0  0.22412  0.66905  0.14868  1.0000
  H   H287      1.0  0.17575  0.84040  0.31418  1.0000
  C   C242      1.0  0.24286  0.53247  0.09679  1.0000
  H   H288      1.0  0.20802  0.61671  0.09016  1.0000
  H   H289      1.0  0.01471  0.65913  0.19729  1.0000
  H   H290      1.0  0.19540  0.65625  0.07566  1.0000
  S   S68       1.0  0.24394  0.59567  0.11398  1.0000
  H   H291      1.0  0.21317  0.89676  0.26887  1.0000
  C   C243      1.0  0.22228  0.89093  0.28284  1.0000
  C   C244      1.0  0.21667  0.83487  0.28895  1.0000
  C   C245      1.0  0.23662  0.96123  0.18526  1.0000
  H   H292      1.0  0.23554  0.77632  0.17356  1.0000
  C   C246      1.0  0.02440  0.76658  0.23146  1.0000
  H   H293      1.0  0.22879  0.70189  0.46307  1.0000
  C   C247      1.0  0.22092  0.66889  0.08775  1.0000
  H   H294      1.0  0.22676  0.69300  0.28858  1.0000
  S   S69       1.0  0.23997  0.79646  0.07816  1.0000
  H   H295      1.0  0.22621  0.77642  0.47366  1.0000
  C   C248      1.0  0.23014  0.98336  0.17547  1.0000
  S   S70       1.0  0.23884  0.88778  0.22303  1.0000
  H   H296      1.0  0.22731  0.78839  0.25302  1.0000
  H   H297      1.0  0.23258  0.77918  0.28071  1.0000
  H   H298      1.0  0.22598  0.52773  0.10287  1.0000
  C   C249      1.0  0.24031  0.82507  0.10795  1.0000
  C   C250      1.0  0.24071  0.71385  0.16406  1.0000
  Fe  Fe32      1.0  0.24144  0.90223  0.18658  1.0000
  Fe  Fe33      1.0  0.23981  0.71740  0.06910  1.0000
  H   H299      1.0  0.24568  0.65775  0.18208  1.0000
  H   H300      1.0  0.22781  0.49454  0.12523  1.0000
  C   C251      1.0  0.23915  0.66335  0.09960  1.0000
  C   C252      1.0  0.24108  0.68546  0.27801  1.0000
  H   H301      1.0  0.99959  0.76666  0.29392  1.0000
  C   C253      1.0  0.24419  0.77539  0.47026  1.0000
  C   C254      1.0  0.23783  0.67349  0.26181  1.0000
  C   C255      1.0  0.00207  0.76363  0.23824  1.0000
  C   C256      1.0  0.24153  0.70365  0.49336  1.0000
  H   H302      1.0  0.24367  0.54958  0.13324  1.0000
  C   C257      1.0  0.23832  0.90374  0.28498  1.0000
  C   C258      1.0  0.24570  0.64098  0.10870  1.0000
  S   S71       1.0  0.23933  0.77159  0.42733  1.0000
  H   H303      1.0  0.24117  0.91842  0.27280  1.0000
  H   H304      1.0  0.14098  0.84891  0.82218  1.0000
  H   H305      1.0  0.20580  0.75878  0.62684  1.0000
  C   C259      1.0  0.14470  0.84900  0.77764  1.0000
  H   H306      1.0  0.22288  0.70648  0.53819  1.0000
  H   H307      1.0  0.22475  0.54018  0.68559  1.0000
  H   H308      1.0  0.14117  0.80572  0.77428  1.0000
  H   H309      1.0  0.14197  0.78631  0.64187  1.0000
  C   C260      1.0  0.18930  0.75296  0.62861  1.0000
  S   S72       1.0  0.17448  0.63109  0.72282  1.0000
  H   H310      1.0  0.13213  0.82200  0.83056  1.0000
  H   H311      1.0  0.11520  0.84421  0.81513  1.0000
  Fe  Fe34      1.0  0.09178  0.78516  0.72129  1.0000
  S   S73       1.0  0.11501  0.78832  0.68856  1.0000
  S   S74       1.0  0.05484  0.79990  0.72292  1.0000
  Fe  Fe35      1.0  0.13065  0.76713  0.74749  1.0000
  S   S75       1.0  0.15649  0.76856  0.71708  1.0000
  S   S76       1.0  0.14157  0.75419  0.78115  1.0000
  Fe  Fe36      1.0  0.13737  0.80194  0.70653  1.0000
  S   S77       1.0  0.15613  0.82950  0.68723  1.0000
  Fe  Fe37      1.0  0.13249  0.75470  0.70162  1.0000
  S   S78       1.0  0.14915  0.73086  0.67759  1.0000
  S   S79       1.0  0.11298  0.80183  0.73828  1.0000
  S   S80       1.0  0.10778  0.75017  0.73314  1.0000
  C   C261      1.0  0.13271  0.83642  0.81676  1.0000
  H   H312      1.0  0.11514  0.81711  0.78983  1.0000
  C   C262      1.0  0.14710  0.88626  0.74314  1.0000
  C   C263      1.0  0.16777  0.81913  0.79842  1.0000
  C   C264      1.0  0.13326  0.81150  0.79045  1.0000
  N   N17       1.0  0.14452  0.82929  0.79540  1.0000
  C   C265      1.0  0.13375  0.87031  0.74242  1.0000
  C   C266      1.0  0.15877  0.88424  0.76112  1.0000
  H   H313      1.0  0.18075  0.75422  0.64598  1.0000
  H   H314      1.0  0.14880  0.89997  0.72951  1.0000
  C   C267      1.0  0.13236  0.85200  0.75944  1.0000
  C   C268      1.0  0.16708  0.65864  0.71000  1.0000
  C   C269      1.0  0.17869  0.66673  0.68931  1.0000
  C   C270      1.0  0.17277  0.68880  0.67928  1.0000
  C   C271      1.0  0.15561  0.70304  0.69014  1.0000
  C   C272      1.0  0.14406  0.69501  0.71088  1.0000
  C   C273      1.0  0.14961  0.67274  0.72066  1.0000
  H   H315      1.0  0.19189  0.65583  0.68077  1.0000
  H   H316      1.0  0.18161  0.69486  0.66313  1.0000
  H   H317      1.0  0.13063  0.70583  0.71925  1.0000
  H   H318      1.0  0.14049  0.66651  0.73661  1.0000
  C   C274      1.0  0.20872  0.76769  0.79428  1.0000
  C   C275      1.0  0.19589  0.75407  0.81018  1.0000
  C   C276      1.0  0.17559  0.74960  0.80571  1.0000
  C   C277      1.0  0.16801  0.75864  0.78531  1.0000
  C   C278      1.0  0.18112  0.77181  0.76912  1.0000
  C   C279      1.0  0.20145  0.77630  0.77360  1.0000
  H   H319      1.0  0.20121  0.74755  0.82624  1.0000
  H   H320      1.0  0.16554  0.73939  0.81830  1.0000
  H   H321      1.0  0.17530  0.77914  0.75347  1.0000
  H   H322      1.0  0.21125  0.78699  0.76130  1.0000
  C   C280      1.0  0.17378  0.84186  0.69962  1.0000
  C   C281      1.0  0.17733  0.83474  0.72182  1.0000
  C   C282      1.0  0.19114  0.84544  0.73126  1.0000
  C   C283      1.0  0.20132  0.86331  0.71863  1.0000
  C   C284      1.0  0.19851  0.86976  0.69617  1.0000
  C   C285      1.0  0.18475  0.85906  0.68671  1.0000
  H   H323      1.0  0.16912  0.82134  0.73182  1.0000
  H   H324      1.0  0.19352  0.84027  0.74856  1.0000
  H   H325      1.0  0.20635  0.88347  0.68629  1.0000
  H   H326      1.0  0.18223  0.86450  0.66945  1.0000
  H   H327      1.0  0.12494  0.87176  0.72821  1.0000
  C   C286      1.0  0.18931  0.51861  0.73634  1.0000
  C   C287      1.0  0.01398  0.75337  0.72439  1.0000
  C   C288      1.0  0.03325  0.76339  0.72326  1.0000
  C   C289      1.0  0.03123  0.78608  0.72503  1.0000
  C   C290      1.0  0.22905  0.68631  0.62445  1.0000
  H   H328      1.0  0.21843  0.70210  0.82191  1.0000
  H   H329      1.0  0.01575  0.73584  0.72288  1.0000
  H   H330      1.0  0.04965  0.75357  0.72094  1.0000
  C   C291      1.0  0.00974  0.79853  0.72808  1.0000
  H   H331      1.0  0.20114  0.52309  0.74533  1.0000
  H   H332      1.0  0.19963  0.79154  0.70109  1.0000
  C   C292      1.0  0.16125  0.50390  0.71241  1.0000
  C   C293      1.0  0.99632  0.77989  0.66880  1.0000
  H   H333      1.0  0.23137  0.71196  0.74477  1.0000
  H   H334      1.0  0.22705  0.67202  0.74119  1.0000
  H   H335      1.0  0.16849  0.80267  0.80951  1.0000
  H   H336      1.0  0.22535  0.85446  0.63401  1.0000
  H   H337      1.0  0.14542  0.53759  0.70718  1.0000
  H   H338      1.0  0.14641  0.75344  0.63210  1.0000
  H   H339      1.0  0.19818  0.72339  0.68103  1.0000
  S   S81       1.0  0.23530  0.64158  0.69765  1.0000
  C   C294      1.0  0.20849  0.80329  0.65742  1.0000
  H   H340      1.0  0.19262  0.73490  0.62681  1.0000
  H   H341      1.0  0.21081  0.68553  0.71949  1.0000
  H   H342      1.0  0.13557  0.82473  0.64890  1.0000
  C   C295      1.0  0.22469  0.50574  0.68208  1.0000
  S   S82       1.0  0.23464  0.98601  0.69231  1.0000
  H   H343      1.0  0.21609  0.81339  0.69706  1.0000
  C   C296      1.0  0.16387  0.83425  0.62569  1.0000
  H   H344      1.0  0.24228  0.88258  0.64760  1.0000
  C   C297      1.0  0.23054  0.52292  0.69153  1.0000
  H   H345      1.0  0.20587  0.82170  0.65747  1.0000
  H   H346      1.0  0.21399  0.80038  0.63976  1.0000
  N   N18       1.0  0.17033  0.55885  0.72778  1.0000
  C   C298      1.0  0.17174  0.57181  0.70489  1.0000
  C   C299      1.0  0.14828  0.56607  0.74062  1.0000
  C   C300      1.0  0.18770  0.56483  0.73886  1.0000
  C   C301      1.0  0.17283  0.53465  0.72645  1.0000
  C   C302      1.0  0.15856  0.52649  0.71481  1.0000
  H   H347      1.0  0.15741  0.57096  0.69641  1.0000
  H   H348      1.0  0.17172  0.58994  0.70513  1.0000
  H   H349      1.0  0.18727  0.56554  0.69414  1.0000
  H   H350      1.0  0.14601  0.58421  0.74214  1.0000
  H   H351      1.0  0.14646  0.55654  0.75786  1.0000
  H   H352      1.0  0.13422  0.56358  0.73254  1.0000
  H   H353      1.0  0.20476  0.56008  0.72985  1.0000
  H   H354      1.0  0.18558  0.58316  0.73928  1.0000
  H   H355      1.0  0.18695  0.55669  0.75661  1.0000
  H   H356      1.0  0.15063  0.49809  0.70290  1.0000
  N   N19       1.0  0.20069  0.69795  0.75126  1.0000
  C   C303      1.0  0.21355  0.71675  0.74221  1.0000
  C   C304      1.0  0.20990  0.67960  0.73780  1.0000
  C   C305      1.0  0.17712  0.70580  0.74802  1.0000
  C   C306      1.0  0.20157  0.68987  0.77535  1.0000
  C   C307      1.0  0.19223  0.67043  0.78598  1.0000
  C   C308      1.0  0.21077  0.70130  0.78907  1.0000
  C   C309      1.0  0.19279  0.66252  0.80872  1.0000
  C   C310      1.0  0.21098  0.69337  0.81182  1.0000
  C   C311      1.0  0.20224  0.67393  0.82158  1.0000
  N   N20       1.0  0.22517  0.79145  0.67191  1.0000
  Fe  Fe38      1.0  0.23901  0.90145  0.71055  1.0000
  H   H357      1.0  0.21337  0.72188  0.72393  1.0000
  H   H358      1.0  0.22871  0.73875  0.95767  1.0000
  H   H359      1.0  0.23498  0.70310  0.66697  1.0000
  H   H360      1.0  0.19947  0.66595  0.74121  1.0000
  H   H361      1.0  0.16945  0.71922  0.75831  1.0000
  H   H362      1.0  0.17557  0.71258  0.73021  1.0000
  H   H363      1.0  0.16668  0.69216  0.75308  1.0000
  H   H364      1.0  0.18433  0.66123  0.77682  1.0000
  H   H365      1.0  0.24408  0.78639  0.98060  1.0000
  H   H366      1.0  0.18590  0.64745  0.81642  1.0000
  H   H367      1.0  0.00829  0.78685  0.67653  1.0000
  H   H368      1.0  0.20307  0.66765  0.83912  1.0000
  C   C312      1.0  0.21687  0.79551  0.69529  1.0000
  H   H369      1.0  0.17798  0.81631  0.78205  1.0000
  S   S83       1.0  0.23027  0.59902  0.73838  1.0000
  H   H370      1.0  0.20081  0.80079  0.59419  1.0000
  H   H371      1.0  0.17916  0.77517  0.57609  1.0000
  H   H372      1.0  0.21457  0.50999  0.66874  1.0000
  C   C313      1.0  0.15745  0.86605  0.77826  1.0000
  C   C314      1.0  0.18209  0.82724  0.61032  1.0000
  H   H373      1.0  0.20631  0.73189  0.75019  1.0000
  H   H374      1.0  0.19367  0.76326  0.68308  1.0000
  H   H375      1.0  0.12190  0.84022  0.75762  1.0000
  H   H376      1.0  0.13426  0.79640  0.80348  1.0000
  H   H377      1.0  0.17639  0.82964  0.80617  1.0000
  H   H378      1.0  0.19172  0.79809  0.66293  1.0000
  Fe  Fe39      1.0  0.21048  0.61832  0.71194  1.0000
  S   S84       1.0  0.21634  0.87797  0.73179  1.0000
  H   H379      1.0  0.18926  0.74629  0.58550  1.0000
  H   H380      1.0  0.20527  0.76683  0.58716  1.0000
  H   H381      1.0  0.19367  0.83876  0.60233  1.0000
  C   C315      1.0  0.14942  0.81933  0.63650  1.0000
  H   H382      1.0  0.16699  0.86519  0.79170  1.0000
  S   S85       1.0  0.22294  0.59457  0.68691  1.0000
  H   H383      1.0  0.16956  0.89644  0.76131  1.0000
  H   H384      1.0  0.15763  0.73956  0.60903  1.0000
  N   N21       1.0  0.17556  0.76615  0.61198  1.0000
  C   C316      1.0  0.15456  0.75640  0.61438  1.0000
  C   C317      1.0  0.18772  0.76368  0.58916  1.0000
  C   C318      1.0  0.17120  0.78971  0.61605  1.0000
  C   C319      1.0  0.15317  0.79729  0.63212  1.0000
  C   C320      1.0  0.18590  0.80528  0.60564  1.0000
  H   H385      1.0  0.16121  0.85113  0.62969  1.0000
  C   C321      1.0  0.21012  0.75501  0.67741  1.0000
  H   H386      1.0  0.22353  0.65514  0.64546  1.0000
  H   H387      1.0  0.14239  0.76736  0.60429  1.0000
  H   H388      1.0  0.00799  0.81606  0.72961  1.0000
  H   H389      1.0  0.21191  0.69402  0.62812  1.0000
  C   C322      1.0  0.23321  0.72073  0.66833  1.0000
  H   H390      1.0  0.00607  0.77192  0.65447  1.0000
  H   H391      1.0  0.23891  0.74157  0.52588  1.0000
  C   C323      1.0  0.21254  0.73217  0.67621  1.0000
  H   H392      1.0  0.21797  0.71640  0.78277  1.0000
  S   S86       1.0  0.23532  0.72518  0.59651  1.0000
  C   C324      1.0  0.19159  0.49602  0.73410  1.0000
  S   S87       1.0  0.23572  0.72612  0.85363  1.0000
  C   C325      1.0  0.22841  0.76716  0.67086  1.0000
  H   H393      1.0  0.00166  0.82062  0.65134  1.0000
  C   C326      1.0  0.23561  0.66428  0.63429  1.0000
  S   S88       1.0  0.23540  0.92396  0.67787  1.0000
  S   S89       1.0  0.23293  0.77551  0.80051  1.0000
  H   H394      1.0  0.22669  0.69820  0.50340  1.0000
  H   H395      1.0  0.22789  0.78537  0.70710  1.0000
  C   C327      1.0  0.24358  0.51764  0.70883  1.0000
  H   H396      1.0  0.24095  0.67981  0.53755  1.0000
  H   H397      1.0  0.23994  0.69619  0.55937  1.0000
  C   C328      1.0  0.23961  0.69723  0.54105  1.0000
  C   C329      1.0  0.24238  0.85693  0.62739  1.0000
  H   H398      1.0  0.24267  0.82004  0.66503  1.0000
  S   S90       1.0  0.24236  0.82420  0.60210  1.0000
  H   H399      1.0  0.24493  0.86018  0.76461  1.0000
  Fe  Fe40      1.0  0.24479  0.57659  0.71220  1.0000
  C   C330      1.0  0.24453  0.69824  0.60981  1.0000
  H   H400      1.0  0.24474  0.82041  0.78094  1.0000
  S   S91       1.0  0.24549  0.73845  0.91111  1.0000
  C   C331      1.0  0.24588  0.80173  0.66433  1.0000
  H   H401      1.0  0.22660  0.99391  0.74796  1.0000
  H   H402      1.0  0.29687  0.43108  0.16979  1.0000
  Fe  Fe41      1.0  0.26752  0.08926  0.15473  1.0000
  H   H403      1.0  0.39755  0.28981  0.21072  1.0000
  S   S92       1.0  0.29015  0.08930  0.12175  1.0000
  C   C332      1.0  0.26518  0.32271  0.26000  1.0000
  C   C333      1.0  0.37002  0.29631  0.24696  1.0000
  S   S93       1.0  0.26551  0.12943  0.22079  1.0000
  S   S94       1.0  0.28115  0.07559  0.18686  1.0000
  Fe  Fe42      1.0  0.28060  0.34730  0.20654  1.0000
  S   S95       1.0  0.29882  0.37525  0.18806  1.0000
  S   S96       1.0  0.28799  0.32648  0.23896  1.0000
  S   S97       1.0  0.24935  0.42649  0.17806  1.0000
  S   S98       1.0  0.27149  0.37367  0.14604  1.0000
  H   H404      1.0  0.30499  0.45417  0.11517  1.0000
  Fe  Fe43      1.0  0.30330  0.35658  0.15875  1.0000
  S   S99       1.0  0.33548  0.34962  0.13572  1.0000
  C   C334      1.0  0.26557  0.30245  0.27453  1.0000
  H   H405      1.0  0.27787  0.01018  0.10964  1.0000
  S   S100      1.0  0.28821  0.32744  0.17817  1.0000
  H   H406      1.0  0.38458  0.30360  0.24955  1.0000
  Fe  Fe44      1.0  0.37353  0.18758  0.20663  1.0000
  S   S101      1.0  0.38120  0.19255  0.23985  1.0000
  S   S102      1.0  0.36285  0.15668  0.19873  1.0000
  Fe  Fe45      1.0  0.38708  0.23182  0.18361  1.0000
  S   S103      1.0  0.39571  0.24088  0.21467  1.0000
  S   S104      1.0  0.39097  0.25273  0.14974  1.0000
  Fe  Fe46      1.0  0.41248  0.20530  0.22072  1.0000
  S   S105      1.0  0.44429  0.19387  0.23672  1.0000
  Fe  Fe47      1.0  0.36417  0.22747  0.23112  1.0000
  S   S106      1.0  0.34037  0.24663  0.25552  1.0000
  S   S107      1.0  0.40623  0.19716  0.18815  1.0000
  S   S108      1.0  0.35399  0.22165  0.19945  1.0000
  H   H407      1.0  0.31611  0.46422  0.16628  1.0000
  C   C335      1.0  0.46992  0.20483  0.22825  1.0000
  C   C336      1.0  0.47446  0.21827  0.20760  1.0000
  C   C337      1.0  0.37103  0.31872  0.20924  1.0000
  H   H408      1.0  0.30604  0.25630  0.15571  1.0000
  H   H409      1.0  0.41809  0.30047  0.17411  1.0000
  Fe  Fe48      1.0  0.25771  0.20267  0.05473  1.0000
  H   H410      1.0  0.46180  0.22297  0.19670  1.0000
  H   H411      1.0  0.34798  0.34862  0.19862  1.0000
  H   H412      1.0  0.28896  0.19106  0.26952  1.0000
  H   H413      1.0  0.33583  0.25148  0.15553  1.0000
  C   C338      1.0  0.31684  0.23452  0.26906  1.0000
  C   C339      1.0  0.30228  0.24515  0.28550  1.0000
  C   C340      1.0  0.28301  0.23628  0.29628  1.0000
  C   C341      1.0  0.27830  0.21661  0.29082  1.0000
  C   C342      1.0  0.29282  0.20597  0.27423  1.0000
  C   C343      1.0  0.31212  0.21491  0.26335  1.0000
  H   H414      1.0  0.30598  0.26023  0.29006  1.0000
  H   H415      1.0  0.29164  0.28158  0.23112  1.0000
  H   H416      1.0  0.32325  0.20674  0.25051  1.0000
  C   C344      1.0  0.35041  0.32247  0.14035  1.0000
  C   C345      1.0  0.34645  0.30822  0.16065  1.0000
  C   C346      1.0  0.35909  0.28684  0.16397  1.0000
  C   C347      1.0  0.37555  0.27965  0.14685  1.0000
  C   C348      1.0  0.37945  0.29387  0.12661  1.0000
  C   C349      1.0  0.36703  0.31523  0.12342  1.0000
  H   H417      1.0  0.33422  0.31399  0.17401  1.0000
  H   H418      1.0  0.35615  0.27592  0.17967  1.0000
  H   H419      1.0  0.39220  0.28839  0.11336  1.0000
  H   H420      1.0  0.37030  0.32620  0.10777  1.0000
  H   H421      1.0  0.25409  0.19533  0.23760  1.0000
  H   H422      1.0  0.35091  0.27033  0.10836  1.0000
  H   H423      1.0  0.26885  0.32986  0.12356  1.0000
  H   H424      1.0  0.35747  0.34199  0.24353  1.0000
  H   H425      1.0  0.24678  0.27252  0.18028  1.0000
  H   H426      1.0  0.34726  0.21594  0.15049  1.0000
  H   H427      1.0  0.47574  0.14364  0.22914  1.0000
  C   C350      1.0  0.39110  0.30531  0.20122  1.0000
  H   H428      1.0  0.32942  0.31034  0.21381  1.0000
  H   H429      1.0  0.31120  0.28278  0.10793  1.0000
  C   C351      1.0  0.29205  0.13821  0.21335  1.0000
  C   C352      1.0  0.30887  0.12695  0.19921  1.0000
  C   C353      1.0  0.33034  0.13313  0.19463  1.0000
  C   C354      1.0  0.33510  0.15089  0.20377  1.0000
  C   C355      1.0  0.31808  0.16275  0.21733  1.0000
  C   C356      1.0  0.29668  0.15622  0.22232  1.0000
  H   H430      1.0  0.30553  0.11309  0.19219  1.0000
  H   H431      1.0  0.34340  0.12391  0.18411  1.0000
  H   H432      1.0  0.32153  0.17652  0.22441  1.0000
  H   H433      1.0  0.28385  0.16478  0.23354  1.0000
  C   C357      1.0  0.28832  0.11363  0.10177  1.0000
  C   C358      1.0  0.30100  0.13211  0.06452  1.0000
  C   C359      1.0  0.30258  0.11356  0.08134  1.0000
  H   H434      1.0  0.31206  0.13185  0.04876  1.0000
  H   H435      1.0  0.31482  0.09904  0.07844  1.0000
  C   C360      1.0  0.27007  0.45154  0.12221  1.0000
  H   H436      1.0  0.30329  0.25491  0.22388  1.0000
  H   H437      1.0  0.27279  0.43342  0.12551  1.0000
  C   C361      1.0  0.25426  0.28730  0.21412  1.0000
  C   C362      1.0  0.28727  0.44711  0.17257  1.0000
  C   C363      1.0  0.29814  0.46596  0.17054  1.0000
  C   C364      1.0  0.28479  0.48667  0.11351  1.0000
  C   C365      1.0  0.28511  0.15090  0.06794  1.0000
  H   H438      1.0  0.27046  0.15578  0.30054  1.0000
  H   H439      1.0  0.26130  0.08497  0.08233  1.0000
  H   H440      1.0  0.36112  0.24329  0.12180  1.0000
  H   H441      1.0  0.25971  0.29657  0.19741  1.0000
  H   H442      1.0  0.29428  0.19854  0.18935  1.0000
  C   C366      1.0  0.28818  0.46329  0.11645  1.0000
  C   C367      1.0  0.28025  0.99517  0.12156  1.0000
  H   H443      1.0  0.29564  0.00654  0.17861  1.0000
  H   H444      1.0  0.29409  0.18881  0.11284  1.0000
  C   C368      1.0  0.36372  0.33820  0.19461  1.0000
  C   C369      1.0  0.24700  0.33962  0.26277  1.0000
  H   H445      1.0  0.34275  0.17656  0.15758  1.0000
  S   S109      1.0  0.25719  0.23651  0.03394  1.0000
  N   N22       1.0  0.30449  0.01158  0.14251  1.0000
  C   C370      1.0  0.25570  0.29027  0.09709  1.0000
  H   H446      1.0  0.35088  0.24596  0.09566  1.0000
  H   H447      1.0  0.26206  0.12793  0.27932  1.0000
  C   C371      1.0  0.25832  0.24195  0.16780  1.0000
  H   H448      1.0  0.33649  0.32561  0.25877  1.0000
  C   C372      1.0  0.28396  0.14553  0.29141  1.0000
  S   S110      1.0  0.25265  0.21577  0.08734  1.0000
  H   H449      1.0  0.28035  0.31262  0.08881  1.0000
  C   C373      1.0  0.37609  0.34419  0.17369  1.0000
  C   C374      1.0  0.28295  0.22920  0.20336  1.0000
  H   H450      1.0  0.27212  0.20975  0.15819  1.0000
  H   H451      1.0  0.31262  0.04415  0.12701  1.0000
  H   H452      1.0  0.33208  0.34120  0.23276  1.0000
  C   C375      1.0  0.26666  0.30716  0.10099  1.0000
  H   H453      1.0  0.29284  0.22349  0.21680  1.0000
  H   H454      1.0  0.27084  0.23869  0.24625  1.0000
  C   C376      1.0  0.40317  0.31129  0.18012  1.0000
  C   C377      1.0  0.29652  0.11679  0.26792  1.0000
  C   C378      1.0  0.28386  0.21474  0.18779  1.0000
  H   H455      1.0  0.26888  0.10564  0.04413  1.0000
  C   C379      1.0  0.29415  0.01975  0.16382  1.0000
  H   H456      1.0  0.48326  0.18859  0.25821  1.0000
  H   H457      1.0  0.36983  0.35882  0.16259  1.0000
  C   C380      1.0  0.30324  0.03104  0.12438  1.0000
  H   H458      1.0  0.32298  0.27751  0.14276  1.0000
  N   N23       1.0  0.35701  0.31157  0.23062  1.0000
  N   N24       1.0  0.26880  0.26550  0.21845  1.0000
  C   C381      1.0  0.33997  0.29958  0.22567  1.0000
  H   H459      1.0  0.37598  0.27957  0.24173  1.0000
  H   H460      1.0  0.29269  0.10487  0.25846  1.0000
  C   C382      1.0  0.49255  0.14770  0.22410  1.0000
  S   S111      1.0  0.28321  0.17352  0.04609  1.0000
  H   H461      1.0  0.35960  0.29262  0.26356  1.0000
  C   C383      1.0  0.34546  0.33098  0.24179  1.0000
  C   C384      1.0  0.26399  0.44921  0.17751  1.0000
  H   H462      1.0  0.34779  0.28439  0.21807  1.0000
  H   H463      1.0  0.30188  0.03386  0.16684  1.0000
  C   C385      1.0  0.32849  0.00325  0.14361  1.0000
  H   H464      1.0  0.40474  0.33498  0.14982  1.0000
  H   H465      1.0  0.27195  0.24460  0.30901  1.0000
  H   H466      1.0  0.33779  0.01692  0.14490  1.0000
  H   H467      1.0  0.26140  0.13269  0.12100  1.0000
  H   H468      1.0  0.27599  0.02572  0.16382  1.0000
  C   C386      1.0  0.39570  0.33070  0.16641  1.0000
  Fe  Fe49      1.0  0.26563  0.39031  0.17714  1.0000
  H   H469      1.0  0.29716  0.22833  0.10568  1.0000
  H   H470      1.0  0.31115  0.26049  0.09291  1.0000
  C   C387      1.0  0.29164  0.27019  0.21881  1.0000
  H   H471      1.0  0.29148  0.26375  0.11816  1.0000
  C   C388      1.0  0.27086  0.15115  0.08842  1.0000
  C   C389      1.0  0.24876  0.99784  0.20078  1.0000
  C   C390      1.0  0.27253  0.13253  0.10538  1.0000
  H   H472      1.0  0.27975  0.28948  0.27252  1.0000
  C   C391      1.0  0.26271  0.48898  0.17945  1.0000
  H   H473      1.0  0.31050  0.02611  0.10771  1.0000
  C   C392      1.0  0.27919  0.12989  0.27961  1.0000
  H   H474      1.0  0.25095  0.18443  0.01320  1.0000
  H   H475      1.0  0.29897  0.27824  0.20211  1.0000
  H   H476      1.0  0.31626  0.16269  0.13903  1.0000
  C   C393      1.0  0.28594  0.48706  0.17368  1.0000
  N   N25       1.0  0.34785  0.13778  0.27895  1.0000
  C   C394      1.0  0.35910  0.14210  0.25553  1.0000
  C   C395      1.0  0.35069  0.15637  0.29039  1.0000
  C   C396      1.0  0.35944  0.11675  0.29019  1.0000
  C   C397      1.0  0.32419  0.13546  0.27926  1.0000
  C   C398      1.0  0.30609  0.14831  0.29137  1.0000
  C   C399      1.0  0.31868  0.11944  0.26773  1.0000
  H   H477      1.0  0.33653  0.99564  0.12843  1.0000
  S   S112      1.0  0.25414  0.20545  0.30423  1.0000
  C   C400      1.0  0.27146  0.22105  0.17014  1.0000
  H   H478      1.0  0.37692  0.14407  0.25461  1.0000
  H   H479      1.0  0.35924  0.12847  0.24569  1.0000
  H   H480      1.0  0.35069  0.15767  0.24648  1.0000
  H   H481      1.0  0.34220  0.17273  0.28270  1.0000
  H   H482      1.0  0.36861  0.15824  0.28911  1.0000
  H   H483      1.0  0.34410  0.15360  0.30858  1.0000
  H   H484      1.0  0.35972  0.10236  0.28126  1.0000
  H   H485      1.0  0.37716  0.11800  0.29092  1.0000
  H   H486      1.0  0.35103  0.11249  0.30766  1.0000
  H   H487      1.0  0.30845  0.16085  0.30079  1.0000
  H   H488      1.0  0.33144  0.10892  0.25824  1.0000
  C   C401      1.0  0.26957  0.25058  0.20162  1.0000
  H   H489      1.0  0.25841  0.16553  0.09109  1.0000
  H   H490      1.0  0.32862  0.29415  0.24116  1.0000
  N   N26       1.0  0.32516  0.25036  0.12386  1.0000
  C   C402      1.0  0.30902  0.26484  0.11015  1.0000
  C   C403      1.0  0.32234  0.25918  0.14543  1.0000
  C   C404      1.0  0.34796  0.25257  0.11190  1.0000
  C   C405      1.0  0.32216  0.22649  0.12800  1.0000
  C   C406      1.0  0.33497  0.21085  0.14249  1.0000
  C   C407      1.0  0.30727  0.21789  0.11738  1.0000
  C   C408      1.0  0.33263  0.18820  0.14655  1.0000
  C   C409      1.0  0.30525  0.19512  0.12139  1.0000
  C   C410      1.0  0.31778  0.18035  0.13606  1.0000
  C   C411      1.0  0.48663  0.19889  0.24218  1.0000
  H   H491      1.0  0.28574  0.03948  0.12384  1.0000
  S   S113      1.0  0.26504  0.27778  0.07265  1.0000
  Fe  Fe50      1.0  0.25602  0.34538  0.16802  1.0000
  C   C412      1.0  0.26010  0.25448  0.24098  1.0000
  H   H492      1.0  0.25470  0.29846  0.22655  1.0000
  H   H493      1.0  0.48460  0.16799  0.19347  1.0000
  Fe  Fe51      1.0  0.25827  0.10436  0.20061  1.0000
  C   C413      1.0  0.26017  0.31694  0.12066  1.0000
  C   C414      1.0  0.26100  0.20708  0.44298  1.0000
  C   C415      1.0  0.25730  0.25658  0.18323  1.0000
  S   S114      1.0  0.25676  0.02022  0.21115  1.0000
  H   H494      1.0  0.25293  0.19519  0.41477  1.0000
  H   H495      1.0  0.27010  0.21974  0.43262  1.0000
  H   H496      1.0  0.25148  0.27543  0.43844  1.0000
  H   H497      1.0  0.25928  0.26523  0.25411  1.0000
  C   C416      1.0  0.25181  0.47021  0.18106  1.0000
  C   C417      1.0  0.25799  0.20557  0.46630  1.0000
  C   C418      1.0  0.25139  0.19322  0.43288  1.0000
  H   H498      1.0  0.26520  0.21750  0.47284  1.0000
  C   C419      1.0  0.24995  0.09974  0.07696  1.0000
  C   C420      1.0  0.25113  0.18382  0.99559  1.0000
  C   C421      1.0  0.25428  0.11140  0.05547  1.0000
  Fe  Fe52      1.0  0.25149  0.05687  0.19539  1.0000
  S   S115      1.0  0.24694  0.11925  0.16773  1.0000
  Fe  Fe53      1.0  0.24827  0.24968  0.06696  1.0000
  H   H499      1.0  0.24810  0.28317  0.30275  1.0000
  H   H500      1.0  0.25006  0.29750  0.01010  1.0000
  H   H501      1.0  0.24884  0.24690  0.15389  1.0000
  C   C422      1.0  0.24773  0.29892  0.29169  1.0000
  H   H502      1.0  0.24682  0.35545  0.25178  1.0000
  C   C423      1.0  0.24846  0.46308  0.12511  1.0000
  S   S116      1.0  0.24703  0.36327  0.19811  1.0000
  C   C424      1.0  0.49562  0.22524  0.20081  1.0000
  C   C425      1.0  0.33837  0.18719  0.63783  1.0000
  H   H503      1.0  0.28304  0.16673  0.77573  1.0000
  S   S117      1.0  0.28427  0.36254  0.72406  1.0000
  Fe  Fe54      1.0  0.30125  0.13213  0.72353  1.0000
  S   S118      1.0  0.27277  0.15954  0.72050  1.0000
  S   S119      1.0  0.33082  0.13877  0.73737  1.0000
  Fe  Fe55      1.0  0.27842  0.10008  0.70511  1.0000
  H   H504      1.0  0.25728  0.21813  0.62919  1.0000
  S   S120      1.0  0.28915  0.06508  0.69537  1.0000
  Fe  Fe56      1.0  0.27181  0.15006  0.68715  1.0000
  S   S121      1.0  0.26747  0.18179  0.66288  1.0000
  H   H505      1.0  0.27689  0.19958  0.75082  1.0000
  C   C426      1.0  0.25241  0.20353  0.62487  1.0000
  S   S122      1.0  0.30239  0.12441  0.68898  1.0000
  S   S123      1.0  0.27948  0.10626  0.74020  1.0000
  Fe  Fe57      1.0  0.43429  0.25905  0.71823  1.0000
  S   S124      1.0  0.41787  0.26522  0.68704  1.0000
  S   S125      1.0  0.47168  0.24732  0.71790  1.0000
  Fe  Fe58      1.0  0.38964  0.26484  0.74846  1.0000
  S   S126      1.0  0.36996  0.27119  0.71996  1.0000
  S   S127      1.0  0.37293  0.26396  0.78431  1.0000
  Fe  Fe59      1.0  0.39339  0.24309  0.70649  1.0000
  S   S128      1.0  0.37601  0.22302  0.68889  1.0000
  Fe  Fe60      1.0  0.39540  0.29286  0.70299  1.0000
  S   S129      1.0  0.38257  0.32535  0.68282  1.0000
  S   S130      1.0  0.41131  0.23457  0.73655  1.0000
  S   S131      1.0  0.41370  0.28874  0.73259  1.0000
  C   C427      1.0  0.34212  0.16324  0.72491  1.0000
  C   C428      1.0  0.35877  0.16989  0.73428  1.0000
  C   C429      1.0  0.36889  0.18867  0.72383  1.0000
  C   C430      1.0  0.36254  0.20069  0.70383  1.0000
  C   C431      1.0  0.34570  0.19419  0.69470  1.0000
  C   C432      1.0  0.33528  0.17572  0.70530  1.0000
  H   H506      1.0  0.36410  0.16032  0.74949  1.0000
  H   H507      1.0  0.38203  0.19344  0.73089  1.0000
  H   H508      1.0  0.34103  0.20331  0.67911  1.0000
  H   H509      1.0  0.32253  0.17070  0.69786  1.0000
  C   C433      1.0  0.26232  0.02941  0.75073  1.0000
  C   C434      1.0  0.29688  0.27204  0.78995  1.0000
  C   C435      1.0  0.30955  0.28165  0.77063  1.0000
  C   C436      1.0  0.33278  0.27959  0.76912  1.0000
  C   C437      1.0  0.34359  0.26765  0.78674  1.0000
  C   C438      1.0  0.33086  0.25850  0.80634  1.0000
  C   C439      1.0  0.30752  0.26058  0.80791  1.0000
  H   H510      1.0  0.34220  0.28793  0.75462  1.0000
  H   H511      1.0  0.33909  0.24947  0.82016  1.0000
  H   H512      1.0  0.29784  0.25344  0.82304  1.0000
  C   C440      1.0  0.31157  0.35277  0.71208  1.0000
  C   C441      1.0  0.32012  0.36049  0.68996  1.0000
  C   C442      1.0  0.34223  0.35257  0.68118  1.0000
  C   C443      1.0  0.35566  0.33670  0.69439  1.0000
  C   C444      1.0  0.34710  0.32917  0.71651  1.0000
  C   C445      1.0  0.32508  0.33702  0.72524  1.0000
  H   H513      1.0  0.30983  0.37272  0.67971  1.0000
  H   H514      1.0  0.34884  0.35855  0.66407  1.0000
  H   H515      1.0  0.35750  0.31736  0.72695  1.0000
  H   H516      1.0  0.31855  0.33076  0.74225  1.0000
  H   H517      1.0  0.26788  0.35140  0.82526  1.0000
  H   H518      1.0  0.29931  0.32025  0.65523  1.0000
  H   H519      1.0  0.30139  0.29106  0.75690  1.0000
  H   H520      1.0  0.42430  0.29359  0.79403  1.0000
  H   H521      1.0  0.24739  0.24620  0.98504  1.0000
  C   C446      1.0  0.27312  0.00557  0.68720  1.0000
  H   H522      1.0  0.26401  0.24938  0.94497  1.0000
  N   N27       1.0  0.25330  0.18302  0.92482  1.0000
  S   S132      1.0  0.26374  0.40431  0.66910  1.0000
  H   H523      1.0  0.32325  0.24789  0.68875  1.0000
  H   H524      1.0  0.37588  0.34182  0.75782  1.0000
  H   H525      1.0  0.27318  0.26371  0.63077  1.0000
  H   H526      1.0  0.47074  0.29487  0.71982  1.0000
  H   H527      1.0  0.32255  0.31114  0.63464  1.0000
  C   C447      1.0  0.27330  0.04392  0.69352  1.0000
  C   C448      1.0  0.28476  0.02325  0.68802  1.0000
  C   C449      1.0  0.49192  0.26307  0.72198  1.0000
  H   H528      1.0  0.37238  0.14771  0.68402  1.0000
  H   H529      1.0  0.24971  0.16440  0.53372  1.0000
  H   H530      1.0  0.32674  0.32559  0.65605  1.0000
  H   H531      1.0  0.30279  0.02088  0.68439  1.0000
  H   H532      1.0  0.42917  0.25934  0.77671  1.0000
  C   C450      1.0  0.39068  0.13133  0.64616  1.0000
  H   H533      1.0  0.31994  0.28069  0.70323  1.0000
  C   C451      1.0  0.31243  0.34969  0.78343  1.0000
  H   H534      1.0  0.39631  0.14715  0.64785  1.0000
  H   H535      1.0  0.36727  0.17481  0.65343  1.0000
  C   C452      1.0  0.33305  0.14266  0.63939  1.0000
  H   H536      1.0  0.32686  0.99987  0.73078  1.0000
  Fe  Fe61      1.0  0.25952  0.38041  0.70129  1.0000
  H   H537      1.0  0.30328  0.15624  0.62452  1.0000
  H   H538      1.0  0.32964  0.21926  0.74822  1.0000
  H   H539      1.0  0.37509  0.21352  0.79456  1.0000
  H   H540      1.0  0.36062  0.31200  0.78566  1.0000
  N   N28       1.0  0.32173  0.29122  0.66740  1.0000
  C   C453      1.0  0.48353  0.26055  0.78068  1.0000
  H   H541      1.0  0.26235  0.04691  0.75159  1.0000
  C   C454      1.0  0.24984  0.00831  0.69192  1.0000
  C   C455      1.0  0.25815  0.15966  0.92003  1.0000
  C   C456      1.0  0.35377  0.17001  0.64695  1.0000
  C   C457      1.0  0.28669  0.23964  0.65665  1.0000
  N   N29       1.0  0.29701  0.19640  0.77713  1.0000
  H   H542      1.0  0.25596  0.12952  0.78357  1.0000
  C   C458      1.0  0.36735  0.13168  0.68208  1.0000
  H   H543      1.0  0.35027  0.13102  0.69162  1.0000
  N   N30       1.0  0.36787  0.12933  0.65830  1.0000
  C   C459      1.0  0.36348  0.10636  0.65779  1.0000
  C   C460      1.0  0.31218  0.25210  0.67620  1.0000
  C   C461      1.0  0.32028  0.18218  0.62975  1.0000
  C   C462      1.0  0.32487  0.19479  0.80316  1.0000
  C   C463      1.0  0.27832  0.33410  0.78623  1.0000
  C   C464      1.0  0.44090  0.28436  0.79048  1.0000
  C   C465      1.0  0.27809  0.20725  0.79196  1.0000
  H   H544      1.0  0.28829  0.18676  0.91549  1.0000
  H   H545      1.0  0.27316  0.46498  0.64814  1.0000
  C   C466      1.0  0.34452  0.36374  0.75858  1.0000
  C   C467      1.0  0.28579  0.34901  0.81765  1.0000
  C   C468      1.0  0.31767  0.15999  0.63047  1.0000
  C   C469      1.0  0.25593  0.18286  0.63841  1.0000
  H   H546      1.0  0.32972  0.12591  0.63967  1.0000
  C   C470      1.0  0.35154  0.14718  0.64814  1.0000
  H   H547      1.0  0.30627  0.19589  0.74168  1.0000
  H   H548      1.0  0.35581  0.29667  0.66616  1.0000
  H   H549      1.0  0.35193  0.27955  0.64648  1.0000
  Fe  Fe62      1.0  0.24841  0.25834  0.82208  1.0000
  H   H550      1.0  0.34697  0.10329  0.66758  1.0000
  C   C471      1.0  0.34619  0.28364  0.66374  1.0000
  H   H551      1.0  0.29656  0.30046  0.69466  1.0000
  H   H552      1.0  0.35117  0.37645  0.74583  1.0000
  H   H553      1.0  0.30262  0.21906  0.68303  1.0000
  C   C472      1.0  0.33311  0.21325  0.76505  1.0000
  C   C473      1.0  0.24617  0.24968  0.94956  1.0000
  C   C474      1.0  0.25230  0.16613  0.51504  1.0000
  S   S133      1.0  0.24771  0.12562  0.70018  1.0000
  S   S134      1.0  0.26018  0.23246  0.84957  1.0000
  C   C475      1.0  0.45947  0.29186  0.79550  1.0000
  H   H554      1.0  0.27890  0.20109  0.80999  1.0000
  H   H555      1.0  0.28725  0.47832  0.67805  1.0000
  C   C476      1.0  0.25208  0.18321  0.94917  1.0000
  S   S135      1.0  0.26772  0.27578  0.79141  1.0000
  H   H556      1.0  0.27062  0.16405  0.50919  1.0000
  C   C477      1.0  0.27543  0.37368  0.78511  1.0000
  H   H557      1.0  0.39144  0.13087  0.62795  1.0000
  H   H558      1.0  0.35140  0.26852  0.67556  1.0000
  H   H559      1.0  0.40330  0.11756  0.65269  1.0000
  H   H560      1.0  0.26482  0.14090  0.81764  1.0000
  H   H561      1.0  0.30802  0.19549  0.62319  1.0000
  C   C478      1.0  0.30969  0.27373  0.66332  1.0000
  C   C479      1.0  0.35338  0.21723  0.76979  1.0000
  H   H562      1.0  0.49483  0.27274  0.83099  1.0000
  H   H563      1.0  0.27782  0.22570  0.78951  1.0000
  H   H564      1.0  0.31284  0.16295  0.77317  1.0000
  H   H565      1.0  0.29199  0.29338  0.63629  1.0000
  H   H566      1.0  0.32296  0.30914  0.69424  1.0000
  H   H567      1.0  0.27555  0.37630  0.76665  1.0000
  C   C480      1.0  0.35846  0.34420  0.76524  1.0000
  C   C481      1.0  0.34520  0.19890  0.80769  1.0000
  C   C482      1.0  0.31494  0.29544  0.69090  1.0000
  H   H568      1.0  0.27817  0.22654  0.65398  1.0000
  H   H569      1.0  0.34987  0.19362  0.82426  1.0000
  H   H570      1.0  0.32120  0.31612  0.80135  1.0000
  C   C483      1.0  0.31729  0.31291  0.65264  1.0000
  C   C484      1.0  0.31828  0.20169  0.78163  1.0000
  H   H571      1.0  0.37879  0.11814  0.69067  1.0000
  H   H572      1.0  0.29424  0.36125  0.82328  1.0000
  C   C485      1.0  0.29722  0.17184  0.78172  1.0000
  C   C486      1.0  0.29289  0.20403  0.75364  1.0000
  H   H573      1.0  0.28106  0.33474  0.76768  1.0000
  H   H574      1.0  0.28209  0.38779  0.78960  1.0000
  H   H575      1.0  0.37608  0.09336  0.66543  1.0000
  H   H576      1.0  0.36435  0.22628  0.75701  1.0000
  N   N31       1.0  0.28840  0.35178  0.79283  1.0000
  H   H577      1.0  0.29182  0.22251  0.74931  1.0000
  C   C487      1.0  0.28395  0.26057  0.64363  1.0000
  H   H578      1.0  0.26173  0.20385  0.78888  1.0000
  C   C488      1.0  0.27042  0.17454  0.98294  1.0000
  C   C489      1.0  0.32182  0.36655  0.76744  1.0000
  H   H579      1.0  0.36401  0.10322  0.64034  1.0000
  C   C490      1.0  0.29508  0.27752  0.64692  1.0000
  C   C491      1.0  0.32717  0.32999  0.78982  1.0000
  C   C492      1.0  0.30062  0.23544  0.67300  1.0000
  H   H580      1.0  0.31188  0.38172  0.76081  1.0000
  C   C493      1.0  0.34982  0.32739  0.78087  1.0000
  H   H581      1.0  0.28552  0.31713  0.79349  1.0000
  H   H582      1.0  0.29292  0.33200  0.82505  1.0000
  C   C494      1.0  0.35947  0.21000  0.79099  1.0000
  H   H583      1.0  0.29602  0.16525  0.79989  1.0000
  H   H584      1.0  0.34031  0.20451  0.63734  1.0000
  H   H585      1.0  0.31433  0.18608  0.81661  1.0000
  C   C495      1.0  0.24994  0.04694  0.69760  1.0000
  H   H586      1.0  0.26002  0.33561  0.79199  1.0000
  C   C496      1.0  0.28387  0.48980  0.66306  1.0000
  H   H587      1.0  0.25753  0.37485  0.79269  1.0000
  C   C497      1.0  0.48722  0.28614  0.72213  1.0000
  C   C498      1.0  0.24996  0.16398  0.63231  1.0000
  H   H588      1.0  0.28638  0.16693  0.95095  1.0000
  H   H589      1.0  0.29744  0.02226  0.74735  1.0000
  H   H590      1.0  0.45654  0.30703  0.80290  1.0000
  Fe  Fe63      1.0  0.25082  0.13356  0.73394  1.0000
  C   C499      1.0  0.48139  0.28008  0.79090  1.0000
  C   C500      1.0  0.27095  0.17413  0.96009  1.0000
  H   H591      1.0  0.27457  0.15102  0.92445  1.0000
  C   C501      1.0  0.46482  0.25322  0.77579  1.0000
  H   H592      1.0  0.26952  0.21233  0.91718  1.0000
  C   C502      1.0  0.28252  0.01495  0.74816  1.0000
  C   C503      1.0  0.44358  0.26504  0.78071  1.0000
  H   H593      1.0  0.46686  0.23851  0.76760  1.0000
  C   C504      1.0  0.25082  0.15007  0.80982  1.0000
  H   H594      1.0  0.26058  0.49071  0.73004  1.0000
  C   C505      1.0  0.27596  0.48223  0.64620  1.0000
  H   H595      1.0  0.27156  0.19761  0.89387  1.0000
  H   H596      1.0  0.26444  0.49103  0.61433  1.0000
  C   C506      1.0  0.27147  0.19536  0.91232  1.0000
  H   H597      1.0  0.28511  0.16792  0.99096  1.0000
  H   H598      1.0  0.25008  0.46047  0.71339  1.0000
  H   H599      1.0  0.25859  0.15892  0.90187  1.0000
  H   H600      1.0  0.25285  0.14789  0.64262  1.0000
  H   H601      1.0  0.47864  0.28923  0.66539  1.0000
  S   S136      1.0  0.24824  0.37511  0.62220  1.0000
  C   C507      1.0  0.24974  0.20570  0.51352  1.0000
  H   H602      1.0  0.48270  0.30158  0.82628  1.0000
  H   H603      1.0  0.48819  0.32350  0.78909  1.0000
  H   H604      1.0  0.26819  0.20469  0.50920  1.0000
  H   H605      1.0  0.24613  0.20416  0.53210  1.0000
  C   C508      1.0  0.28096  0.84725  0.27091  1.0000
  H   H606      1.0  0.28253  0.63184  0.07484  1.0000
  H   H607      1.0  0.25952  0.97935  0.10584  1.0000
  S   S137      1.0  0.29020  0.74989  0.05675  1.0000
  C   C509      1.0  0.26773  0.76414  0.23360  1.0000
  H   H608      1.0  0.29948  0.82995  0.49027  1.0000
  S   S138      1.0  0.27414  0.70166  0.05676  1.0000
  H   H609      1.0  0.26388  0.90710  0.30357  1.0000
  Fe  Fe64      1.0  0.28460  0.71918  0.08153  1.0000
  S   S139      1.0  0.30624  0.69853  0.10576  1.0000
  H   H610      1.0  0.27072  0.80024  0.18381  1.0000
  C   C510      1.0  0.28366  0.95537  0.15153  1.0000
  Fe  Fe65      1.0  0.26581  0.58885  0.19120  1.0000
  Fe  Fe66      1.0  0.26621  0.85831  0.17130  1.0000
  H   H611      1.0  0.32927  0.83440  0.42165  1.0000
  Fe  Fe67      1.0  0.30753  0.59189  0.15757  1.0000
  S   S140      1.0  0.29832  0.56899  0.13704  1.0000
  S   S141      1.0  0.33645  0.61108  0.14522  1.0000
  Fe  Fe68      1.0  0.26388  0.58789  0.14256  1.0000
  S   S142      1.0  0.29391  0.73243  0.99689  1.0000
  Fe  Fe69      1.0  0.28807  0.54765  0.16973  1.0000
  S   S143      1.0  0.27384  0.61277  0.16009  1.0000
  S   S144      1.0  0.30041  0.56933  0.19000  1.0000
  Fe  Fe70      1.0  0.42116  0.70785  0.19912  1.0000
  S   S145      1.0  0.39855  0.74057  0.20069  1.0000
  Fe  Fe71      1.0  0.38237  0.68102  0.21313  1.0000
  S   S146      1.0  0.35650  0.71127  0.21660  1.0000
  S   S147      1.0  0.37256  0.64641  0.22144  1.0000
  Fe  Fe72      1.0  0.37537  0.72609  0.18456  1.0000
  S   S148      1.0  0.35514  0.74859  0.16016  1.0000
  Fe  Fe73      1.0  0.38124  0.72342  0.23264  1.0000
  S   S149      1.0  0.37020  0.74415  0.26041  1.0000
  S   S150      1.0  0.39948  0.69489  0.17955  1.0000
  S   S151      1.0  0.40561  0.69171  0.23261  1.0000
  Fe  Fe74      1.0  0.27015  0.75120  0.34800  1.0000
  S   S152      1.0  0.28389  0.77004  0.36978  1.0000
  S   S153      1.0  0.28633  0.72155  0.33100  1.0000
  C   C511      1.0  0.48468  0.76103  0.17116  1.0000
  H   H612      1.0  0.27515  0.55296  0.10293  1.0000
  C   C512      1.0  0.48140  0.65415  0.22683  1.0000
  C   C513      1.0  0.25527  0.77311  0.44850  1.0000
  H   H613      1.0  0.42195  0.61783  0.22195  1.0000
  C   C514      1.0  0.47786  0.71138  0.20093  1.0000
  C   C515      1.0  0.44863  0.65410  0.25516  1.0000
  S   S154      1.0  0.30030  0.87518  0.23521  1.0000
  N   N32       1.0  0.45060  0.63428  0.22134  1.0000
  C   C516      1.0  0.29637  0.86225  0.26320  1.0000
  C   C517      1.0  0.25732  0.72742  0.15366  1.0000
  C   C518      1.0  0.29266  0.84078  0.30780  1.0000
  H   H614      1.0  0.29743  0.68005  0.26952  1.0000
  C   C519      1.0  0.30986  0.86639  0.27775  1.0000
  C   C520      1.0  0.30784  0.85590  0.30000  1.0000
  H   H615      1.0  0.32186  0.87787  0.27181  1.0000
  H   H616      1.0  0.31817  0.85947  0.31117  1.0000
  C   C521      1.0  0.34654  0.73773  0.27940  1.0000
  C   C522      1.0  0.33627  0.75279  0.29415  1.0000
  C   C523      1.0  0.31757  0.74801  0.30978  1.0000
  C   C524      1.0  0.30928  0.72796  0.31097  1.0000
  C   C525      1.0  0.31934  0.71299  0.29601  1.0000
  C   C526      1.0  0.33787  0.71795  0.28009  1.0000
  H   H617      1.0  0.34294  0.76809  0.29369  1.0000
  H   H618      1.0  0.30995  0.75960  0.32131  1.0000
  H   H619      1.0  0.31305  0.69740  0.29707  1.0000
  H   H620      1.0  0.34587  0.70619  0.26886  1.0000
  Fe  Fe75      1.0  0.27624  0.73356  0.03281  1.0000
  C   C527      1.0  0.31635  0.83269  0.45628  1.0000
  C   C528      1.0  0.34722  0.62030  0.16627  1.0000
  C   C529      1.0  0.35679  0.64002  0.16133  1.0000
  C   C530      1.0  0.36473  0.64811  0.17811  1.0000
  C   C531      1.0  0.36393  0.63605  0.19970  1.0000
  C   C532      1.0  0.35519  0.61583  0.20439  1.0000
  C   C533      1.0  0.34647  0.60818  0.18784  1.0000
  H   H621      1.0  0.35780  0.64924  0.14456  1.0000
  H   H622      1.0  0.37149  0.66364  0.17422  1.0000
  H   H623      1.0  0.35494  0.60611  0.22090  1.0000
  H   H624      1.0  0.33959  0.59267  0.19165  1.0000
  H   H625      1.0  0.25961  0.63672  0.11794  1.0000
  Fe  Fe76      1.0  0.27042  0.80039  0.34715  1.0000
  C   C534      1.0  0.27840  0.66453  0.25099  1.0000
  C   C535      1.0  0.27073  0.82412  0.12888  1.0000
  C   C536      1.0  0.28186  0.80514  0.11955  1.0000
  C   C537      1.0  0.27222  0.79606  0.10459  1.0000
  C   C538      1.0  0.27139  0.95766  0.13399  1.0000
  H   H626      1.0  0.45310  0.72625  0.22555  1.0000
  H   H627      1.0  0.29817  0.79766  0.12367  1.0000
  H   H628      1.0  0.28110  0.78163  0.09729  1.0000
  C   C539      1.0  0.31867  0.71291  0.12148  1.0000
  C   C540      1.0  0.33030  0.70070  0.13847  1.0000
  C   C541      1.0  0.34126  0.71161  0.15070  1.0000
  C   C542      1.0  0.34054  0.73478  0.14594  1.0000
  C   C543      1.0  0.32825  0.74709  0.12947  1.0000
  C   C544      1.0  0.31727  0.73617  0.11723  1.0000
  H   H629      1.0  0.33113  0.68274  0.14193  1.0000
  H   H630      1.0  0.35060  0.70207  0.16348  1.0000
  H   H631      1.0  0.32768  0.76503  0.12581  1.0000
  H   H632      1.0  0.30821  0.74566  0.10420  1.0000
  H   H633      1.0  0.25693  0.83897  0.40489  1.0000
  C   C545      1.0  0.28525  0.80141  0.00316  1.0000
  H   H634      1.0  0.32826  0.63039  0.24275  1.0000
  C   C546      1.0  0.28748  0.81135  0.03983  1.0000
  H   H635      1.0  0.43594  0.66370  0.20160  1.0000
  C   C547      1.0  0.26290  0.49900  0.11603  1.0000
  C   C548      1.0  0.29412  0.97295  0.15435  1.0000
  H   H636      1.0  0.31617  0.68178  0.23108  1.0000
  H   H637      1.0  0.26661  0.80918  0.40892  1.0000
  C   C549      1.0  0.25614  0.77653  0.48763  1.0000
  H   H638      1.0  0.24918  0.52616  0.08055  1.0000
  C   C550      1.0  0.29049  0.77285  0.46170  1.0000
  C   C551      1.0  0.27851  0.77183  0.44431  1.0000
  N   N33       1.0  0.25858  0.52375  0.11321  1.0000
  C   C552      1.0  0.26961  0.97753  0.11909  1.0000
  C   C553      1.0  0.30980  0.80176  0.03836  1.0000
  H   H639      1.0  0.30847  0.77184  0.45828  1.0000
  H   H640      1.0  0.28724  0.76950  0.42782  1.0000
  S   S155      1.0  0.25996  0.78137  0.32388  1.0000
  H   H641      1.0  0.30824  0.79557  0.40512  1.0000
  C   C554      1.0  0.44716  0.64776  0.19936  1.0000
  C   C555      1.0  0.29836  0.62070  0.07798  1.0000
  S   S156      1.0  0.24984  0.73248  0.09578  1.0000
  H   H642      1.0  0.28756  0.52956  0.08881  1.0000
  H   H643      1.0  0.33224  0.83400  0.46098  1.0000
  H   H644      1.0  0.48080  0.73871  0.24398  1.0000
  H   H645      1.0  0.29105  0.52973  0.11756  1.0000
  H   H646      1.0  0.28452  0.86561  0.39655  1.0000
  Fe  Fe77      1.0  0.27450  0.87318  0.21412  1.0000
  H   H647      1.0  0.29236  0.72431  0.45340  1.0000
  H   H648      1.0  0.48222  0.61711  0.20693  1.0000
  H   H649      1.0  0.24810  0.67632  0.10173  1.0000
  C   C556      1.0  0.32000  0.79171  0.01972  1.0000
  C   C557      1.0  0.30982  0.81207  0.39469  1.0000
  S   S157      1.0  0.27782  0.88905  0.17813  1.0000
  C   C558      1.0  0.27833  0.71821  0.46463  1.0000
  H   H650      1.0  0.43223  0.65010  0.26233  1.0000
  H   H651      1.0  0.41585  0.64229  0.23482  1.0000
  H   H652      1.0  0.30254  0.97064  0.16885  1.0000
  H   H653      1.0  0.44867  0.67241  0.28222  1.0000
  S   S158      1.0  0.30059  0.51041  0.16959  1.0000
  C   C559      1.0  0.25159  0.80626  0.09841  1.0000
  H   H654      1.0  0.29198  0.65689  0.10023  1.0000
  H   H655      1.0  0.29384  0.60801  0.09269  1.0000
  H   H656      1.0  0.30056  0.63053  0.11691  1.0000
  C   C560      1.0  0.49539  0.74799  0.13539  1.0000
  C   C561      1.0  0.27545  0.82845  0.44462  1.0000
  H   H657      1.0  0.46298  0.65241  0.18925  1.0000
  C   C562      1.0  0.27941  0.77513  0.48347  1.0000
  H   H658      1.0  0.29068  0.73267  0.23765  1.0000
  H   H659      1.0  0.28233  0.64660  0.21087  1.0000
  H   H660      1.0  0.28379  0.62456  0.23453  1.0000
  H   H661      1.0  0.27026  0.82534  0.38178  1.0000
  H   H662      1.0  0.31280  0.73863  0.20053  1.0000
  H   H663      1.0  0.43944  0.63884  0.18901  1.0000
  C   C563      1.0  0.45793  0.66694  0.26690  1.0000
  H   H664      1.0  0.32193  0.65086  0.26064  1.0000
  H   H665      1.0  0.26819  0.75974  0.14889  1.0000
  C   C564      1.0  0.29866  0.75095  0.20541  1.0000
  C   C565      1.0  0.28600  0.74791  0.22674  1.0000
  C   C566      1.0  0.31403  0.64026  0.25226  1.0000
  C   C567      1.0  0.46010  0.64739  0.23459  1.0000
  H   H666      1.0  0.31902  0.80164  0.05197  1.0000
  S   S159      1.0  0.29015  0.82893  0.33622  1.0000
  C   C568      1.0  0.29331  0.76990  0.19015  1.0000
  C   C569      1.0  0.31449  0.83269  0.43385  1.0000
  H   H667      1.0  0.33848  0.83277  0.13718  1.0000
  H   H668      1.0  0.26739  0.82483  0.29915  1.0000
  C   C570      1.0  0.42878  0.62752  0.23234  1.0000
  C   C571      1.0  0.27733  0.71679  0.48778  1.0000
  C   C572      1.0  0.29271  0.63785  0.22380  1.0000
  H   H669      1.0  0.29816  0.68149  0.21093  1.0000
  H   H670      1.0  0.32423  0.66313  0.21089  1.0000
  H   H671      1.0  0.27052  0.84401  0.25967  1.0000
  H   H672      1.0  0.30555  0.62832  0.26539  1.0000
  N   N34       1.0  0.31525  0.63361  0.08207  1.0000
  C   C573      1.0  0.30623  0.64334  0.10292  1.0000
  C   C574      1.0  0.33580  0.61775  0.08584  1.0000
  C   C575      1.0  0.32070  0.65157  0.06340  1.0000
  C   C576      1.0  0.33505  0.66664  0.06559  1.0000
  C   C577      1.0  0.31216  0.65469  0.04273  1.0000
  C   C578      1.0  0.33973  0.68430  0.04863  1.0000
  C   C579      1.0  0.31714  0.67231  0.02577  1.0000
  C   C580      1.0  0.33070  0.68720  0.02881  1.0000
  H   H673      1.0  0.31894  0.65052  0.10925  1.0000
  H   H674      1.0  0.30462  0.61142  0.06355  1.0000
  H   H675      1.0  0.34841  0.62584  0.09131  1.0000
  H   H676      1.0  0.33226  0.60362  0.09938  1.0000
  H   H677      1.0  0.34372  0.61068  0.07034  1.0000
  H   H678      1.0  0.34224  0.66529  0.08076  1.0000
  H   H679      1.0  0.30113  0.64417  0.03940  1.0000
  H   H680      1.0  0.35001  0.69608  0.05113  1.0000
  H   H681      1.0  0.25930  0.82611  0.44152  1.0000
  H   H682      1.0  0.26259  0.94424  0.13247  1.0000
  H   H683      1.0  0.26294  0.69158  0.12907  1.0000
  H   H684      1.0  0.47198  0.76435  0.18533  1.0000
  N   N35       1.0  0.29821  0.65346  0.23742  1.0000
  C   C581      1.0  0.25613  0.66301  0.24851  1.0000
  H   H685      1.0  0.30794  0.62913  0.21447  1.0000
  S   S160      1.0  0.45857  0.70289  0.18692  1.0000
  H   H686      1.0  0.33723  0.78372  0.01893  1.0000
  H   H687      1.0  0.30983  0.67499  0.01044  1.0000
  H   H688      1.0  0.27835  0.68331  0.15245  1.0000
  C   C582      1.0  0.29683  0.85173  0.39023  1.0000
  H   H689      1.0  0.45907  0.60276  0.20857  1.0000
  C   C583      1.0  0.27746  0.82877  0.46695  1.0000
  C   C584      1.0  0.26265  0.68758  0.28066  1.0000
  H   H690      1.0  0.30334  0.77236  0.17372  1.0000
  C   C585      1.0  0.47074  0.72273  0.21939  1.0000
  C   C586      1.0  0.27498  0.78566  0.19596  1.0000
  N   N36       1.0  0.29269  0.82987  0.40352  1.0000
  C   C587      1.0  0.26270  0.68200  0.14622  1.0000
  H   H691      1.0  0.27201  0.72133  0.14269  1.0000
  C   C588      1.0  0.30962  0.67075  0.22194  1.0000
  H   H692      1.0  0.47032  0.60363  0.23363  1.0000
  S   S161      1.0  0.28443  0.83605  0.14595  1.0000
  C   C589      1.0  0.28106  0.67766  0.26706  1.0000
  H   H693      1.0  0.46209  0.74993  0.15374  1.0000
  H   H694      1.0  0.32712  0.81537  0.39404  1.0000
  H   H695      1.0  0.28416  0.94019  0.16361  1.0000
  C   C590      1.0  0.27905  0.53436  0.10519  1.0000
  C   C591      1.0  0.46625  0.61357  0.21747  1.0000
  H   H696      1.0  0.43016  0.61690  0.24883  1.0000
  C   C592      1.0  0.27063  0.82565  0.39978  1.0000
  N   N37       1.0  0.34053  0.80315  0.22517  1.0000
  C   C593      1.0  0.36388  0.79785  0.22990  1.0000
  C   C594      1.0  0.32820  0.81904  0.24033  1.0000
  C   C595      1.0  0.33001  0.78250  0.23089  1.0000
  C   C596      1.0  0.34039  0.81193  0.20111  1.0000
  C   C597      1.0  0.32965  0.83362  0.19337  1.0000
  C   C598      1.0  0.35109  0.79850  0.18455  1.0000
  C   C599      1.0  0.32928  0.84101  0.17054  1.0000
  C   C600      1.0  0.35059  0.80608  0.16176  1.0000
  C   C601      1.0  0.33954  0.82721  0.15479  1.0000
  H   H697      1.0  0.37365  0.78401  0.22120  1.0000
  H   H698      1.0  0.37272  0.81268  0.22459  1.0000
  H   H699      1.0  0.36461  0.79226  0.24809  1.0000
  H   H700      1.0  0.33570  0.83474  0.23759  1.0000
  H   H701      1.0  0.32836  0.81195  0.25832  1.0000
  H   H702      1.0  0.31035  0.82345  0.23791  1.0000
  H   H703      1.0  0.33974  0.76867  0.22217  1.0000
  H   H704      1.0  0.32880  0.77602  0.24910  1.0000
  H   H705      1.0  0.31288  0.78568  0.22632  1.0000
  H   H706      1.0  0.32113  0.84517  0.20456  1.0000
  H   H707      1.0  0.35965  0.78183  0.18909  1.0000
  H   H708      1.0  0.32042  0.85733  0.16499  1.0000
  H   H709      1.0  0.35844  0.79531  0.14944  1.0000
  Fe  Fe78      1.0  0.24925  0.77346  0.38934  1.0000
  H   H710      1.0  0.33385  0.70123  0.01588  1.0000
  C   C602      1.0  0.25535  0.74968  0.15710  1.0000
  H   H711      1.0  0.27940  0.81864  0.05464  1.0000
  C   C603      1.0  0.29406  0.83022  0.42735  1.0000
  H   H712      1.0  0.26051  0.52642  0.14720  1.0000
  C   C604      1.0  0.27527  0.81103  0.02266  1.0000
  S   S162      1.0  0.24833  0.60557  0.22068  1.0000
  H   H713      1.0  0.26329  0.82665  0.47997  1.0000
  H   H714      1.0  0.30825  0.81040  0.37721  1.0000
  C   C605      1.0  0.29789  0.83062  0.47280  1.0000
  H   H715      1.0  0.31380  0.85540  0.39074  1.0000
  C   C606      1.0  0.48648  0.72976  0.22982  1.0000
  H   H716      1.0  0.29553  0.85224  0.37221  1.0000
  C   C607      1.0  0.27931  0.83628  0.29318  1.0000
  C   C608      1.0  0.26847  0.75083  0.27373  1.0000
  H   H717      1.0  0.25813  0.87317  0.33088  1.0000
  H   H718      1.0  0.26350  0.66414  0.14442  1.0000
  C   C609      1.0  0.24778  0.87836  0.31772  1.0000
  C   C610      1.0  0.24969  0.83380  0.12338  1.0000
  H   H719      1.0  0.26509  0.69669  0.29355  1.0000
  Fe  Fe79      1.0  0.25436  0.76209  0.06933  1.0000
  S   S163      1.0  0.26676  0.84137  0.20669  1.0000
  C   C611      1.0  0.24849  0.53112  0.13496  1.0000
  C   C612      1.0  0.47906  0.75290  0.15334  1.0000
  C   C613      1.0  0.47892  0.67317  0.25881  1.0000
  H   H720      1.0  0.26105  0.77046  0.00044  1.0000
  C   C614      1.0  0.26219  0.78283  0.21724  1.0000
  H   H721      1.0  0.49092  0.74152  0.12164  1.0000
  H   H722      1.0  0.26510  0.97261  0.22409  1.0000
  H   H723      1.0  0.25780  0.81802  0.02509  1.0000
  H   H724      1.0  0.25238  0.65348  0.23674  1.0000
  H   H725      1.0  0.25688  0.67902  0.19167  1.0000
  H   H726      1.0  0.27633  0.73339  0.27231  1.0000
  C   C615      1.0  0.30800  0.79141  0.00236  1.0000
  C   C616      1.0  0.25537  0.97571  0.21046  1.0000
  H   H727      1.0  0.25463  0.94058  0.21036  1.0000
  H   H728      1.0  0.49082  0.65040  0.21099  1.0000
  C   C617      1.0  0.26085  0.71291  0.45580  1.0000
  C   C618      1.0  0.25109  0.89743  0.30233  1.0000
  H   H729      1.0  0.26126  0.71499  0.43779  1.0000
  H   H730      1.0  0.33107  0.99044  0.15849  1.0000
  H   H731      1.0  0.29069  0.72251  0.49362  1.0000
  C   C619      1.0  0.24941  0.95750  0.20273  1.0000
  H   H732      1.0  0.48592  0.68349  0.26769  1.0000
  H   H733      1.0  0.25312  0.50486  0.18271  1.0000
  S   S164      1.0  0.25268  0.56534  0.17398  1.0000
  H   H734      1.0  0.28191  0.76099  0.27341  1.0000
  C   C620      1.0  0.49071  0.66658  0.23895  1.0000
  H   H735      1.0  0.24711  0.72894  0.25085  1.0000
  H   H736      1.0  0.25188  0.79487  0.26153  1.0000
  H   H737      1.0  0.29963  0.49458  0.10994  1.0000
  N   N38       1.0  0.25421  0.76066  0.25611  1.0000
  H   H738      1.0  0.24802  0.79557  0.22045  1.0000
  H   H739      1.0  0.25866  0.74974  0.29089  1.0000
  C   C621      1.0  0.29305  0.99329  0.13924  1.0000
  Fe  Fe80      1.0  0.44362  0.78401  0.69156  1.0000
  S   S165      1.0  0.42060  0.76677  0.67756  1.0000
  Fe  Fe81      1.0  0.40457  0.81203  0.71613  1.0000
  S   S166      1.0  0.37864  0.79776  0.70401  1.0000
  S   S167      1.0  0.39465  0.83665  0.74047  1.0000
  Fe  Fe82      1.0  0.40016  0.76495  0.71173  1.0000
  S   S168      1.0  0.38107  0.73621  0.72592  1.0000
  Fe  Fe83      1.0  0.40075  0.80071  0.67093  1.0000
  S   S169      1.0  0.38631  0.81405  0.63895  1.0000
  S   S170      1.0  0.42486  0.77882  0.72662  1.0000
  S   S171      1.0  0.42505  0.81834  0.68226  1.0000
  Fe  Fe84      1.0  0.30559  0.76244  0.58564  1.0000
  S   S172      1.0  0.27243  0.76603  0.60751  1.0000
  S   S173      1.0  0.33546  0.74888  0.60337  1.0000
  H   H740      1.0  0.30662  0.68250  0.81363  1.0000
  Fe  Fe85      1.0  0.26421  0.79732  0.58398  1.0000
  S   S174      1.0  0.26531  0.62546  0.63931  1.0000
  Fe  Fe86      1.0  0.26076  0.74857  0.58365  1.0000
  C   C622      1.0  0.30910  0.79251  0.65687  1.0000
  S   S175      1.0  0.29844  0.79516  0.56339  1.0000
  S   S176      1.0  0.29462  0.74196  0.56355  1.0000
  Fe  Fe87      1.0  0.28478  0.91360  0.71217  1.0000
  S   S177      1.0  0.28538  0.93658  0.67949  1.0000
  S   S178      1.0  0.30961  0.91063  0.73587  1.0000
  Fe  Fe88      1.0  0.27128  0.90956  0.66798  1.0000
  S   S179      1.0  0.28650  0.89621  0.63565  1.0000
  S   S180      1.0  0.27398  0.88563  0.69985  1.0000
  H   H741      1.0  0.32220  0.64441  0.74166  1.0000
  Fe  Fe89      1.0  0.29761  0.73376  0.83583  1.0000
  S   S181      1.0  0.28686  0.70683  0.86347  1.0000
  S   S182      1.0  0.33379  0.73856  0.82599  1.0000
  C   C623      1.0  0.42385  0.79041  0.59037  1.0000
  H   H742      1.0  0.41754  0.72825  0.61104  1.0000
  H   H743      1.0  0.24733  0.77881  0.50411  1.0000
  H   H744      1.0  0.44597  0.74399  0.62354  1.0000
  C   C624      1.0  0.25188  0.87296  0.63503  1.0000
  Fe  Fe90      1.0  0.26429  0.70175  0.84000  1.0000
  H   H745      1.0  0.25896  0.79431  0.67504  1.0000
  S   S183      1.0  0.27182  0.76110  0.84858  1.0000
  S   S184      1.0  0.27721  0.72667  0.81180  1.0000
  H   H746      1.0  0.26765  0.72311  0.65566  1.0000
  S   S185      1.0  0.27558  0.64174  0.73643  1.0000
  H   H747      1.0  0.32255  0.95500  0.72004  1.0000
  C   C625      1.0  0.30261  0.95693  0.76210  1.0000
  H   H748      1.0  0.39615  0.79101  0.57280  1.0000
  S   S186      1.0  0.27298  0.59657  0.69864  1.0000
  H   H749      1.0  0.27490  0.79279  0.95180  1.0000
  S   S187      1.0  0.29532  0.77667  0.50467  1.0000
  Fe  Fe91      1.0  0.25949  0.73363  0.87484  1.0000
  C   C626      1.0  0.28282  0.73296  0.93296  1.0000
  C   C627      1.0  0.29309  0.73158  0.95217  1.0000
  C   C628      1.0  0.28026  0.73268  0.97344  1.0000
  H   H750      1.0  0.26842  0.74100  0.52388  1.0000
  C   C629      1.0  0.26663  0.68808  0.60505  1.0000
  H   H751      1.0  0.29290  0.73212  0.91672  1.0000
  H   H752      1.0  0.31110  0.72973  0.95050  1.0000
  C   C630      1.0  0.25055  0.49500  0.71662  1.0000
  N   N39       1.0  0.28358  0.55168  0.64090  1.0000
  C   C631      1.0  0.41971  0.74550  0.60493  1.0000
  C   C632      1.0  0.43601  0.75487  0.61203  1.0000
  C   C633      1.0  0.25160  0.73206  0.66198  1.0000
  C   C634      1.0  0.26770  0.65003  0.76315  1.0000
  C   C635      1.0  0.27395  0.66990  0.76667  1.0000
  C   C636      1.0  0.27044  0.67592  0.78820  1.0000
  H   H753      1.0  0.30230  0.64285  0.81762  1.0000
  H   H754      1.0  0.24930  0.83190  0.99072  1.0000
  C   C637      1.0  0.27999  0.56539  0.61898  1.0000
  C   C638      1.0  0.24941  0.75488  0.66338  1.0000
  H   H755      1.0  0.48126  0.80084  0.71548  1.0000
  H   H756      1.0  0.30163  0.80101  0.64238  1.0000
  H   H757      1.0  0.29912  0.80227  0.95754  1.0000
  H   H758      1.0  0.28224  0.58312  0.61856  1.0000
  C   C639      1.0  0.25749  0.65378  0.62886  1.0000
  H   H759      1.0  0.27873  0.69724  0.59397  1.0000
  H   H760      1.0  0.42415  0.80807  0.58500  1.0000
  C   C640      1.0  0.25728  0.63647  0.78126  1.0000
  H   H761      1.0  0.25246  0.73255  0.55030  1.0000
  H   H762      1.0  0.28210  0.98985  0.68273  1.0000
  H   H763      1.0  0.26930  0.55302  0.67551  1.0000
  H   H764      1.0  0.31836  0.94480  0.76140  1.0000
  H   H765      1.0  0.45712  0.81381  0.63144  1.0000
  C   C641      1.0  0.27364  0.87681  0.62603  1.0000
  C   C642      1.0  0.28591  0.86425  0.60970  1.0000
  C   C643      1.0  0.27668  0.84772  0.60261  1.0000
  C   C644      1.0  0.31255  0.76915  0.66000  1.0000
  H   H766      1.0  0.29907  0.96261  0.77881  1.0000
  H   H767      1.0  0.28632  0.83810  0.59006  1.0000
  C   C645      1.0  0.36800  0.73697  0.75366  1.0000
  C   C646      1.0  0.37822  0.74451  0.76906  1.0000
  C   C647      1.0  0.36769  0.74458  0.79130  1.0000
  C   C648      1.0  0.34670  0.73759  0.79812  1.0000
  C   C649      1.0  0.33638  0.73032  0.78261  1.0000
  C   C650      1.0  0.34706  0.72990  0.76048  1.0000
  H   H768      1.0  0.39440  0.74996  0.76393  1.0000
  H   H769      1.0  0.37579  0.75021  0.80321  1.0000
  H   H770      1.0  0.32030  0.72483  0.78760  1.0000
  H   H771      1.0  0.33900  0.72424  0.74856  1.0000
  C   C651      1.0  0.37156  0.85762  0.73732  1.0000
  C   C652      1.0  0.35902  0.86004  0.71971  1.0000
  C   C653      1.0  0.33991  0.87644  0.71879  1.0000
  C   C654      1.0  0.33351  0.89031  0.73543  1.0000
  C   C655      1.0  0.34619  0.88787  0.75279  1.0000
  C   C656      1.0  0.36507  0.87161  0.75374  1.0000
  H   H772      1.0  0.36412  0.84938  0.70687  1.0000
  H   H773      1.0  0.33027  0.87856  0.70522  1.0000
  H   H774      1.0  0.34131  0.89848  0.76571  1.0000
  H   H775      1.0  0.37465  0.86977  0.76738  1.0000
  C   C657      1.0  0.37176  0.79597  0.62952  1.0000
  C   C658      1.0  0.35898  0.80421  0.61215  1.0000
  C   C659      1.0  0.34725  0.79008  0.60438  1.0000
  C   C660      1.0  0.34889  0.76744  0.61343  1.0000
  C   C661      1.0  0.36187  0.75917  0.63060  1.0000
  C   C662      1.0  0.37293  0.77347  0.63892  1.0000
  H   H776      1.0  0.35814  0.82158  0.60471  1.0000
  H   H777      1.0  0.33741  0.79655  0.59102  1.0000
  H   H778      1.0  0.36320  0.74168  0.63766  1.0000
  H   H779      1.0  0.38265  0.76695  0.65234  1.0000
  H   H780      1.0  0.33829  0.83469  0.68469  1.0000
  H   H781      1.0  0.29200  0.55886  0.60500  1.0000
  H   H782      1.0  0.31444  0.63781  0.78202  1.0000
  H   H783      1.0  0.48388  0.80527  0.59626  1.0000
  C   C663      1.0  0.27298  0.66572  0.61421  1.0000
  H   H784      1.0  0.39270  0.75122  0.58550  1.0000
  H   H785      1.0  0.25263  0.82543  0.96304  1.0000
  C   C664      1.0  0.25478  0.84421  0.61123  1.0000
  H   H786      1.0  0.33312  0.69028  0.81514  1.0000
  C   C665      1.0  0.26223  0.98500  0.74625  1.0000
  H   H787      1.0  0.28363  0.68007  0.52981  1.0000
  H   H788      1.0  0.43462  0.81980  0.61512  1.0000
  S   S188      1.0  0.48087  0.77535  0.67928  1.0000
  S   S189      1.0  0.25002  0.92768  0.72581  1.0000
  C   C666      1.0  0.40571  0.75840  0.59048  1.0000
  H   H789      1.0  0.31660  0.63572  0.84109  1.0000
  H   H790      1.0  0.33959  0.97335  0.74323  1.0000
  C   C667      1.0  0.25699  0.73515  0.97528  1.0000
  N   N40       1.0  0.25793  0.70867  0.52733  1.0000
  N   N41       1.0  0.31177  0.82938  0.66816  1.0000
  C   C668      1.0  0.32298  0.75718  0.67777  1.0000
  C   C669      1.0  0.30611  0.55401  0.64507  1.0000
  C   C670      1.0  0.28747  0.83712  0.66922  1.0000
  H   H791      1.0  0.36490  0.63356  0.81503  1.0000
  H   H792      1.0  0.48000  0.75834  0.61662  1.0000
  H   H793      1.0  0.43338  0.79939  0.63951  1.0000
  C   C671      1.0  0.28634  0.51227  0.66125  1.0000
  C   C672      1.0  0.43875  0.77765  0.60470  1.0000
  H   H794      1.0  0.31871  0.67483  0.83897  1.0000
  C   C673      1.0  0.30733  0.96771  0.72200  1.0000
  C   C674      1.0  0.40772  0.78082  0.58329  1.0000
  H   H795      1.0  0.36946  0.68752  0.74396  1.0000
  H   H796      1.0  0.48589  0.74256  0.72529  1.0000
  C   C675      1.0  0.44489  0.80612  0.62488  1.0000
  C   C676      1.0  0.24673  0.73676  0.95605  1.0000
  H   H797      1.0  0.32660  0.62158  0.81712  1.0000
  C   C677      1.0  0.27919  0.69700  0.53494  1.0000
  Fe  Fe92      1.0  0.25624  0.62072  0.72227  1.0000
  H   H798      1.0  0.46060  0.81204  0.58139  1.0000
  C   C678      1.0  0.28064  0.85788  0.76082  1.0000
  C   C679      1.0  0.26173  0.82469  0.97744  1.0000
  C   C680      1.0  0.32966  0.76851  0.69271  1.0000
  H   H799      1.0  0.31999  0.85676  0.64244  1.0000
  C   C681      1.0  0.32316  0.83816  0.64583  1.0000
  H   H800      1.0  0.26924  0.53001  0.60997  1.0000
  H   H801      1.0  0.33827  0.75910  0.70623  1.0000
  H   H802      1.0  0.26436  0.76254  0.65816  1.0000
  H   H803      1.0  0.27809  0.83022  0.68540  1.0000
  H   H804      1.0  0.33152  0.79956  0.70210  1.0000
  C   C682      1.0  0.32594  0.79188  0.68995  1.0000
  H   H805      1.0  0.24685  0.73587  0.99149  1.0000
  Fe  Fe93      1.0  0.25024  0.75147  0.82668  1.0000
  S   S190      1.0  0.25129  0.53860  0.72152  1.0000
  H   H806      1.0  0.31771  0.83212  0.63188  1.0000
  C   C683      1.0  0.32422  0.98593  0.74479  1.0000
  H   H807      1.0  0.34974  0.66894  0.72214  1.0000
  H   H808      1.0  0.46161  0.76523  0.64173  1.0000
  H   H809      1.0  0.30272  0.86721  0.60263  1.0000
  N   N42       1.0  0.32239  0.80586  0.77616  1.0000
  C   C684      1.0  0.32209  0.79618  0.80011  1.0000
  C   C685      1.0  0.32446  0.78753  0.76269  1.0000
  C   C686      1.0  0.34274  0.81681  0.76898  1.0000
  C   C687      1.0  0.30136  0.82115  0.77318  1.0000
  C   C688      1.0  0.28052  0.81305  0.77927  1.0000
  C   C689      1.0  0.30083  0.84407  0.76385  1.0000
  C   C690      1.0  0.26045  0.82701  0.77615  1.0000
  C   C691      1.0  0.28154  0.52781  0.64205  1.0000
  H   H810      1.0  0.28217  0.68039  0.75275  1.0000
  H   H811      1.0  0.30900  0.78521  0.80625  1.0000
  H   H812      1.0  0.33819  0.78554  0.80321  1.0000
  H   H813      1.0  0.31909  0.80954  0.81092  1.0000
  H   H814      1.0  0.32264  0.79423  0.74495  1.0000
  H   H815      1.0  0.31180  0.77616  0.76928  1.0000
  H   H816      1.0  0.34103  0.77698  0.76262  1.0000
  H   H817      1.0  0.34261  0.83067  0.77858  1.0000
  H   H818      1.0  0.35831  0.80494  0.77159  1.0000
  H   H819      1.0  0.34469  0.82340  0.75079  1.0000
  H   H820      1.0  0.27953  0.79580  0.78650  1.0000
  H   H821      1.0  0.31574  0.85181  0.75880  1.0000
  H   H822      1.0  0.28997  0.65771  0.61011  1.0000
  H   H823      1.0  0.32308  0.99224  0.76099  1.0000
  C   C692      1.0  0.25417  0.64231  0.80296  1.0000
  H   H824      1.0  0.32646  0.73910  0.67961  1.0000
  C   C693      1.0  0.25904  0.70915  0.50291  1.0000
  H   H825      1.0  0.26730  0.57937  0.65775  1.0000
  H   H826      1.0  0.26263  0.56615  0.61560  1.0000
  H   H827      1.0  0.31708  0.85818  0.68121  1.0000
  C   C694      1.0  0.27093  0.49702  0.62721  1.0000
  H   H828      1.0  0.25262  0.79994  0.64653  1.0000
  C   C695      1.0  0.26097  0.66195  0.80655  1.0000
  H   H829      1.0  0.35235  0.64454  0.84048  1.0000
  H   H830      1.0  0.30914  0.54681  0.66239  1.0000
  H   H831      1.0  0.25253  0.62103  0.77873  1.0000
  H   H832      1.0  0.30839  0.57192  0.64315  1.0000
  H   H833      1.0  0.30816  0.76025  0.64791  1.0000
  H   H834      1.0  0.28368  0.85562  0.66764  1.0000
  C   C696      1.0  0.31993  0.83958  0.68493  1.0000
  N   N43       1.0  0.45594  0.78817  0.61163  1.0000
  H   H835      1.0  0.27584  0.69097  0.79057  1.0000
  Fe  Fe94      1.0  0.28476  0.77496  0.54252  1.0000
  C   C697      1.0  0.25427  0.73194  0.53207  1.0000
  C   C698      1.0  0.26052  0.84938  0.76695  1.0000
  C   C699      1.0  0.28305  0.99214  0.74605  1.0000
  H   H836      1.0  0.34152  0.83328  0.64463  1.0000
  S   S191      1.0  0.25925  0.66756  0.83423  1.0000
  H   H837      1.0  0.31114  0.83503  0.70216  1.0000
  H   H838      1.0  0.28065  0.83255  0.65527  1.0000
  H   H839      1.0  0.29133  0.51748  0.67540  1.0000
  H   H840      1.0  0.36180  0.68221  0.78474  1.0000
  C   C700      1.0  0.31582  0.80463  0.67170  1.0000
  N   N44       1.0  0.33378  0.65541  0.81266  1.0000
  C   C701      1.0  0.35516  0.64856  0.82187  1.0000
  C   C702      1.0  0.32264  0.67668  0.82039  1.0000
  C   C703      1.0  0.31929  0.63805  0.82243  1.0000
  C   C704      1.0  0.33803  0.65872  0.78785  1.0000
  C   C705      1.0  0.35335  0.67307  0.77602  1.0000
  C   C706      1.0  0.32690  0.64845  0.77472  1.0000
  C   C707      1.0  0.35772  0.67640  0.75262  1.0000
  C   C708      1.0  0.33120  0.65213  0.75131  1.0000
  C   C709      1.0  0.34661  0.66601  0.74029  1.0000
  H   H841      1.0  0.36587  0.66200  0.81801  1.0000
  S   S192      1.0  0.24990  0.78014  0.56126  1.0000
  N   N45       1.0  0.27197  0.80153  0.98510  1.0000
  N   N46       1.0  0.30401  0.97613  0.74378  1.0000
  H   H842      1.0  0.31941  0.54563  0.63323  1.0000
  H   H843      1.0  0.27472  0.83591  0.97207  1.0000
  H   H844      1.0  0.30918  0.98149  0.70779  1.0000
  C   C710      1.0  0.25953  0.73565  0.93477  1.0000
  H   H845      1.0  0.29318  0.95947  0.72000  1.0000
  C   C711      1.0  0.47015  0.79812  0.59157  1.0000
  C   C712      1.0  0.26672  0.56129  0.65833  1.0000
  H   H846      1.0  0.26130  0.96815  0.74390  1.0000
  H   H847      1.0  0.31682  0.78284  0.98873  1.0000
  H   H848      1.0  0.28059  0.87534  0.75370  1.0000
  H   H849      1.0  0.29345  0.70636  0.52825  1.0000
  C   C713      1.0  0.47096  0.77229  0.62557  1.0000
  H   H850      1.0  0.27813  0.69497  0.55351  1.0000
  H   H851      1.0  0.24682  0.63139  0.81706  1.0000
  H   H852      1.0  0.29255  0.77474  0.96925  1.0000
  H   H853      1.0  0.28930  0.94711  0.76108  1.0000
  H   H854      1.0  0.47784  0.78533  0.58055  1.0000
  Fe  Fe95      1.0  0.24973  0.94921  0.69225  1.0000
  C   C714      1.0  0.28530  0.79254  0.96509  1.0000
  H   H855      1.0  0.24956  0.55953  0.65607  1.0000
  C   C715      1.0  0.27371  0.51949  0.62500  1.0000
  H   H856      1.0  0.48385  0.78062  0.63031  1.0000
  Fe  Fe96      1.0  0.25004  0.61613  0.67515  1.0000
  C   C716      1.0  0.25393  0.78773  0.99384  1.0000
  Fe  Fe97      1.0  0.72947  0.08234  0.25219  1.0000
  S   S193      1.0  0.71096  0.10081  0.22422  1.0000
  S   S194      1.0  0.71433  0.05735  0.27907  1.0000
  Fe  Fe98      1.0  0.57188  0.21664  0.21925  1.0000
  S   S195      1.0  0.59786  0.23961  0.20716  1.0000
  Fe  Fe99      1.0  0.60594  0.18024  0.23964  1.0000
  S   S196      1.0  0.63432  0.19980  0.22856  1.0000
  S   S197      1.0  0.61293  0.14556  0.25826  1.0000
  Fe  Fe100     1.0  0.60989  0.22822  0.24038  1.0000
  S   S198      1.0  0.62631  0.25151  0.25483  1.0000
  Fe  Fe101     1.0  0.62035  0.20949  0.19642  1.0000
  S   S199      1.0  0.64280  0.20771  0.16352  1.0000
  S   S200      1.0  0.58180  0.20801  0.25400  1.0000
  S   S201      1.0  0.59407  0.18712  0.20626  1.0000
  Fe  Fe102     1.0  0.71740  0.23343  0.38888  1.0000
  H   H857      1.0  0.72717  0.41044  0.31667  1.0000
  S   S202      1.0  0.71394  0.24732  0.42193  1.0000
  Fe  Fe103     1.0  0.68855  0.22331  0.35679  1.0000
  S   S203      1.0  0.71779  0.21514  0.33091  1.0000
  S   S204      1.0  0.65474  0.21792  0.35110  1.0000
  C   C717      1.0  0.49750  0.16148  0.20392  1.0000
  H   H858      1.0  0.67924  0.13196  0.28414  1.0000
  Fe  Fe104     1.0  0.72996  0.24513  0.33807  1.0000
  C   C718      1.0  0.70411  0.19338  0.46337  1.0000
  S   S205      1.0  0.70412  0.20231  0.38559  1.0000
  S   S206      1.0  0.69912  0.25511  0.36183  1.0000
  H   H859      1.0  0.69955  0.26571  0.24753  1.0000
  C   C719      1.0  0.72887  0.30657  0.31668  1.0000
  C   C720      1.0  0.69410  0.04253  0.22217  1.0000
  C   C721      1.0  0.73115  0.24315  0.48411  1.0000
  H   H860      1.0  0.66056  0.30096  0.19458  1.0000
  H   H861      1.0  0.73210  0.32331  0.23629  1.0000
  H   H862      1.0  0.70383  0.16899  0.31143  1.0000
  S   S207      1.0  0.73059  0.26708  0.07092  1.0000
  C   C722      1.0  0.62532  0.14527  0.32926  1.0000
  H   H863      1.0  0.70016  0.44831  0.28896  1.0000
  H   H864      1.0  0.67387  0.17396  0.33793  1.0000
  Fe  Fe105     1.0  0.71429  0.29200  0.09407  1.0000
  S   S208      1.0  0.68022  0.29561  0.11470  1.0000
  C   C723      1.0  0.69346  0.26817  0.18267  1.0000
  S   S209      1.0  0.72334  0.32191  0.06959  1.0000
  H   H865      1.0  0.50353  0.12990  0.25383  1.0000
  H   H866      1.0  0.69868  0.05233  0.17742  1.0000
  H   H867      1.0  0.73705  0.30474  0.36309  1.0000
  C   C724      1.0  0.74065  0.28947  0.37534  1.0000
  H   H868      1.0  0.74009  0.42814  0.32957  1.0000
  H   H869      1.0  0.72865  0.04842  0.17257  1.0000
  C   C725      1.0  0.71373  0.05248  0.18512  1.0000
  C   C726      1.0  0.71678  0.47850  0.30733  1.0000
  Fe  Fe106     1.0  0.72645  0.07568  0.30240  1.0000
  H   H870      1.0  0.74427  0.43228  0.08236  1.0000
  C   C727      1.0  0.72633  0.36212  0.14838  1.0000
  H   H871      1.0  0.71112  0.43503  0.32626  1.0000
  C   C728      1.0  0.53051  0.14628  0.23250  1.0000
  C   C729      1.0  0.64380  0.16185  0.35249  1.0000
  H   H872      1.0  0.73074  0.39578  0.09379  1.0000
  H   H873      1.0  0.53816  0.10709  0.26143  1.0000
  C   C730      1.0  0.55172  0.15910  0.25619  1.0000
  H   H874      1.0  0.52030  0.20158  0.24639  1.0000
  H   H875      1.0  0.53623  0.16672  0.26610  1.0000
  S   S210      1.0  0.74358  0.28881  0.11227  1.0000
  C   C731      1.0  0.67125  0.27087  0.12932  1.0000
  C   C732      1.0  0.65335  0.27209  0.14685  1.0000
  C   C733      1.0  0.64531  0.25258  0.15828  1.0000
  C   C734      1.0  0.65461  0.23189  0.15165  1.0000
  C   C735      1.0  0.67259  0.23067  0.13420  1.0000
  C   C736      1.0  0.68113  0.25011  0.12324  1.0000
  H   H876      1.0  0.64561  0.28818  0.15149  1.0000
  H   H877      1.0  0.63144  0.25374  0.17165  1.0000
  H   H878      1.0  0.67981  0.21468  0.12900  1.0000
  H   H879      1.0  0.69491  0.24910  0.10968  1.0000
  C   C737      1.0  0.63476  0.24137  0.28123  1.0000
  C   C738      1.0  0.65200  0.25007  0.28763  1.0000
  C   C739      1.0  0.65872  0.24248  0.30879  1.0000
  C   C740      1.0  0.64775  0.22666  0.32391  1.0000
  C   C741      1.0  0.63059  0.21791  0.31745  1.0000
  C   C742      1.0  0.62431  0.22501  0.29607  1.0000
  H   H880      1.0  0.65996  0.26293  0.27637  1.0000
  H   H881      1.0  0.67183  0.24944  0.31372  1.0000
  H   H882      1.0  0.62201  0.20571  0.32909  1.0000
  H   H883      1.0  0.61094  0.21830  0.29133  1.0000
  C   C743      1.0  0.72004  0.11080  0.33855  1.0000
  C   C744      1.0  0.70802  0.12812  0.34988  1.0000
  C   C745      1.0  0.71894  0.14492  0.35426  1.0000
  H   H884      1.0  0.55063  0.16685  0.20688  1.0000
  H   H885      1.0  0.65284  0.28778  0.22277  1.0000
  H   H886      1.0  0.71844  0.29850  0.33072  1.0000
  H   H887      1.0  0.69024  0.12860  0.35512  1.0000
  H   H888      1.0  0.70954  0.15829  0.36289  1.0000
  N   N47       1.0  0.54784  0.13929  0.24740  1.0000
  C   C746      1.0  0.68346  0.11273  0.23354  1.0000
  C   C747      1.0  0.67260  0.13043  0.21983  1.0000
  C   C748      1.0  0.65086  0.14042  0.22724  1.0000
  C   C749      1.0  0.63972  0.13250  0.24825  1.0000
  C   C750      1.0  0.65030  0.11437  0.26168  1.0000
  C   C751      1.0  0.67221  0.10470  0.25446  1.0000
  H   H889      1.0  0.68113  0.13666  0.20357  1.0000
  H   H890      1.0  0.64271  0.15415  0.21655  1.0000
  H   H891      1.0  0.64178  0.10809  0.27792  1.0000
  H   H892      1.0  0.68032  0.09105  0.26516  1.0000
  C   C752      1.0  0.72854  0.23921  0.44546  1.0000
  C   C753      1.0  0.71607  0.31907  0.20901  1.0000
  C   C754      1.0  0.66074  0.16594  0.33457  1.0000
  C   C755      1.0  0.56909  0.12954  0.23471  1.0000
  C   C756      1.0  0.71183  0.17642  0.45031  1.0000
  H   H893      1.0  0.71602  0.42416  0.27872  1.0000
  H   H894      1.0  0.62340  0.24553  0.12211  1.0000
  H   H895      1.0  0.71873  0.26891  0.01496  1.0000
  H   H896      1.0  0.68549  0.19431  0.30295  1.0000
  N   N48       1.0  0.57952  0.23909  0.13450  1.0000
  H   H897      1.0  0.73083  0.14386  0.44855  1.0000
  H   H898      1.0  0.56637  0.11617  0.22575  1.0000
  H   H899      1.0  0.55546  0.11691  0.27729  1.0000
  H   H900      1.0  0.72561  0.38289  0.01276  1.0000
  H   H901      1.0  0.67282  0.25168  0.23685  1.0000
  C   C757      1.0  0.73628  0.35194  0.12948  1.0000
  H   H902      1.0  0.71158  0.26159  0.18149  1.0000
  C   C758      1.0  0.74305  0.11022  0.33185  1.0000
  C   C759      1.0  0.51246  0.21895  0.21456  1.0000
  C   C760      1.0  0.62610  0.15160  0.34984  1.0000
  C   C761      1.0  0.54171  0.12232  0.26692  1.0000
  H   H903      1.0  0.72135  0.28909  0.26026  1.0000
  H   H904      1.0  0.70082  0.47264  0.31229  1.0000
  C   C762      1.0  0.69406  0.17797  0.29799  1.0000
  H   H905      1.0  0.68017  0.18128  0.25958  1.0000
  H   H906      1.0  0.65701  0.16659  0.26795  1.0000
  C   C763      1.0  0.69027  0.14285  0.28804  1.0000
  H   H907      1.0  0.65656  0.19231  0.27829  1.0000
  C   C764      1.0  0.71717  0.44139  0.28151  1.0000
  C   C765      1.0  0.64213  0.14938  0.31122  1.0000
  H   H908      1.0  0.67855  0.04349  0.21495  1.0000
  H   H909      1.0  0.64983  0.27488  0.19958  1.0000
  H   H910      1.0  0.70650  0.18169  0.28289  1.0000
  H   H911      1.0  0.74501  0.24938  0.20488  1.0000
  C   C766      1.0  0.73596  0.46440  0.29857  1.0000
  C   C767      1.0  0.72474  0.15694  0.45890  1.0000
  N   N49       1.0  0.73435  0.44124  0.29587  1.0000
  C   C768      1.0  0.72682  0.33007  0.31226  1.0000
  Fe  Fe107     1.0  0.73432  0.19667  0.35972  1.0000
  C   C769      1.0  0.70401  0.28018  0.23600  1.0000
  C   C770      1.0  0.66080  0.28454  0.20562  1.0000
  C   C771      1.0  0.68202  0.25005  0.21975  1.0000
  H   H912      1.0  0.69321  0.03005  0.23763  1.0000
  H   H913      1.0  0.52696  0.12910  0.27838  1.0000
  C   C772      1.0  0.74219  0.38494  0.06158  1.0000
  H   H914      1.0  0.73721  0.27518  0.36819  1.0000
  C   C773      1.0  0.71652  0.29357  0.24364  1.0000
  H   H915      1.0  0.73526  0.02901  0.23248  1.0000
  H   H916      1.0  0.64085  0.14399  0.29568  1.0000
  C   C774      1.0  0.74428  0.29364  0.30269  1.0000
  H   H917      1.0  0.69877  0.24011  0.22115  1.0000
  H   H918      1.0  0.67224  0.23999  0.21262  1.0000
  H   H919      1.0  0.68527  0.25580  0.17690  1.0000
  H   H920      1.0  0.70337  0.14514  0.27320  1.0000
  H   H921      1.0  0.64434  0.16706  0.36841  1.0000
  S   S211      1.0  0.72530  0.38772  0.18119  1.0000
  H   H922      1.0  0.71479  0.34007  0.32296  1.0000
  H   H923      1.0  0.69438  0.20869  0.45641  1.0000
  C   C775      1.0  0.70353  0.30583  0.20121  1.0000
  H   H924      1.0  0.74578  0.14986  0.24704  1.0000
  H   H925      1.0  0.74023  0.13905  0.48644  1.0000
  C   C776      1.0  0.72262  0.31289  0.23015  1.0000
  S   S212      1.0  0.73889  0.10200  0.27557  1.0000
  C   C777      1.0  0.53488  0.16055  0.21190  1.0000
  C   C778      1.0  0.73003  0.15438  0.48059  1.0000
  H   H926      1.0  0.72825  0.29120  0.39077  1.0000
  H   H927      1.0  0.69850  0.13327  0.30229  1.0000
  S   S213      1.0  0.70612  0.09058  0.33182  1.0000
  C   C779      1.0  0.50873  0.14011  0.23827  1.0000
  N   N50       1.0  0.71454  0.03659  0.20624  1.0000
  H   H928      1.0  0.70426  0.25974  0.46599  1.0000
  C   C780      1.0  0.66742  0.17667  0.27411  1.0000
  C   C781      1.0  0.61169  0.25886  0.11489  1.0000
  H   H929      1.0  0.57789  0.22517  0.16939  1.0000
  C   C782      1.0  0.66023  0.16014  0.31321  1.0000
  C   C783      1.0  0.72505  0.27273  0.99736  1.0000
  S   S214      1.0  0.73738  0.37001  0.28807  1.0000
  H   H930      1.0  0.57715  0.14222  0.22222  1.0000
  H   H931      1.0  0.58955  0.21752  0.10919  1.0000
  H   H932      1.0  0.54910  0.22495  0.14718  1.0000
  H   H933      1.0  0.58334  0.20309  0.13725  1.0000
  H   H934      1.0  0.55033  0.23972  0.11911  1.0000
  H   H935      1.0  0.61164  0.13717  0.32719  1.0000
  C   C784      1.0  0.71984  0.24839  0.46525  1.0000
  H   H936      1.0  0.56492  0.15475  0.26725  1.0000
  H   H937      1.0  0.55716  0.17234  0.24256  1.0000
  S   S215      1.0  0.53920  0.22720  0.20458  1.0000
  C   C785      1.0  0.55504  0.23968  0.13585  1.0000
  N   N51       1.0  0.67775  0.16445  0.29378  1.0000
  H   H938      1.0  0.72036  0.33449  0.19881  1.0000
  C   C786      1.0  0.59074  0.21760  0.12709  1.0000
  H   H939      1.0  0.71328  0.07004  0.18800  1.0000
  C   C787      1.0  0.73835  0.37458  0.15791  1.0000
  C   C788      1.0  0.69789  0.00739  0.19309  1.0000
  C   C789      1.0  0.50772  0.20603  0.23546  1.0000
  H   H940      1.0  0.73825  0.35474  0.00900  1.0000
  H   H941      1.0  0.49901  0.23541  0.18470  1.0000
  C   C790      1.0  0.69736  0.28577  0.21433  1.0000
  H   H942      1.0  0.69138  0.28346  0.17006  1.0000
  H   H943      1.0  0.70925  0.36041  0.15559  1.0000
  H   H944      1.0  0.72586  0.36094  0.03605  1.0000
  S   S216      1.0  0.73743  0.41347  0.23319  1.0000
  H   H945      1.0  0.61299  0.14858  0.36378  1.0000
  H   H946      1.0  0.68336  0.01937  0.18976  1.0000
  C   C791      1.0  0.73396  0.03989  0.21608  1.0000
  H   H947      1.0  0.69358  0.05918  0.22733  1.0000
  C   C792      1.0  0.74001  0.34061  0.29375  1.0000
  C   C793      1.0  0.58406  0.23932  0.15737  1.0000
  C   C794      1.0  0.58835  0.25813  0.11934  1.0000
  C   C795      1.0  0.57433  0.27677  0.10943  1.0000
  C   C796      1.0  0.62046  0.27705  0.10145  1.0000
  C   C797      1.0  0.58330  0.29487  0.09590  1.0000
  C   C798      1.0  0.60630  0.29502  0.09198  1.0000
  H   H948      1.0  0.60875  0.21409  0.12907  1.0000
  H   H949      1.0  0.60220  0.23786  0.15800  1.0000
  H   H950      1.0  0.57582  0.25507  0.16381  1.0000
  H   H951      1.0  0.55638  0.27791  0.11201  1.0000
  H   H952      1.0  0.63836  0.27734  0.09862  1.0000
  H   H953      1.0  0.57234  0.30899  0.08859  1.0000
  H   H954      1.0  0.61321  0.30916  0.08173  1.0000
  H   H955      1.0  0.69834  0.31170  0.18497  1.0000
  H   H956      1.0  0.74091  0.47698  0.23585  1.0000
  N   N52       1.0  0.68374  0.27223  0.20585  1.0000
  H   H957      1.0  0.54544  0.25448  0.14320  1.0000
  H   H958      1.0  0.58182  0.12211  0.24586  1.0000
  C   C799      1.0  0.51862  0.16788  0.19782  1.0000
  C   C800      1.0  0.70939  0.19107  0.48505  1.0000
  H   H959      1.0  0.71155  0.00918  0.26666  1.0000
  C   C801      1.0  0.74205  0.14402  0.34793  1.0000
  H   H960      1.0  0.72111  0.45153  0.26481  1.0000
  H   H961      1.0  0.72687  0.34240  0.12222  1.0000
  H   H962      1.0  0.70796  0.17851  0.43340  1.0000
  H   H963      1.0  0.52208  0.17943  0.18259  1.0000
  Fe  Fe108     1.0  0.74206  0.29684  0.04753  1.0000
  C   C802      1.0  0.71568  0.01349  0.20163  1.0000
  C   C803      1.0  0.72788  0.42820  0.31808  1.0000
  H   H964      1.0  0.73260  0.05739  0.21920  1.0000
  C   C804      1.0  0.73412  0.99651  0.20544  1.0000
  C   C805      1.0  0.73593  0.36767  0.02030  1.0000
  H   H965      1.0  0.74408  0.14523  0.28835  1.0000
  H   H966      1.0  0.73613  0.36915  0.06757  1.0000
  C   C806      1.0  0.73895  0.40015  0.07679  1.0000
  Fe  Fe109     1.0  0.72070  0.27316  0.85407  1.0000
  C   C807      1.0  0.74092  0.28252  0.95146  1.0000
  S   S217      1.0  0.69922  0.29316  0.82894  1.0000
  Fe  Fe110     1.0  0.73114  0.25528  0.90171  1.0000
  H   H967      1.0  0.72433  0.25056  0.49909  1.0000
  S   S218      1.0  0.71862  0.25147  0.93939  1.0000
  C   C808      1.0  0.49672  0.28648  0.66383  1.0000
  C   C809      1.0  0.70517  0.38677  0.83251  1.0000
  H   H968      1.0  0.56538  0.27818  0.69604  1.0000
  C   C810      1.0  0.53010  0.26381  0.72821  1.0000
  S   S219      1.0  0.73052  0.28904  0.88065  1.0000
  S   S220      1.0  0.71784  0.24014  0.87612  1.0000
  Fe  Fe111     1.0  0.62495  0.27137  0.70334  1.0000
  S   S221      1.0  0.60476  0.30542  0.69972  1.0000
  S   S222      1.0  0.63584  0.25093  0.67511  1.0000
  Fe  Fe112     1.0  0.62418  0.26983  0.75313  1.0000
  S   S223      1.0  0.60350  0.30376  0.75388  1.0000
  S   S224      1.0  0.63861  0.24741  0.78194  1.0000
  Fe  Fe113     1.0  0.58327  0.29255  0.73134  1.0000
  Fe  Fe114     1.0  0.62651  0.31354  0.72232  1.0000
  S   S225      1.0  0.64452  0.34356  0.71182  1.0000
  S   S226      1.0  0.60215  0.25771  0.73346  1.0000
  S   S227      1.0  0.64847  0.28037  0.72319  1.0000
  H   H969      1.0  0.57378  0.30762  0.66545  1.0000
  C   C811      1.0  0.50853  0.30456  0.65941  1.0000
  H   H970      1.0  0.70771  0.24918  0.98727  1.0000
  N   N53       1.0  0.73983  0.06044  0.68151  1.0000
  S   S228      1.0  0.72001  0.42071  0.73477  1.0000
  Fe  Fe115     1.0  0.70588  0.40644  0.76962  1.0000
  S   S229      1.0  0.67261  0.39435  0.78189  1.0000
  C   C812      1.0  0.71874  0.26163  0.98159  1.0000
  S   S230      1.0  0.71973  0.42997  0.78628  1.0000
  S   S231      1.0  0.72727  0.10404  0.75326  1.0000
  Fe  Fe116     1.0  0.73643  0.24498  0.58581  1.0000
  N   N54       1.0  0.56841  0.27475  0.66138  1.0000
  S   S232      1.0  0.71799  0.16645  0.59465  1.0000
  H   H971      1.0  0.74195  0.09546  0.67005  1.0000
  H   H972      1.0  0.49871  0.25084  0.67116  1.0000
  H   H973      1.0  0.71381  0.36043  0.71909  1.0000
  H   H974      1.0  0.74398  0.16656  0.63053  1.0000
  H   H975      1.0  0.69483  0.22027  0.67250  1.0000
  S   S233      1.0  0.71844  0.27443  0.60258  1.0000
  H   H976      1.0  0.72589  0.20821  0.77912  1.0000
  S   S234      1.0  0.72299  0.22684  0.56328  1.0000
  H   H977      1.0  0.56559  0.25012  0.69114  1.0000
  C   C813      1.0  0.73311  0.23730  0.80249  1.0000
  H   H978      1.0  0.72725  0.32933  0.92119  1.0000
  H   H979      1.0  0.66689  0.38971  0.86241  1.0000
  S   S235      1.0  0.70481  0.12390  0.69705  1.0000
  C   C814      1.0  0.73909  0.28907  0.99022  1.0000
  H   H980      1.0  0.53659  0.28038  0.79566  1.0000
  C   C815      1.0  0.71579  0.34482  0.71147  1.0000
  H   H981      1.0  0.54636  0.25494  0.73117  1.0000
  N   N55       1.0  0.72883  0.16841  0.51709  1.0000
  C   C816      1.0  0.71539  0.15468  0.62317  1.0000
  C   C817      1.0  0.73028  0.15726  0.63721  1.0000
  C   C818      1.0  0.69507  0.13288  0.65451  1.0000
  C   C819      1.0  0.69803  0.14218  0.63186  1.0000
  H   H982      1.0  0.50017  0.31588  0.72495  1.0000
  H   H983      1.0  0.68124  0.12373  0.66112  1.0000
  H   H984      1.0  0.68652  0.14009  0.62112  1.0000
  C   C820      1.0  0.69554  0.26789  0.62282  1.0000
  C   C821      1.0  0.68724  0.24783  0.62416  1.0000
  C   C822      1.0  0.66873  0.24296  0.64009  1.0000
  C   C823      1.0  0.65877  0.25784  0.65514  1.0000
  C   C824      1.0  0.66723  0.27779  0.65407  1.0000
  C   C825      1.0  0.68550  0.28289  0.63780  1.0000
  H   H985      1.0  0.69484  0.23618  0.61266  1.0000
  H   H986      1.0  0.66226  0.22747  0.64087  1.0000
  H   H987      1.0  0.65947  0.28947  0.66548  1.0000
  H   H988      1.0  0.69172  0.29854  0.63670  1.0000
  C   C826      1.0  0.65058  0.35830  0.73175  1.0000
  C   C827      1.0  0.66375  0.37537  0.72428  1.0000
  C   C828      1.0  0.67063  0.38632  0.73961  1.0000
  C   C829      1.0  0.66389  0.38071  0.76257  1.0000
  C   C830      1.0  0.65032  0.36391  0.77013  1.0000
  C   C831      1.0  0.64386  0.35253  0.75476  1.0000
  H   H989      1.0  0.66886  0.38003  0.70651  1.0000
  H   H990      1.0  0.68079  0.39944  0.73360  1.0000
  H   H991      1.0  0.64506  0.35946  0.78790  1.0000
  H   H992      1.0  0.63378  0.33931  0.76069  1.0000
  H   H993      1.0  0.51206  0.29453  0.82616  1.0000
  H   H994      1.0  0.50401  0.31100  0.76591  1.0000
  C   C832      1.0  0.50810  0.26481  0.66696  1.0000
  C   C833      1.0  0.72312  0.17653  0.82379  1.0000
  Fe  Fe117     1.0  0.73662  0.44188  0.75180  1.0000
  H   H995      1.0  0.51723  0.23414  0.72490  1.0000
  H   H996      1.0  0.68395  0.32379  0.73888  1.0000
  H   H997      1.0  0.72450  0.19757  0.84827  1.0000
  H   H998      1.0  0.70512  0.17767  0.82712  1.0000
  H   H999      1.0  0.52229  0.25650  0.80057  1.0000
  H   H1000     1.0  0.65891  0.36432  0.85740  1.0000
  C   C834      1.0  0.68202  0.28017  0.81660  1.0000
  C   C835      1.0  0.67117  0.29259  0.79910  1.0000
  C   C836      1.0  0.65794  0.28261  0.78830  1.0000
  C   C837      1.0  0.65520  0.26020  0.79521  1.0000
  C   C838      1.0  0.66603  0.24775  0.81274  1.0000
  C   C839      1.0  0.67942  0.25772  0.82343  1.0000
  H   H1001     1.0  0.67283  0.31007  0.79399  1.0000
  H   H1002     1.0  0.64958  0.29238  0.77488  1.0000
  H   H1003     1.0  0.66388  0.23044  0.81823  1.0000
  H   H1004     1.0  0.68751  0.24810  0.83710  1.0000
  C   C840      1.0  0.74479  0.03169  0.75377  1.0000
  H   H1005     1.0  0.72066  0.25541  0.74996  1.0000
  C   C841      1.0  0.72031  0.33765  0.90628  1.0000
  H   H1006     1.0  0.70695  0.05095  0.68501  1.0000
  C   C842      1.0  0.71983  0.18773  0.52924  1.0000
  H   H1007     1.0  0.72569  0.05284  0.71636  1.0000
  C   C843      1.0  0.72268  0.30431  0.71722  1.0000
  C   C844      1.0  0.57924  0.25803  0.64649  1.0000
  C   C845      1.0  0.52548  0.28693  0.72813  1.0000
  H   H1008     1.0  0.70493  0.40016  0.84272  1.0000
  H   H1009     1.0  0.57655  0.30282  0.63665  1.0000
  H   H1010     1.0  0.71359  0.34256  0.82795  1.0000
  H   H1011     1.0  0.49946  0.25078  0.77588  1.0000
  H   H1012     1.0  0.74128  0.31255  0.75305  1.0000
  H   H1013     1.0  0.57429  0.24123  0.65261  1.0000
  H   H1014     1.0  0.72770  0.02022  0.70326  1.0000
  H   H1015     1.0  0.72471  0.18478  0.54630  1.0000
  H   H1016     1.0  0.67708  0.24436  0.70090  1.0000
  H   H1017     1.0  0.70049  0.34578  0.70375  1.0000
  C   C846      1.0  0.70972  0.13556  0.66863  1.0000
  H   H1018     1.0  0.72276  0.38079  0.82592  1.0000
  C   C847      1.0  0.69592  0.35062  0.83129  1.0000
  H   H1019     1.0  0.59082  0.26196  0.68548  1.0000
  H   H1020     1.0  0.73449  0.04704  0.75774  1.0000
  Fe  Fe118     1.0  0.73671  0.19591  0.58505  1.0000
  H   H1021     1.0  0.73909  0.14950  0.67070  1.0000
  C   C848      1.0  0.73485  0.01258  0.75389  1.0000
  H   H1022     1.0  0.70757  0.48862  0.77222  1.0000
  H   H1023     1.0  0.59799  0.29093  0.65353  1.0000
  H   H1024     1.0  0.59781  0.25546  0.64540  1.0000
  H   H1025     1.0  0.68591  0.33714  0.83931  1.0000
  H   H1026     1.0  0.53916  0.24401  0.66946  1.0000
  C   C849      1.0  0.70269  0.35841  0.86658  1.0000
  H   H1027     1.0  0.74264  0.20986  0.97442  1.0000
  N   N56       1.0  0.71933  0.32453  0.72826  1.0000
  C   C850      1.0  0.69940  0.32423  0.74577  1.0000
  C   C851      1.0  0.73845  0.32651  0.73928  1.0000
  C   C852      1.0  0.70574  0.30004  0.70610  1.0000
  H   H1028     1.0  0.57510  0.26342  0.62921  1.0000
  H   H1029     1.0  0.70140  0.30942  0.75889  1.0000
  H   H1030     1.0  0.69615  0.33942  0.75421  1.0000
  C   C853      1.0  0.70831  0.28095  0.69581  1.0000
  Fe  Fe119     1.0  0.73083  0.12381  0.71873  1.0000
  H   H1031     1.0  0.71432  0.27003  0.77384  1.0000
  H   H1032     1.0  0.69027  0.31151  0.70527  1.0000
  C   C854      1.0  0.66957  0.37748  0.85041  1.0000
  H   H1033     1.0  0.69514  0.27824  0.68729  1.0000
  N   N57       1.0  0.66834  0.18373  0.75766  1.0000
  C   C855      1.0  0.67358  0.15896  0.76199  1.0000
  C   C856      1.0  0.67937  0.19276  0.77317  1.0000
  C   C857      1.0  0.64383  0.18983  0.76309  1.0000
  C   C858      1.0  0.67582  0.19341  0.73426  1.0000
  C   C859      1.0  0.67308  0.21695  0.72775  1.0000
  C   C860      1.0  0.68556  0.18007  0.71728  1.0000
  C   C861      1.0  0.68000  0.22644  0.70575  1.0000
  C   C862      1.0  0.69244  0.18979  0.69536  1.0000
  C   C863      1.0  0.68978  0.21290  0.68963  1.0000
  H   H1034     1.0  0.66475  0.15083  0.75191  1.0000
  H   H1035     1.0  0.69185  0.15327  0.75823  1.0000
  H   H1036     1.0  0.66857  0.15223  0.77990  1.0000
  H   H1037     1.0  0.69783  0.18973  0.76856  1.0000
  H   H1038     1.0  0.67542  0.18470  0.79084  1.0000
  H   H1039     1.0  0.67408  0.21097  0.77325  1.0000
  H   H1040     1.0  0.63498  0.18377  0.75143  1.0000
  H   H1041     1.0  0.63751  0.18268  0.78053  1.0000
  H   H1042     1.0  0.63865  0.20822  0.76181  1.0000
  H   H1043     1.0  0.66512  0.22817  0.73956  1.0000
  H   H1044     1.0  0.68796  0.16204  0.72036  1.0000
  C   C864      1.0  0.72771  0.26549  0.69633  1.0000
  H   H1045     1.0  0.69954  0.17931  0.68261  1.0000
  N   N58       1.0  0.73781  0.23966  0.77768  1.0000
  H   H1046     1.0  0.71927  0.05957  0.65671  1.0000
  C   C865      1.0  0.57953  0.29498  0.65386  1.0000
  H   H1047     1.0  0.72837  0.08134  0.70740  1.0000
  C   C866      1.0  0.73406  0.18780  0.83579  1.0000
  H   H1048     1.0  0.70279  0.24517  0.77460  1.0000
  C   C867      1.0  0.54395  0.27912  0.66128  1.0000
  C   C868      1.0  0.74483  0.26929  0.70680  1.0000
  C   C869      1.0  0.57270  0.26582  0.68449  1.0000
  S   S236      1.0  0.54533  0.30235  0.73386  1.0000
  C   C870      1.0  0.73657  0.06411  0.70521  1.0000
  H   H1049     1.0  0.73336  0.37390  0.85977  1.0000
  C   C871      1.0  0.72760  0.14746  0.65991  1.0000
  S   S237      1.0  0.72087  0.15024  0.79258  1.0000
  H   H1050     1.0  0.71691  0.01343  0.75783  1.0000
  S   S238      1.0  0.73958  0.15383  0.72950  1.0000
  H   H1051     1.0  0.69719  0.39469  0.81754  1.0000
  H   H1052     1.0  0.71955  0.22705  0.80947  1.0000
  H   H1053     1.0  0.66285  0.38616  0.83485  1.0000
  C   C872      1.0  0.72330  0.36283  0.87117  1.0000
  H   H1054     1.0  0.53979  0.31585  0.65514  1.0000
  H   H1055     1.0  0.72957  0.25068  0.68835  1.0000
  H   H1056     1.0  0.73470  0.28835  0.63986  1.0000
  C   C873      1.0  0.73196  0.35243  0.89067  1.0000
  C   C874      1.0  0.73533  0.16368  0.80765  1.0000
  C   C875      1.0  0.69158  0.34279  0.88258  1.0000
  C   C876      1.0  0.70011  0.33291  0.90229  1.0000
  H   H1057     1.0  0.69014  0.35735  0.81484  1.0000
  H   H1058     1.0  0.67655  0.33754  0.87968  1.0000
  H   H1059     1.0  0.73555  0.34219  0.74686  1.0000
  C   C877      1.0  0.51348  0.25201  0.72492  1.0000
  H   H1060     1.0  0.69154  0.32075  0.91411  1.0000
  N   N59       1.0  0.69360  0.36827  0.84558  1.0000
  H   H1061     1.0  0.72639  0.20320  0.52038  1.0000
  C   C878      1.0  0.72666  0.26637  0.95855  1.0000
  C   C879      1.0  0.53131  0.26111  0.66588  1.0000
  C   C880      1.0  0.53180  0.30107  0.65815  1.0000
  C   C881      1.0  0.71761  0.06273  0.67431  1.0000
  C   C882      1.0  0.71811  0.25318  0.76856  1.0000
  H   H1062     1.0  0.51794  0.31711  0.78690  1.0000
  H   H1063     1.0  0.73030  0.34557  0.69783  1.0000
  H   H1064     1.0  0.70817  0.07987  0.67529  1.0000
  Fe  Fe120     1.0  0.73931  0.13302  0.76345  1.0000
  C   C883      1.0  0.50272  0.31093  0.78423  1.0000
  H   H1065     1.0  0.72784  0.13277  0.52427  1.0000
  H   H1066     1.0  0.72725  0.25353  0.80875  1.0000
  H   H1067     1.0  0.72395  0.14636  0.54848  1.0000
  C   C884      1.0  0.72028  0.14849  0.53094  1.0000
  C   C885      1.0  0.74044  0.21691  0.77144  1.0000
  C   C886      1.0  0.52236  0.27375  0.79132  1.0000
  C   C887      1.0  0.49740  0.28933  0.82107  1.0000
  H   H1068     1.0  0.70126  0.19090  0.53164  1.0000
  C   C888      1.0  0.74250  0.28840  0.71709  1.0000
  C   C889      1.0  0.50397  0.29800  0.72503  1.0000
  S   S239      1.0  0.73435  0.37872  0.77380  1.0000
  S   S240      1.0  0.74523  0.47672  0.73810  1.0000
  N   N60       1.0  0.50072  0.28823  0.79669  1.0000
  H   H1069     1.0  0.70183  0.15005  0.53186  1.0000
  H   H1070     1.0  0.74183  0.21734  0.75303  1.0000
  H   H1071     1.0  0.49952  0.32142  0.65738  1.0000
  C   C890      1.0  0.74336  0.01864  0.69209  1.0000
  H   H1072     1.0  0.52642  0.27283  0.77309  1.0000
  H   H1073     1.0  0.74422  0.29955  0.66118  1.0000
  H   H1074     1.0  0.74271  0.31545  0.63381  1.0000
  C   C891      1.0  0.72258  0.17141  0.49434  1.0000
  H   H1075     1.0  0.74586  0.27927  0.78788  1.0000
  H   H1076     1.0  0.70329  0.20515  0.49394  1.0000
  H   H1077     1.0  0.66420  0.83408  0.18622  1.0000
  H   H1078     1.0  0.65016  0.70715  0.33384  1.0000
  H   H1079     1.0  0.57236  0.78026  0.13408  1.0000
  S   S241      1.0  0.67807  0.88434  0.26752  1.0000
  H   H1080     1.0  0.72097  0.81745  0.35233  1.0000
  C   C892      1.0  0.73560  0.94830  0.25678  1.0000
  S   S242      1.0  0.70295  0.88556  0.21564  1.0000
  Fe  Fe121     1.0  0.70365  0.90316  0.24491  1.0000
  S   S243      1.0  0.69644  0.94080  0.24454  1.0000
  Fe  Fe122     1.0  0.67994  0.86470  0.23952  1.0000
  S   S244      1.0  0.65016  0.85601  0.22784  1.0000
  H   H1081     1.0  0.56957  0.76912  0.17355  1.0000
  Fe  Fe123     1.0  0.56618  0.73200  0.22679  1.0000
  S   S245      1.0  0.58850  0.71669  0.25269  1.0000
  S   S246      1.0  0.52837  0.73518  0.23552  1.0000
  Fe  Fe124     1.0  0.60489  0.74587  0.19273  1.0000
  S   S247      1.0  0.63024  0.73221  0.21545  1.0000
  S   S248      1.0  0.61705  0.76283  0.15841  1.0000
  Fe  Fe125     1.0  0.61184  0.70272  0.22437  1.0000
  S   S249      1.0  0.62970  0.66735  0.23048  1.0000
  Fe  Fe126     1.0  0.60558  0.74709  0.24197  1.0000
  S   S250      1.0  0.62123  0.76107  0.26621  1.0000
  S   S251      1.0  0.58807  0.71519  0.19929  1.0000
  S   S252      1.0  0.58153  0.76383  0.21844  1.0000
  C   C893      1.0  0.55167  0.76767  0.17419  1.0000
  C   C894      1.0  0.67136  0.71546  0.15150  1.0000
  C   C895      1.0  0.64991  0.72647  0.15816  1.0000
  C   C896      1.0  0.64359  0.74873  0.14915  1.0000
  C   C897      1.0  0.65886  0.75997  0.13347  1.0000
  C   C898      1.0  0.68061  0.74913  0.12729  1.0000
  H   H1082     1.0  0.63816  0.71754  0.17004  1.0000
  H   H1083     1.0  0.65400  0.77714  0.12635  1.0000
  H   H1084     1.0  0.71148  0.87938  0.34056  1.0000
  C   C899      1.0  0.71361  0.95683  0.25352  1.0000
  H   H1085     1.0  0.57982  0.74001  0.15168  1.0000
  C   C900      1.0  0.70138  0.78467  0.30777  1.0000
  C   C901      1.0  0.70505  0.97891  0.25697  1.0000
  C   C902      1.0  0.63576  0.67571  0.28838  1.0000
  H   H1086     1.0  0.73917  0.75662  0.00133  1.0000
  C   C903      1.0  0.64188  0.82990  0.23935  1.0000
  C   C904      1.0  0.62585  0.82229  0.23000  1.0000
  C   C905      1.0  0.61957  0.80113  0.23810  1.0000
  C   C906      1.0  0.62907  0.78757  0.25582  1.0000
  C   C907      1.0  0.64497  0.79523  0.26536  1.0000
  C   C908      1.0  0.65147  0.81632  0.25705  1.0000
  H   H1087     1.0  0.61831  0.83279  0.21640  1.0000
  H   H1088     1.0  0.60716  0.79546  0.23080  1.0000
  H   H1089     1.0  0.65222  0.78485  0.27919  1.0000
  H   H1090     1.0  0.66358  0.82222  0.26456  1.0000
  C   C909      1.0  0.71773  0.50062  0.30947  1.0000
  C   C910      1.0  0.72179  0.72956  0.29152  1.0000
  C   C911      1.0  0.70360  0.66316  0.23506  1.0000
  C   C912      1.0  0.69274  0.64459  0.24355  1.0000
  C   C913      1.0  0.67022  0.64549  0.24117  1.0000
  C   C914      1.0  0.65870  0.66487  0.23019  1.0000
  C   C915      1.0  0.67021  0.68264  0.22031  1.0000
  C   C916      1.0  0.69242  0.68197  0.22312  1.0000
  H   H1091     1.0  0.70142  0.62986  0.25257  1.0000
  H   H1092     1.0  0.66154  0.63145  0.24848  1.0000
  H   H1093     1.0  0.66208  0.69689  0.21042  1.0000
  H   H1094     1.0  0.70094  0.69608  0.21606  1.0000
  H   H1095     1.0  0.61832  0.70210  0.31958  1.0000
  H   H1096     1.0  0.73360  0.79184  0.27339  1.0000
  C   C917      1.0  0.51663  0.71374  0.20377  1.0000
  C   C918      1.0  0.50946  0.72540  0.22204  1.0000
  S   S253      1.0  0.73045  0.66430  0.24037  1.0000
  H   H1097     1.0  0.68396  0.65496  0.18195  1.0000
  C   C919      1.0  0.73264  0.83922  0.15447  1.0000
  H   H1098     1.0  0.53427  0.71004  0.19784  1.0000
  H   H1099     1.0  0.68546  0.91819  0.31631  1.0000
  H   H1100     1.0  0.70539  0.71442  0.24675  1.0000
  H   H1101     1.0  0.70064  0.90469  0.35225  1.0000
  H   H1102     1.0  0.66942  0.82128  0.14788  1.0000
  Fe  Fe127     1.0  0.70752  0.85985  0.27702  1.0000
  H   H1103     1.0  0.64136  0.71291  0.25988  1.0000
  H   H1104     1.0  0.72957  0.89297  0.35174  1.0000
  H   H1105     1.0  0.74485  0.76740  0.20372  1.0000
  C   C920      1.0  0.72937  0.75646  0.32246  1.0000
  C   C921      1.0  0.50087  0.70687  0.19319  1.0000
  C   C922      1.0  0.70811  0.72516  0.25801  1.0000
  C   C923      1.0  0.71803  0.71586  0.27692  1.0000
  C   C924      1.0  0.72985  0.61546  0.18299  1.0000
  H   H1106     1.0  0.69245  0.75791  0.11535  1.0000
  S   S254      1.0  0.71367  0.71255  0.12846  1.0000
  C   C925      1.0  0.68682  0.72679  0.13620  1.0000
  H   H1107     1.0  0.63160  0.72605  0.30552  1.0000
  H   H1108     1.0  0.62174  0.68113  0.27837  1.0000
  H   H1109     1.0  0.67768  0.81586  0.20761  1.0000
  C   C926      1.0  0.70717  0.74088  0.18839  1.0000
  N   N61       1.0  0.67729  0.80066  0.17852  1.0000
  C   C927      1.0  0.71391  0.78367  0.19266  1.0000
  H   H1110     1.0  0.72295  0.69788  0.28015  1.0000
  S   S255      1.0  0.70798  0.84553  0.31317  1.0000
  H   H1111     1.0  0.69885  0.89351  0.30536  1.0000
  H   H1112     1.0  0.68425  0.98103  0.18324  1.0000
  C   C928      1.0  0.55467  0.77791  0.13440  1.0000
  S   S256      1.0  0.70707  0.83835  0.25120  1.0000
  C   C929      1.0  0.73406  0.97413  0.32812  1.0000
  H   H1113     1.0  0.68006  0.69242  0.35596  1.0000
  C   C930      1.0  0.66315  0.68707  0.30669  1.0000
  C   C931      1.0  0.66319  0.69477  0.32730  1.0000
  C   C932      1.0  0.68164  0.67123  0.29961  1.0000
  C   C933      1.0  0.68029  0.68645  0.34024  1.0000
  C   C934      1.0  0.69855  0.66294  0.31275  1.0000
  C   C935      1.0  0.69774  0.67036  0.33315  1.0000
  H   H1114     1.0  0.54219  0.78435  0.17694  1.0000
  Fe  Fe128     1.0  0.73017  0.86024  0.22926  1.0000
  C   C936      1.0  0.62622  0.71028  0.30321  1.0000
  H   H1115     1.0  0.67599  0.69814  0.15829  1.0000
  H   H1116     1.0  0.73844  0.72949  0.20091  1.0000
  C   C937      1.0  0.71590  0.75318  0.28734  1.0000
  C   C938      1.0  0.69138  0.75929  0.18264  1.0000
  H   H1117     1.0  0.66067  0.72245  0.27355  1.0000
  H   H1118     1.0  0.68317  0.66506  0.28384  1.0000
  H   H1119     1.0  0.68114  0.79279  0.14501  1.0000
  H   H1120     1.0  0.71238  0.65066  0.30706  1.0000
  H   H1121     1.0  0.71075  0.66374  0.34344  1.0000
  N   N62       1.0  0.54757  0.76084  0.15334  1.0000
  H   H1122     1.0  0.66814  0.69680  0.26188  1.0000
  C   C939      1.0  0.73917  0.78061  0.28832  1.0000
  C   C940      1.0  0.70145  0.64780  0.18104  1.0000
  C   C941      1.0  0.65416  0.79518  0.18484  1.0000
  H   H1123     1.0  0.54716  0.75524  0.18914  1.0000
  C   C942      1.0  0.68171  0.80695  0.15393  1.0000
  N   N63       1.0  0.72046  0.90956  0.31977  1.0000
  C   C943      1.0  0.72958  0.76510  0.19847  1.0000
  H   H1124     1.0  0.73805  0.99035  0.32944  1.0000
  C   C944      1.0  0.71788  0.66180  0.17659  1.0000
  C   C945      1.0  0.71534  0.89611  0.34206  1.0000
  N   N64       1.0  0.64510  0.69503  0.29277  1.0000
  H   H1125     1.0  0.55646  0.72561  0.16377  1.0000
  H   H1126     1.0  0.56219  0.73399  0.13408  1.0000
  H   H1127     1.0  0.55372  0.77322  0.11791  1.0000
  C   C946      1.0  0.74056  0.89772  0.30720  1.0000
  C   C947      1.0  0.65430  0.70727  0.27110  1.0000
  H   H1128     1.0  0.73841  0.52659  0.30431  1.0000
  H   H1129     1.0  0.70118  0.77988  0.26332  1.0000
  H   H1130     1.0  0.54402  0.79438  0.13568  1.0000
  H   H1131     1.0  0.69357  0.82818  0.18234  1.0000
  C   C948      1.0  0.56205  0.73920  0.15058  1.0000
  H   H1132     1.0  0.64131  0.81025  0.18287  1.0000
  C   C949      1.0  0.72607  0.74372  0.19667  1.0000
  H   H1133     1.0  0.70447  0.91993  0.29017  1.0000
  C   C950      1.0  0.74047  0.98402  0.26644  1.0000
  H   H1134     1.0  0.52954  0.74688  0.12102  1.0000
  H   H1135     1.0  0.73753  0.88129  0.30394  1.0000
  H   H1136     1.0  0.64819  0.66451  0.27846  1.0000
  H   H1137     1.0  0.70495  0.72449  0.18560  1.0000
  C   C951      1.0  0.52392  0.75858  0.15351  1.0000
  H   H1138     1.0  0.68803  0.98557  0.25454  1.0000
  H   H1139     1.0  0.73239  0.76831  0.33313  1.0000
  H   H1140     1.0  0.65025  0.78393  0.17412  1.0000
  S   S257      1.0  0.73316  0.87973  0.25636  1.0000
  H   H1141     1.0  0.71210  0.67951  0.17368  1.0000
  H   H1142     1.0  0.50992  0.76930  0.18624  1.0000
  C   C952      1.0  0.70578  0.76207  0.26788  1.0000
  H   H1143     1.0  0.71707  0.74609  0.33281  1.0000
  C   C953      1.0  0.69394  0.78123  0.18517  1.0000
  C   C954      1.0  0.73401  0.83112  0.31879  1.0000
  H   H1144     1.0  0.67746  0.75614  0.17565  1.0000
  H   H1145     1.0  0.62946  0.66547  0.30428  1.0000
  H   H1146     1.0  0.65131  0.78708  0.20258  1.0000
  N   N65       1.0  0.72131  0.76830  0.30139  1.0000
  H   H1147     1.0  0.73916  0.69992  0.16435  1.0000
  S   S258      1.0  0.74531  0.60422  0.27918  1.0000
  H   H1148     1.0  0.69866  0.81181  0.14853  1.0000
  C   C955      1.0  0.70171  0.74818  0.25365  1.0000
  C   C956      1.0  0.73781  0.50921  0.30337  1.0000
  H   H1149     1.0  0.61286  0.71566  0.29238  1.0000
  C   C957      1.0  0.67831  0.82040  0.18917  1.0000
  C   C958      1.0  0.74370  0.50957  0.24317  1.0000
  H   H1150     1.0  0.71646  0.95222  0.19078  1.0000
  H   H1151     1.0  0.72584  0.51452  0.24667  1.0000
  H   H1152     1.0  0.72948  0.72130  0.30591  1.0000
  H   H1153     1.0  0.71937  0.84891  0.14586  1.0000
  H   H1154     1.0  0.69613  0.79679  0.29328  1.0000
  C   C959      1.0  0.73554  0.81790  0.33961  1.0000
  H   H1155     1.0  0.50649  0.69811  0.17890  1.0000
  H   H1156     1.0  0.71804  0.79985  0.19364  1.0000
  H   H1157     1.0  0.69456  0.61395  0.18855  1.0000
  H   H1158     1.0  0.70277  0.51135  0.31554  1.0000
  H   H1159     1.0  0.69372  0.75535  0.23903  1.0000
  C   C960      1.0  0.70148  0.91049  0.30737  1.0000
  H   H1160     1.0  0.50686  0.67184  0.23253  1.0000
  C   C961      1.0  0.73646  0.84501  0.17452  1.0000
  C   C962      1.0  0.70739  0.62470  0.18464  1.0000
  C   C963      1.0  0.51748  0.75094  0.13531  1.0000
  S   S259      1.0  0.74280  0.76367  0.08853  1.0000
  Fe  Fe129     1.0  0.74033  0.73446  0.11607  1.0000
  H   H1161     1.0  0.69681  0.95240  0.30703  1.0000
  C   C964      1.0  0.50674  0.76377  0.17142  1.0000
  H   H1162     1.0  0.68691  0.77605  0.31592  1.0000
  H   H1163     1.0  0.70462  0.79520  0.31964  1.0000
  H   H1164     1.0  0.72618  0.85913  0.18123  1.0000
  C   C965      1.0  0.71839  0.99241  0.26352  1.0000
  H   H1165     1.0  0.70521  0.98803  0.31237  1.0000
  H   H1166     1.0  0.74008  0.69019  0.19393  1.0000
  C   C966      1.0  0.71094  0.95204  0.31547  1.0000
  C   C967      1.0  0.69830  0.98557  0.18909  1.0000
  C   C968      1.0  0.72470  0.93185  0.32262  1.0000
  C   C969      1.0  0.74306  0.93382  0.33306  1.0000
  H   H1167     1.0  0.74245  0.93145  0.25384  1.0000
  H   H1168     1.0  0.74470  0.79124  0.29859  1.0000
  C   C970      1.0  0.71555  0.97278  0.31843  1.0000
  H   H1169     1.0  0.73446  0.59745  0.18555  1.0000
  C   C971      1.0  0.73443  0.97481  0.20114  1.0000
  S   S260      1.0  0.74038  0.81395  0.12057  1.0000
  C   C972      1.0  0.71651  0.96931  0.19316  1.0000
  H   H1170     1.0  0.74182  0.68339  0.31476  1.0000
  C   C973      1.0  0.74089  0.65294  0.17614  1.0000
  H   H1171     1.0  0.74561  0.90781  0.29075  1.0000
  H   H1172     1.0  0.74565  0.74549  0.31917  1.0000
  C   C974      1.0  0.74585  0.82095  0.14554  1.0000
  C   C975      1.0  0.50251  0.78498  0.68918  1.0000
  C   C976      1.0  0.73184  0.77985  0.53330  1.0000
  H   H1173     1.0  0.69548  0.71533  0.84878  1.0000
  Fe  Fe130     1.0  0.72209  0.64509  0.76995  1.0000
  C   C977      1.0  0.69568  0.77772  0.78922  1.0000
  S   S261      1.0  0.69772  0.67641  0.77476  1.0000
  C   C978      1.0  0.69501  0.63670  0.69157  1.0000
  H   H1174     1.0  0.73652  0.74374  0.51276  1.0000
  C   C979      1.0  0.70040  0.74399  0.57306  1.0000
  H   H1175     1.0  0.71979  0.55032  0.72245  1.0000
  C   C980      1.0  0.68789  0.78367  0.56428  1.0000
  C   C981      1.0  0.72795  0.63630  0.66380  1.0000
  H   H1176     1.0  0.58156  0.69806  0.72096  1.0000
  H   H1177     1.0  0.74434  0.49575  0.81052  1.0000
  S   S262      1.0  0.72258  0.62000  0.74717  1.0000
  Fe  Fe131     1.0  0.64239  0.80384  0.71861  1.0000
  S   S263      1.0  0.61801  0.82728  0.69911  1.0000
  S   S264      1.0  0.66046  0.81340  0.74400  1.0000
  Fe  Fe132     1.0  0.63842  0.76494  0.69571  1.0000
  S   S265      1.0  0.61441  0.78517  0.67351  1.0000
  S   S266      1.0  0.65184  0.72907  0.69261  1.0000
  Fe  Fe133     1.0  0.63688  0.81127  0.66977  1.0000
  S   S267      1.0  0.64788  0.83375  0.63836  1.0000
  Fe  Fe134     1.0  0.59746  0.79919  0.70470  1.0000
  S   S268      1.0  0.56018  0.80420  0.71770  1.0000
  S   S269      1.0  0.66232  0.78970  0.68894  1.0000
  S   S270      1.0  0.62022  0.77715  0.72726  1.0000
  H   H1178     1.0  0.70298  0.66509  0.66730  1.0000
  C   C982      1.0  0.70846  0.77687  0.80613  1.0000
  C   C983      1.0  0.53831  0.79737  0.70569  1.0000
  C   C984      1.0  0.51607  0.80278  0.71570  1.0000
  C   C985      1.0  0.54162  0.72443  0.71427  1.0000
  H   H1179     1.0  0.69109  0.60705  0.71422  1.0000
  C   C986      1.0  0.52471  0.77984  0.67895  1.0000
  C   C987      1.0  0.54251  0.78615  0.68701  1.0000
  H   H1180     1.0  0.51260  0.81153  0.73009  1.0000
  C   C988      1.0  0.54974  0.73411  0.73016  1.0000
  H   H1181     1.0  0.52819  0.77078  0.66479  1.0000
  H   H1182     1.0  0.55943  0.78222  0.67883  1.0000
  C   C989      1.0  0.67410  0.82575  0.62287  1.0000
  C   C990      1.0  0.68738  0.80522  0.62856  1.0000
  C   C991      1.0  0.70798  0.79935  0.61523  1.0000
  C   C992      1.0  0.68155  0.84034  0.60397  1.0000
  H   H1183     1.0  0.68155  0.79359  0.64277  1.0000
  H   H1184     1.0  0.71799  0.78332  0.61935  1.0000
  H   H1185     1.0  0.67136  0.85617  0.59943  1.0000
  C   C993      1.0  0.72395  0.53893  0.77320  1.0000
  H   H1186     1.0  0.55288  0.71496  0.70257  1.0000
  H   H1187     1.0  0.53812  0.75591  0.75613  1.0000
  S   S271      1.0  0.72823  0.61917  0.79974  1.0000
  H   H1188     1.0  0.68765  0.72868  0.60616  1.0000
  C   C994      1.0  0.67455  0.76355  0.60029  1.0000
  H   H1189     1.0  0.73741  0.54689  0.68580  1.0000
  H   H1190     1.0  0.71016  0.72825  0.56963  1.0000
  H   H1191     1.0  0.71527  0.73047  0.53103  1.0000
  H   H1192     1.0  0.70328  0.74999  0.68064  1.0000
  C   C995      1.0  0.68550  0.69081  0.75155  1.0000
  C   C996      1.0  0.68946  0.68250  0.73115  1.0000
  C   C997      1.0  0.67907  0.69436  0.71304  1.0000
  C   C998      1.0  0.66502  0.71463  0.71522  1.0000
  C   C999      1.0  0.66140  0.72305  0.73552  1.0000
  C   C1000     1.0  0.67146  0.71109  0.75368  1.0000
  H   H1193     1.0  0.70028  0.66686  0.72938  1.0000
  H   H1194     1.0  0.68201  0.68791  0.69729  1.0000
  H   H1195     1.0  0.65055  0.73857  0.73743  1.0000
  H   H1196     1.0  0.66805  0.71741  0.76953  1.0000
  C   C1001     1.0  0.71515  0.81401  0.59616  1.0000
  C   C1002     1.0  0.71904  0.85268  0.71829  1.0000
  C   C1003     1.0  0.71082  0.84928  0.74116  1.0000
  C   C1004     1.0  0.69311  0.83681  0.74897  1.0000
  C   C1005     1.0  0.68350  0.82781  0.73397  1.0000
  C   C1006     1.0  0.69196  0.83102  0.71116  1.0000
  C   C1007     1.0  0.70978  0.84325  0.70339  1.0000
  H   H1197     1.0  0.71777  0.85663  0.75275  1.0000
  H   H1198     1.0  0.68646  0.83466  0.76662  1.0000
  H   H1199     1.0  0.68457  0.82441  0.69940  1.0000
  H   H1200     1.0  0.71601  0.84593  0.68566  1.0000
  C   C1008     1.0  0.73305  0.73182  0.70798  1.0000
  H   H1201     1.0  0.70185  0.69352  0.81607  1.0000
  S   S272      1.0  0.73467  0.96882  0.74892  1.0000
  C   C1009     1.0  0.50348  0.73976  0.72700  1.0000
  H   H1202     1.0  0.68686  0.76355  0.51886  1.0000
  H   H1203     1.0  0.68192  0.75876  0.77003  1.0000
  H   H1204     1.0  0.71915  0.69596  0.85647  1.0000
  H   H1205     1.0  0.49888  0.76003  0.75310  1.0000
  S   S273      1.0  0.74006  0.86940  0.70732  1.0000
  H   H1206     1.0  0.68784  0.79366  0.78141  1.0000
  S   S274      1.0  0.71467  0.56335  0.78576  1.0000
  C   C1010     1.0  0.71116  0.52133  0.77850  1.0000
  H   H1207     1.0  0.69910  0.78056  0.71459  1.0000
  H   H1208     1.0  0.58347  0.73378  0.69533  1.0000
  N   N66       1.0  0.57399  0.73085  0.73136  1.0000
  H   H1209     1.0  0.72740  0.67851  0.82376  1.0000
  C   C1011     1.0  0.57955  0.74106  0.74962  1.0000
  C   C1012     1.0  0.67465  0.78333  0.58528  1.0000
  H   H1210     1.0  0.57479  0.75960  0.74699  1.0000
  C   C1013     1.0  0.70801  0.64762  0.67349  1.0000
  H   H1211     1.0  0.72756  0.69426  0.79653  1.0000
  C   C1014     1.0  0.70178  0.61432  0.69994  1.0000
  C   C1015     1.0  0.68744  0.74395  0.59422  1.0000
  H   H1212     1.0  0.69718  0.56928  0.71236  1.0000
  H   H1213     1.0  0.68799  0.79964  0.55362  1.0000
  H   H1214     1.0  0.58009  0.75932  0.70672  1.0000
  C   C1016     1.0  0.51883  0.72730  0.71275  1.0000
  C   C1017     1.0  0.71773  0.50192  0.76828  1.0000
  C   C1018     1.0  0.53361  0.74705  0.74421  1.0000
  H   H1215     1.0  0.69861  0.72261  0.78753  1.0000
  H   H1216     1.0  0.74311  0.77376  0.54616  1.0000
  C   C1019     1.0  0.69241  0.75798  0.78279  1.0000
  H   H1217     1.0  0.66489  0.79865  0.59023  1.0000
  C   C1020     1.0  0.70111  0.76398  0.55742  1.0000
  H   H1218     1.0  0.70742  0.84588  0.57600  1.0000
  Fe  Fe135     1.0  0.73206  0.59407  0.77596  1.0000
  H   H1219     1.0  0.59781  0.73786  0.75044  1.0000
  N   N67       1.0  0.72578  0.75612  0.70165  1.0000
  H   H1220     1.0  0.71246  0.76106  0.73561  1.0000
  H   H1221     1.0  0.57107  0.73414  0.76629  1.0000
  N   N68       1.0  0.63812  0.89112  0.70540  1.0000
  C   C1021     1.0  0.65015  0.87928  0.68664  1.0000
  C   C1022     1.0  0.63397  0.87448  0.72574  1.0000
  C   C1023     1.0  0.61605  0.90197  0.69921  1.0000
  C   C1024     1.0  0.65189  0.90697  0.70991  1.0000
  C   C1025     1.0  0.64449  0.93034  0.70891  1.0000
  C   C1026     1.0  0.67347  0.89902  0.71581  1.0000
  C   C1027     1.0  0.65802  0.94463  0.71360  1.0000
  C   C1028     1.0  0.68690  0.91340  0.72035  1.0000
  C   C1029     1.0  0.67917  0.93617  0.71932  1.0000
  H   H1222     1.0  0.66580  0.86859  0.69080  1.0000
  H   H1223     1.0  0.63994  0.86796  0.68193  1.0000
  H   H1224     1.0  0.65470  0.89130  0.67140  1.0000
  H   H1225     1.0  0.64956  0.86395  0.73031  1.0000
  H   H1226     1.0  0.62296  0.86268  0.72348  1.0000
  H   H1227     1.0  0.62591  0.88279  0.74048  1.0000
  H   H1228     1.0  0.61791  0.91429  0.68364  1.0000
  H   H1229     1.0  0.60625  0.88951  0.69586  1.0000
  H   H1230     1.0  0.60565  0.91043  0.71297  1.0000
  H   H1231     1.0  0.62832  0.93802  0.70463  1.0000
  H   H1232     1.0  0.68008  0.88152  0.71703  1.0000
  H   H1233     1.0  0.65209  0.96238  0.71288  1.0000
  H   H1234     1.0  0.70340  0.90679  0.72473  1.0000
  H   H1235     1.0  0.68962  0.94724  0.72304  1.0000
  H   H1236     1.0  0.60078  0.70367  0.73709  1.0000
  N   N69       1.0  0.72971  0.57845  0.69855  1.0000
  C   C1030     1.0  0.70196  0.83451  0.59070  1.0000
  H   H1237     1.0  0.67976  0.64575  0.69941  1.0000
  C   C1031     1.0  0.71404  0.71266  0.84695  1.0000
  C   C1032     1.0  0.70693  0.76298  0.71896  1.0000
  H   H1238     1.0  0.69277  0.79132  0.51829  1.0000
  H   H1239     1.0  0.57341  0.69811  0.75057  1.0000
  C   C1033     1.0  0.58273  0.70663  0.73517  1.0000
  H   H1240     1.0  0.51300  0.72037  0.70008  1.0000
  H   H1241     1.0  0.71064  0.79219  0.81152  1.0000
  H   H1242     1.0  0.72696  0.75646  0.83036  1.0000
  N   N70       1.0  0.71493  0.76483  0.53501  1.0000
  C   C1034     1.0  0.70195  0.73727  0.79318  1.0000
  H   H1243     1.0  0.60430  0.73871  0.71009  1.0000
  H   H1244     1.0  0.71124  0.77762  0.67461  1.0000
  C   C1035     1.0  0.71781  0.75627  0.81682  1.0000
  C   C1036     1.0  0.71727  0.75966  0.67992  1.0000
  H   H1245     1.0  0.73218  0.65431  0.86621  1.0000
  N   N71       1.0  0.72417  0.71429  0.82302  1.0000
  H   H1246     1.0  0.69323  0.75273  0.72079  1.0000
  H   H1247     1.0  0.72809  0.79517  0.71919  1.0000
  H   H1248     1.0  0.71911  0.72497  0.85575  1.0000
  H   H1249     1.0  0.71218  0.57654  0.73248  1.0000
  C   C1037     1.0  0.49824  0.79677  0.70743  1.0000
  C   C1038     1.0  0.71479  0.73582  0.81076  1.0000
  H   H1250     1.0  0.69596  0.52285  0.79039  1.0000
  H   H1251     1.0  0.71872  0.72217  0.71128  1.0000
  H   H1252     1.0  0.66473  0.76351  0.61680  1.0000
  C   C1039     1.0  0.58595  0.74105  0.70995  1.0000
  C   C1040     1.0  0.71396  0.56837  0.71723  1.0000
  C   C1041     1.0  0.51085  0.74961  0.74267  1.0000
  C   C1042     1.0  0.72204  0.60222  0.69035  1.0000
  C   C1043     1.0  0.70055  0.77371  0.51740  1.0000
  H   H1253     1.0  0.72580  0.69124  0.68971  1.0000
  H   H1254     1.0  0.73317  0.82292  0.81496  1.0000
  H   H1255     1.0  0.73039  0.75416  0.66626  1.0000
  C   C1044     1.0  0.72002  0.69444  0.81438  1.0000
  C   C1045     1.0  0.73701  0.50012  0.75244  1.0000
  C   C1046     1.0  0.72698  0.74267  0.53001  1.0000
  H   H1256     1.0  0.74217  0.53368  0.81750  1.0000
  C   C1047     1.0  0.73498  0.61401  0.67213  1.0000
  H   H1257     1.0  0.74000  0.65625  0.71264  1.0000
  H   H1258     1.0  0.72424  0.79716  0.53591  1.0000
  H   H1259     1.0  0.71024  0.77357  0.50025  1.0000
  H   H1260     1.0  0.71683  0.56703  0.67275  1.0000
  C   C1048     1.0  0.73258  0.56505  0.68000  1.0000
  H   H1261     1.0  0.73949  0.73560  0.54151  1.0000
  H   H1262     1.0  0.74244  0.78109  0.51659  1.0000
  H   H1263     1.0  0.73843  0.64513  0.65026  1.0000
  S   S275      1.0  0.74223  0.90179  0.76116  1.0000
  H   H1264     1.0  0.74216  0.80689  0.89165  1.0000
  C   C1049     1.0  0.74160  0.68179  0.68386  1.0000
  H   H1265     1.0  0.74345  0.82216  0.97119  1.0000
  H   H1266     1.0  0.74117  0.72844  0.72332  1.0000
  S   S276      1.0  0.74313  0.71448  0.64794  1.0000
  S   S277      1.0  0.74036  0.80743  0.57857  1.0000
  C   C1050     1.0  0.74367  0.53676  0.75801  1.0000
  C   C1051     1.0  0.74474  0.76877  0.69928  1.0000
  C   C1052     1.0  0.74309  0.78855  0.70901  1.0000
  H   H1267     1.0  0.74488  0.72434  0.69446  1.0000
  H   H1268     1.0  0.74593  0.56993  0.66621  1.0000
  H   H1269     1.0  0.75727  0.24769  0.24164  1.0000
  H   H1270     1.0  0.76915  0.42737  0.29575  1.0000
  H   H1271     1.0  0.90421  0.15740  0.19683  1.0000
  H   H1272     1.0  0.77609  0.20881  0.46256  1.0000
  H   H1273     1.0  0.81907  0.26906  0.30395  1.0000
  H   H1274     1.0  0.78979  0.19811  0.23838  1.0000
  C   C1053     1.0  0.88777  0.09443  0.24745  1.0000
  S   S278      1.0  0.80273  0.09257  0.27601  1.0000
  S   S279      1.0  0.76149  0.36231  0.22487  1.0000
  Fe  Fe136     1.0  0.89887  0.20504  0.20407  1.0000
  S   S280      1.0  0.87027  0.19816  0.23165  1.0000
  S   S281      1.0  0.93415  0.18608  0.20425  1.0000
  Fe  Fe137     1.0  0.86802  0.23641  0.17420  1.0000
  S   S282      1.0  0.83757  0.23217  0.19931  1.0000
  S   S283      1.0  0.86272  0.25880  0.14183  1.0000
  Fe  Fe138     1.0  0.85880  0.23522  0.22446  1.0000
  S   S284      1.0  0.84111  0.25632  0.25080  1.0000
  Fe  Fe139     1.0  0.85155  0.19590  0.20394  1.0000
  S   S285      1.0  0.82841  0.17214  0.20118  1.0000
  S   S286      1.0  0.88882  0.24228  0.19891  1.0000
  S   S287      1.0  0.88071  0.19990  0.17679  1.0000
  C   C1054     1.0  0.86701  0.10898  0.21655  1.0000
  S   S288      1.0  0.78706  0.45463  0.22606  1.0000
  Fe  Fe140     1.0  0.79350  0.37648  0.21712  1.0000
  C   C1055     1.0  0.77927  0.18479  0.27367  1.0000
  S   S289      1.0  0.82641  0.35719  0.20524  1.0000
  H   H1275     1.0  0.83932  0.09210  0.21540  1.0000
  S   S290      1.0  0.78715  0.39377  0.24726  1.0000
  C   C1056     1.0  0.80668  0.21135  0.26793  1.0000
  C   C1057     1.0  0.76561  0.27405  0.18783  1.0000
  C   C1058     1.0  0.84099  0.25228  0.12979  1.0000
  C   C1059     1.0  0.83379  0.23134  0.13573  1.0000
  C   C1060     1.0  0.81654  0.22640  0.12583  1.0000
  C   C1061     1.0  0.80590  0.24260  0.11050  1.0000
  C   C1062     1.0  0.81268  0.26375  0.10509  1.0000
  C   C1063     1.0  0.83039  0.26845  0.11444  1.0000
  H   H1276     1.0  0.84174  0.21879  0.14770  1.0000
  H   H1277     1.0  0.81132  0.21006  0.13025  1.0000
  H   H1278     1.0  0.80463  0.27640  0.09337  1.0000
  H   H1279     1.0  0.83577  0.28471  0.10987  1.0000
  C   C1064     1.0  0.83737  0.28468  0.23896  1.0000
  C   C1065     1.0  0.84969  0.29167  0.21833  1.0000
  C   C1066     1.0  0.84656  0.31406  0.20846  1.0000
  C   C1067     1.0  0.83056  0.32957  0.21883  1.0000
  C   C1068     1.0  0.81798  0.32273  0.23945  1.0000
  C   C1069     1.0  0.82160  0.30031  0.24967  1.0000
  H   H1280     1.0  0.86176  0.27990  0.20990  1.0000
  H   H1281     1.0  0.85629  0.31924  0.19250  1.0000
  H   H1282     1.0  0.80564  0.33472  0.24757  1.0000
  H   H1283     1.0  0.81191  0.29501  0.26557  1.0000
  C   C1070     1.0  0.80846  0.11586  0.25613  1.0000
  C   C1071     1.0  0.79928  0.12023  0.23624  1.0000
  C   C1072     1.0  0.80562  0.13758  0.21954  1.0000
  C   C1073     1.0  0.82064  0.15104  0.22290  1.0000
  C   C1074     1.0  0.82928  0.14720  0.24310  1.0000
  C   C1075     1.0  0.82341  0.12940  0.25961  1.0000
  H   H1284     1.0  0.78781  0.10980  0.23345  1.0000
  H   H1285     1.0  0.79888  0.14057  0.20392  1.0000
  H   H1286     1.0  0.84069  0.15766  0.24582  1.0000
  H   H1287     1.0  0.83057  0.12591  0.27499  1.0000
  H   H1288     1.0  0.90532  0.13068  0.25450  1.0000
  N   N72       1.0  0.75761  0.37277  0.02405  1.0000
  H   H1289     1.0  0.76369  0.19822  0.04530  1.0000
  Fe  Fe141     1.0  0.77188  0.42349  0.22505  1.0000
  C   C1076     1.0  0.77524  0.48152  0.23300  1.0000
  H   H1290     1.0  0.83100  0.45841  0.20671  1.0000
  C   C1077     1.0  0.75357  0.15736  0.27761  1.0000
  H   H1291     1.0  0.79145  0.31323  0.13456  1.0000
  C   C1078     1.0  0.89297  0.14440  0.20161  1.0000
  H   H1292     1.0  0.76442  0.16694  0.30513  1.0000
  H   H1293     1.0  0.76842  0.17676  0.22271  1.0000
  C   C1079     1.0  0.95583  0.19686  0.21281  1.0000
  C   C1080     1.0  0.97801  0.18637  0.20832  1.0000
  C   C1081     1.0  0.77740  0.21106  0.29941  1.0000
  C   C1082     1.0  0.96897  0.22317  0.23118  1.0000
  C   C1083     1.0  0.95138  0.21526  0.22435  1.0000
  S   S291      1.0  0.75785  0.00054  0.27442  1.0000
  H   H1294     1.0  0.96535  0.23744  0.24008  1.0000
  H   H1295     1.0  0.93438  0.22337  0.22809  1.0000
  H   H1296     1.0  0.95495  0.25845  0.19499  1.0000
  C   C1084     1.0  0.88014  0.47846  0.19645  1.0000
  H   H1297     1.0  0.79337  0.24634  0.37167  1.0000
  H   H1298     1.0  0.78709  0.38333  0.00325  1.0000
  C   C1085     1.0  0.78167  0.28763  0.18945  1.0000
  C   C1086     1.0  0.89469  0.45903  0.19244  1.0000
  H   H1299     1.0  0.81665  0.22000  0.27639  1.0000
  C   C1087     1.0  0.76577  0.26753  0.39937  1.0000
  S   S292      1.0  0.78077  0.40659  0.19416  1.0000
  C   C1088     1.0  0.80747  0.25588  0.33811  1.0000
  C   C1089     1.0  0.76854  0.30623  0.38718  1.0000
  H   H1300     1.0  0.79640  0.22481  0.25794  1.0000
  N   N73       1.0  0.79260  0.19678  0.28428  1.0000
  H   H1301     1.0  0.79608  0.33676  0.15987  1.0000
  C   C1090     1.0  0.86312  0.43784  0.19853  1.0000
  C   C1091     1.0  0.77998  0.24937  0.03235  1.0000
  H   H1302     1.0  0.89865  0.42456  0.19023  1.0000
  H   H1303     1.0  0.80070  0.29561  0.21313  1.0000
  C   C1092     1.0  0.76397  0.25871  0.22720  1.0000
  H   H1304     1.0  0.90776  0.15532  0.23481  1.0000
  C   C1093     1.0  0.88643  0.43894  0.19346  1.0000
  H   H1305     1.0  0.76472  0.22253  0.29033  1.0000
  C   C1094     1.0  0.77011  0.36718  0.12918  1.0000
  C   C1095     1.0  0.85318  0.09253  0.22405  1.0000
  H   H1306     1.0  0.77171  0.46448  0.28566  1.0000
  H   H1307     1.0  0.76365  0.44203  0.04391  1.0000
  H   H1308     1.0  0.84482  0.06538  0.24965  1.0000
  H   H1309     1.0  0.76971  0.38654  0.15555  1.0000
  H   H1310     1.0  0.77192  0.12575  0.33184  1.0000
  C   C1096     1.0  0.74668  0.42064  0.07041  1.0000
  C   C1097     1.0  0.92269  0.11779  0.21520  1.0000
  H   H1311     1.0  0.90092  0.09446  0.25707  1.0000
  C   C1098     1.0  0.76555  0.16971  0.28711  1.0000
  H   H1312     1.0  0.98160  0.17198  0.19961  1.0000
  C   C1099     1.0  0.89817  0.14095  0.23995  1.0000
  C   C1100     1.0  0.96319  0.24348  0.14314  1.0000
  H   H1313     1.0  0.86295  0.12067  0.20199  1.0000
  S   S293      1.0  0.77360  0.29464  0.06224  1.0000
  S   S294      1.0  0.77073  0.34306  0.09541  1.0000
  S   S295      1.0  0.78436  0.23617  0.09806  1.0000
  H   H1314     1.0  0.78699  0.36942  0.12162  1.0000
  H   H1315     1.0  0.93401  0.13073  0.20953  1.0000
  C   C1101     1.0  0.80768  0.18037  0.29767  1.0000
  H   H1316     1.0  0.80558  0.21292  0.05050  1.0000
  H   H1317     1.0  0.89424  0.13619  0.18653  1.0000
  N   N74       1.0  0.85367  0.41692  0.19994  1.0000
  C   C1102     1.0  0.83685  0.42034  0.18449  1.0000
  C   C1103     1.0  0.87064  0.39767  0.19402  1.0000
  C   C1104     1.0  0.84260  0.41063  0.22313  1.0000
  H   H1318     1.0  0.78674  0.35515  0.03798  1.0000
  H   H1319     1.0  0.79836  0.17044  0.31209  1.0000
  C   C1105     1.0  0.77966  0.27179  0.22930  1.0000
  C   C1106     1.0  0.99119  0.21293  0.22639  1.0000
  H   H1320     1.0  0.99419  0.23397  0.12373  1.0000
  C   C1107     1.0  0.99563  0.19438  0.21503  1.0000
  H   H1321     1.0  0.83056  0.40449  0.18398  1.0000
  H   H1322     1.0  0.82184  0.43235  0.18961  1.0000
  H   H1323     1.0  0.84400  0.42676  0.16710  1.0000
  H   H1324     1.0  0.87937  0.40111  0.17658  1.0000
  H   H1325     1.0  0.86290  0.38233  0.19492  1.0000
  H   H1326     1.0  0.88311  0.39316  0.20584  1.0000
  H   H1327     1.0  0.82823  0.42334  0.22817  1.0000
  H   H1328     1.0  0.83585  0.39457  0.22502  1.0000
  H   H1329     1.0  0.85444  0.40863  0.23541  1.0000
  H   H1330     1.0  0.76610  0.33540  0.26610  1.0000
  C   C1108     1.0  0.75447  0.16001  0.25446  1.0000
  H   H1331     1.0  0.74824  0.99926  0.21239  1.0000
  H   H1332     1.0  0.75429  0.27193  0.41468  1.0000
  H   H1333     1.0  0.76947  0.29431  0.27355  1.0000
  H   H1334     1.0  0.93375  0.25307  0.16603  1.0000
  C   C1109     1.0  0.88467  0.11056  0.22821  1.0000
  C   C1110     1.0  0.78832  0.28607  0.21078  1.0000
  H   H1335     1.0  0.92932  0.10657  0.22956  1.0000
  H   H1336     1.0  0.79528  0.30568  0.30569  1.0000
  C   C1111     1.0  0.75698  0.25981  0.20652  1.0000
  C   C1112     1.0  0.85629  0.07741  0.24336  1.0000
  H   H1337     1.0  0.78177  0.25028  0.04992  1.0000
  H   H1338     1.0  0.77430  0.33886  0.02283  1.0000
  C   C1113     1.0  0.75558  0.42920  0.28538  1.0000
  C   C1114     1.0  0.77957  0.18738  0.25010  1.0000
  C   C1115     1.0  0.87362  0.07825  0.25496  1.0000
  C   C1116     1.0  0.78331  0.30210  0.14884  1.0000
  H   H1339     1.0  0.88061  0.14775  0.24599  1.0000
  C   C1117     1.0  0.76028  0.21977  0.46345  1.0000
  C   C1118     1.0  0.80277  0.21328  0.03289  1.0000
  C   C1119     1.0  0.96383  0.25346  0.17933  1.0000
  N   N75       1.0  0.89925  0.12815  0.22124  1.0000
  H   H1340     1.0  0.75374  0.41197  0.28340  1.0000
  C   C1120     1.0  0.75367  0.38963  0.03950  1.0000
  H   H1341     1.0  0.81889  0.18869  0.30492  1.0000
  C   C1121     1.0  0.98656  0.23954  0.13941  1.0000
  C   C1122     1.0  0.77064  0.35194  0.03405  1.0000
  H   H1342     1.0  0.75559  0.21728  0.42976  1.0000
  H   H1343     1.0  0.81828  0.16830  0.28718  1.0000
  H   H1344     1.0  0.76982  0.31315  0.33956  1.0000
  H   H1345     1.0  0.78626  0.30444  0.38988  1.0000
  H   H1346     1.0  0.99560  0.25102  0.18952  1.0000
  C   C1123     1.0  0.77942  0.28087  0.35951  1.0000
  C   C1124     1.0  0.84885  0.45795  0.20260  1.0000
  C   C1125     1.0  0.78050  0.29718  0.34001  1.0000
  H   H1347     1.0  0.95372  0.24088  0.13066  1.0000
  Fe  Fe142     1.0  0.77136  0.07910  0.27393  1.0000
  C   C1126     1.0  0.77728  0.22555  0.00555  1.0000
  H   H1348     1.0  0.76085  0.25197  0.39601  1.0000
  C   C1127     1.0  0.95186  0.25039  0.16306  1.0000
  H   H1349     1.0  0.76162  0.34437  0.05001  1.0000
  N   N76       1.0  0.78067  0.22597  0.02883  1.0000
  H   H1350     1.0  0.81886  0.20157  0.25627  1.0000
  H   H1351     1.0  0.78294  0.26376  0.40388  1.0000
  C   C1128     1.0  0.75962  0.21600  0.00035  1.0000
  C   C1129     1.0  0.76720  0.17520  0.24077  1.0000
  H   H1352     1.0  0.75975  0.27387  0.17225  1.0000
  C   C1130     1.0  0.75162  0.22902  0.48322  1.0000
  H   H1353     1.0  0.80422  0.19569  0.02989  1.0000
  C   C1131     1.0  0.98717  0.24933  0.17592  1.0000
  H   H1354     1.0  0.87577  0.06655  0.27011  1.0000
  H   H1355     1.0  0.81677  0.22077  0.02191  1.0000
  H   H1356     1.0  0.78653  0.22162  0.30662  1.0000
  H   H1357     1.0  0.76509  0.30838  0.15036  1.0000
  H   H1358     1.0  0.92418  0.10775  0.20139  1.0000
  H   H1359     1.0  0.87566  0.15332  0.20522  1.0000
  H   H1360     1.0  0.79669  0.32739  0.18881  1.0000
  C   C1132     1.0  0.78870  0.32547  0.17444  1.0000
  H   H1361     1.0  0.77058  0.33196  0.17811  1.0000
  H   H1362     1.0  0.82506  0.30296  0.15050  1.0000
  N   N77       1.0  0.79218  0.30203  0.16994  1.0000
  C   C1133     1.0  0.81649  0.29395  0.16608  1.0000
  H   H1363     1.0  0.78655  0.28516  0.14368  1.0000
  H   H1364     1.0  0.82509  0.29598  0.17995  1.0000
  H   H1365     1.0  0.84592  0.49303  0.20468  1.0000
  H   H1366     1.0  0.76393  0.25968  0.02863  1.0000
  H   H1367     1.0  0.81967  0.27585  0.16456  1.0000
  H   H1368     1.0  0.91250  0.45955  0.18854  1.0000
  S   S296      1.0  0.75950  0.05358  0.30232  1.0000
  H   H1369     1.0  0.75773  0.30982  0.40311  1.0000
  S   S297      1.0  0.74911  0.22594  0.36511  1.0000
  C   C1134     1.0  0.79491  0.29301  0.32040  1.0000
  H   H1370     1.0  0.76639  0.21712  0.06344  1.0000
  C   C1135     1.0  0.76350  0.21620  0.04614  1.0000
  C   C1136     1.0  0.75738  0.30421  0.28427  1.0000
  H   H1371     1.0  0.78545  0.27068  0.24527  1.0000
  S   S298      1.0  0.74681  0.30436  0.00924  1.0000
  Fe  Fe143     1.0  0.76095  0.26686  0.08707  1.0000
  H   H1372     1.0  0.81775  0.23976  0.33716  1.0000
  H   H1373     1.0  0.79360  0.25761  0.02160  1.0000
  C   C1137     1.0  0.80827  0.27236  0.31938  1.0000
  C   C1138     1.0  0.77020  0.37999  0.00176  1.0000
  H   H1374     1.0  0.76822  0.20109  0.31387  1.0000
  H   H1375     1.0  0.80752  0.49156  0.23127  1.0000
  C   C1139     1.0  0.79333  0.25996  0.35794  1.0000
  C   C1140     1.0  0.85726  0.47791  0.20153  1.0000
  S   S299      1.0  0.76360  0.06183  0.24738  1.0000
  C   C1141     1.0  0.75765  0.42603  0.04876  1.0000
  C   C1142     1.0  0.76038  0.37684  0.14842  1.0000
  S   S300      1.0  0.75631  0.16452  0.35353  1.0000
  C   C1143     1.0  0.76118  0.41083  0.03344  1.0000
  C   C1144     1.0  0.75812  0.35470  0.11969  1.0000
  N   N78       1.0  0.76397  0.28575  0.38007  1.0000
  H   H1376     1.0  0.76115  0.43789  0.26833  1.0000
  C   C1145     1.0  0.75219  0.48819  0.23724  1.0000
  C   C1146     1.0  0.75540  0.32756  0.27993  1.0000
  H   H1377     1.0  0.77000  0.41602  0.01706  1.0000
  Fe  Fe144     1.0  0.75388  0.31680  0.08633  1.0000
  H   H1378     1.0  0.76530  0.32135  0.37467  1.0000
  H   H1379     1.0  0.75252  0.09693  0.32315  1.0000
  Fe  Fe145     1.0  0.75355  0.38251  0.25318  1.0000
  C   C1147     1.0  0.75628  0.47362  0.29283  1.0000
  C   C1148     1.0  0.75406  0.12658  0.33681  1.0000
  S   S301      1.0  0.74824  0.26427  0.30770  1.0000
  H   H1380     1.0  0.74994  0.03664  0.20466  1.0000
  C   C1149     1.0  0.74872  0.22461  0.44476  1.0000
  Fe  Fe146     1.0  0.74792  0.39376  0.20421  1.0000
  Fe  Fe147     1.0  0.74888  0.03782  0.27595  1.0000
  H   H1381     1.0  0.74755  0.20853  0.01307  1.0000
  H   H1382     1.0  0.74646  0.22542  0.04445  1.0000
  H   H1383     1.0  0.88659  0.49399  0.19566  1.0000
  Fe  Fe148     1.0  0.75392  0.23109  0.86186  1.0000
  H   H1384     1.0  0.78739  0.20501  0.68049  1.0000
  Fe  Fe149     1.0  0.87141  0.28999  0.70913  1.0000
  S   S302      1.0  0.89167  0.28873  0.67523  1.0000
  S   S303      1.0  0.86122  0.32124  0.72507  1.0000
  Fe  Fe150     1.0  0.86882  0.24061  0.71733  1.0000
  S   S304      1.0  0.88909  0.23476  0.68401  1.0000
  S   S305      1.0  0.85160  0.21612  0.74360  1.0000
  Fe  Fe151     1.0  0.91130  0.25762  0.69131  1.0000
  S   S306      1.0  0.94876  0.25168  0.67919  1.0000
  Fe  Fe152     1.0  0.86814  0.26627  0.67053  1.0000
  S   S307      1.0  0.85404  0.27387  0.63789  1.0000
  S   S308      1.0  0.89279  0.26059  0.72589  1.0000
  S   S309      1.0  0.84617  0.27027  0.70319  1.0000
  H   H1385     1.0  0.79906  0.43409  0.80737  1.0000
  H   H1386     1.0  0.96115  0.32269  0.73252  1.0000
  C   C1150     1.0  0.76717  0.22718  0.65825  1.0000
  S   S310      1.0  0.78125  0.05461  0.74785  1.0000
  Fe  Fe153     1.0  0.77486  0.13696  0.72320  1.0000
  C   C1151     1.0  0.76970  0.32911  0.83515  1.0000
  S   S311      1.0  0.80171  0.15508  0.70219  1.0000
  N   N79       1.0  0.78303  0.46700  0.79513  1.0000
  H   H1387     1.0  0.98277  0.33718  0.73668  1.0000
  S   S312      1.0  0.79274  0.29687  0.86317  1.0000
  H   H1388     1.0  0.79381  0.44906  0.76680  1.0000
  S   S313      1.0  0.77549  0.11799  0.75785  1.0000
  H   H1389     1.0  0.77651  0.22698  0.74755  1.0000
  C   C1152     1.0  0.77430  0.36836  0.82930  1.0000
  C   C1153     1.0  0.77304  0.03376  0.66558  1.0000
  C   C1154     1.0  0.79454  0.25354  0.74657  1.0000
  H   H1390     1.0  0.96481  0.36348  0.68165  1.0000
  C   C1155     1.0  0.96950  0.25666  0.69392  1.0000
  H   H1391     1.0  0.76813  0.07838  0.67290  1.0000
  H   H1392     1.0  0.79695  0.37673  0.84867  1.0000
  Fe  Fe154     1.0  0.76547  0.27611  0.86695  1.0000
  C   C1156     1.0  0.98108  0.26663  0.72649  1.0000
  C   C1157     1.0  0.96417  0.26256  0.71546  1.0000
  C   C1158     1.0  0.99192  0.25481  0.68361  1.0000
  H   H1393     1.0  0.79937  0.24373  0.95129  1.0000
  H   H1394     1.0  0.97676  0.27111  0.74318  1.0000
  H   H1395     1.0  0.94705  0.26387  0.72369  1.0000
  C   C1159     1.0  0.84220  0.25348  0.62883  1.0000
  C   C1160     1.0  0.83210  0.25935  0.60939  1.0000
  C   C1161     1.0  0.82176  0.24386  0.60196  1.0000
  C   C1162     1.0  0.82183  0.22226  0.61372  1.0000
  C   C1163     1.0  0.83237  0.21621  0.63292  1.0000
  C   C1164     1.0  0.84246  0.23182  0.64056  1.0000
  H   H1396     1.0  0.83227  0.27596  0.60003  1.0000
  H   H1397     1.0  0.81420  0.24841  0.58681  1.0000
  H   H1398     1.0  0.83273  0.19938  0.64186  1.0000
  H   H1399     1.0  0.85041  0.22707  0.65544  1.0000
  C   C1165     1.0  0.83650  0.20020  0.73219  1.0000
  C   C1166     1.0  0.82120  0.18754  0.74620  1.0000
  C   C1167     1.0  0.80973  0.17412  0.73712  1.0000
  C   C1168     1.0  0.81396  0.17307  0.71411  1.0000
  C   C1169     1.0  0.82900  0.18597  0.70019  1.0000
  C   C1170     1.0  0.84004  0.19970  0.70915  1.0000
  H   H1400     1.0  0.81841  0.18789  0.76406  1.0000
  H   H1401     1.0  0.79812  0.16417  0.74796  1.0000
  H   H1402     1.0  0.83230  0.18517  0.68239  1.0000
  H   H1403     1.0  0.85172  0.20945  0.69824  1.0000
  H   H1404     1.0  0.85352  0.21263  0.79217  1.0000
  C   C1171     1.0  0.80097  0.34145  0.70384  1.0000
  C   C1172     1.0  0.82253  0.33011  0.70612  1.0000
  C   C1173     1.0  0.83389  0.33456  0.72240  1.0000
  C   C1174     1.0  0.82346  0.35007  0.73665  1.0000
  C   C1175     1.0  0.80179  0.36116  0.73458  1.0000
  S   S314      1.0  0.81063  0.20207  0.60364  1.0000
  H   H1405     1.0  0.83065  0.31854  0.69476  1.0000
  H   H1406     1.0  0.83219  0.35364  0.74921  1.0000
  H   H1407     1.0  0.76383  0.44086  0.79470  1.0000
  H   H1408     1.0  0.79411  0.23526  0.80348  1.0000
  S   S315      1.0  0.76751  0.22314  0.50583  1.0000
  S   S316      1.0  0.77020  0.24547  0.56440  1.0000
  C   C1176     1.0  0.78945  0.36348  0.84470  1.0000
  C   C1177     1.0  0.78110  0.01055  0.74411  1.0000
  C   C1178     1.0  0.78514  0.32429  0.85029  1.0000
  H   H1409     1.0  0.74973  0.46830  0.78777  1.0000
  H   H1410     1.0  0.80764  0.20688  0.80801  1.0000
  H   H1411     1.0  0.79905  0.00962  0.74023  1.0000
  H   H1412     1.0  0.81638  0.22509  0.78293  1.0000
  C   C1179     1.0  0.79516  0.34146  0.85485  1.0000
  C   C1180     1.0  0.79558  0.27339  0.75417  1.0000
  C   C1181     1.0  0.76956  0.17331  0.81573  1.0000
  C   C1182     1.0  0.76465  0.35108  0.82428  1.0000
  H   H1413     1.0  0.76802  0.22736  0.94344  1.0000
  C   C1183     1.0  0.79179  0.23517  0.98718  1.0000
  C   C1184     1.0  0.77515  0.26584  0.64825  1.0000
  C   C1185     1.0  0.79169  0.26003  0.66276  1.0000
  H   H1414     1.0  0.76817  0.15231  0.79123  1.0000
  C   C1186     1.0  0.77293  0.28737  0.61122  1.0000
  H   H1415     1.0  0.94824  0.35359  0.70695  1.0000
  C   C1187     1.0  0.75860  0.16218  0.80358  1.0000
  S   S317      1.0  0.76615  0.10866  0.70934  1.0000
  C   C1188     1.0  0.75495  0.99707  0.69107  1.0000
  C   C1189     1.0  0.79066  0.35715  0.71794  1.0000
  H   H1416     1.0  0.81501  0.45599  0.80677  1.0000
  H   H1417     1.0  0.77901  0.29768  0.77517  1.0000
  H   H1418     1.0  0.80233  0.27161  0.66479  1.0000
  N   N80       1.0  0.84121  0.08511  0.73402  1.0000
  C   C1190     1.0  0.82453  0.09396  0.71861  1.0000
  C   C1191     1.0  0.84973  0.06160  0.73061  1.0000
  C   C1192     1.0  0.82988  0.08472  0.75748  1.0000
  C   C1193     1.0  0.85877  0.09971  0.72991  1.0000
  C   C1194     1.0  0.88190  0.09163  0.72468  1.0000
  C   C1195     1.0  0.85291  0.12287  0.73135  1.0000
  C   C1196     1.0  0.89796  0.10602  0.72100  1.0000
  C   C1197     1.0  0.86906  0.13709  0.72760  1.0000
  C   C1198     1.0  0.89155  0.12869  0.72243  1.0000
  H   H1419     1.0  0.83265  0.09634  0.70084  1.0000
  H   H1420     1.0  0.81185  0.08263  0.72009  1.0000
  H   H1421     1.0  0.81501  0.11035  0.72208  1.0000
  H   H1422     1.0  0.85812  0.06060  0.71312  1.0000
  H   H1423     1.0  0.83588  0.05131  0.73365  1.0000
  H   H1424     1.0  0.86150  0.05335  0.74248  1.0000
  H   H1425     1.0  0.82220  0.10164  0.76124  1.0000
  H   H1426     1.0  0.81619  0.07423  0.76117  1.0000
  H   H1427     1.0  0.84183  0.07789  0.76957  1.0000
  H   H1428     1.0  0.88802  0.07429  0.72330  1.0000
  H   H1429     1.0  0.83569  0.13023  0.73531  1.0000
  H   H1430     1.0  0.91551  0.09958  0.71700  1.0000
  H   H1431     1.0  0.86407  0.15477  0.72866  1.0000
  H   H1432     1.0  0.90400  0.13982  0.71954  1.0000
  N   N81       1.0  0.92538  0.24145  0.61554  1.0000
  C   C1199     1.0  0.94013  0.24805  0.59441  1.0000
  C   C1200     1.0  0.91289  0.26193  0.62401  1.0000
  C   C1201     1.0  0.94001  0.22978  0.63222  1.0000
  C   C1202     1.0  0.90939  0.22767  0.61132  1.0000
  C   C1203     1.0  0.89515  0.23603  0.59486  1.0000
  C   C1204     1.0  0.90720  0.20598  0.62335  1.0000
  C   C1205     1.0  0.88028  0.22319  0.59018  1.0000
  C   C1206     1.0  0.89213  0.19335  0.61862  1.0000
  C   C1207     1.0  0.87887  0.20186  0.60194  1.0000
  H   H1433     1.0  0.95303  0.25756  0.59724  1.0000
  H   H1434     1.0  0.94892  0.23307  0.58688  1.0000
  H   H1435     1.0  0.93078  0.25906  0.58169  1.0000
  H   H1436     1.0  0.90290  0.27277  0.61169  1.0000
  H   H1437     1.0  0.92417  0.27227  0.62859  1.0000
  H   H1438     1.0  0.90089  0.25758  0.63924  1.0000
  H   H1439     1.0  0.94992  0.21412  0.62698  1.0000
  H   H1440     1.0  0.95220  0.24036  0.63461  1.0000
  H   H1441     1.0  0.93024  0.22582  0.64911  1.0000
  H   H1442     1.0  0.89505  0.25276  0.58579  1.0000
  H   H1443     1.0  0.91671  0.19847  0.63669  1.0000
  H   H1444     1.0  0.86923  0.23004  0.57787  1.0000
  H   H1445     1.0  0.89040  0.17701  0.62819  1.0000
  H   H1446     1.0  0.86679  0.19226  0.59868  1.0000
  H   H1447     1.0  0.78757  0.17190  0.81263  1.0000
  C   C1208     1.0  0.78361  0.22199  0.67210  1.0000
  C   C1209     1.0  0.79567  0.23843  0.67454  1.0000
  H   H1448     1.0  0.76840  0.30402  0.60130  1.0000
  C   C1210     1.0  0.75919  0.27149  0.77646  1.0000
  H   H1449     1.0  0.79248  0.33841  0.69085  1.0000
  C   C1211     1.0  0.75666  0.21644  0.97813  1.0000
  C   C1212     1.0  0.77799  0.28230  0.76915  1.0000
  C   C1213     1.0  0.74701  0.29836  0.64299  1.0000
  H   H1450     1.0  0.78308  0.47800  0.75986  1.0000
  S   S318      1.0  0.76699  0.24309  0.88917  1.0000
  H   H1451     1.0  0.80314  0.29782  0.63290  1.0000
  H   H1452     1.0  0.80889  0.23415  0.68486  1.0000
  N   N82       1.0  0.77034  0.28853  0.63555  1.0000
  Fe  Fe155     1.0  0.76355  0.09062  0.74456  1.0000
  C   C1214     1.0  0.79774  0.45188  0.80988  1.0000
  C   C1215     1.0  0.78853  0.23568  0.96505  1.0000
  H   H1453     1.0  0.84649  0.19875  0.81947  1.0000
  H   H1454     1.0  0.79391  0.37309  0.74563  1.0000
  C   C1216     1.0  0.77597  0.24241  0.75397  1.0000
  C   C1217     1.0  0.76798  0.03082  0.74871  1.0000
  H   H1455     1.0  0.75406  0.32728  0.72707  1.0000
  C   C1218     1.0  0.78525  0.30416  0.63847  1.0000
  C   C1219     1.0  0.79307  0.46596  0.77142  1.0000
  N   N83       1.0  0.82691  0.23140  0.81266  1.0000
  C   C1220     1.0  0.84814  0.21564  0.80982  1.0000
  C   C1221     1.0  0.81847  0.22934  0.83709  1.0000
  C   C1222     1.0  0.83004  0.25462  0.80272  1.0000
  C   C1223     1.0  0.81713  0.27342  0.81175  1.0000
  C   C1224     1.0  0.84510  0.25918  0.78271  1.0000
  C   C1225     1.0  0.82008  0.29525  0.80206  1.0000
  C   C1226     1.0  0.84798  0.28105  0.77327  1.0000
  C   C1227     1.0  0.83558  0.29906  0.78291  1.0000
  H   H1456     1.0  0.86184  0.22195  0.81549  1.0000
  C   C1228     1.0  0.75733  0.18625  0.83179  1.0000
  S   S319      1.0  0.76700  0.39642  0.81774  1.0000
  H   H1457     1.0  0.80087  0.23731  0.84068  1.0000
  H   H1458     1.0  0.82887  0.23691  0.84609  1.0000
  H   H1459     1.0  0.81819  0.21161  0.84496  1.0000
  Fe  Fe156     1.0  0.77987  0.21330  0.58653  1.0000
  H   H1460     1.0  0.85483  0.24605  0.77403  1.0000
  H   H1461     1.0  0.81048  0.30931  0.80962  1.0000
  H   H1462     1.0  0.85995  0.28409  0.75833  1.0000
  H   H1463     1.0  0.83800  0.31598  0.77547  1.0000
  C   C1229     1.0  0.96560  0.35631  0.69946  1.0000
  S   S320      1.0  0.77163  0.20082  0.84592  1.0000
  C   C1230     1.0  0.81053  0.22433  0.80125  1.0000
  H   H1464     1.0  0.80476  0.27169  0.82647  1.0000
  H   H1465     1.0  0.80555  0.24277  0.98978  1.0000
  S   S321      1.0  0.77031  0.19228  0.56417  1.0000
  H   H1466     1.0  0.80715  0.33777  0.86648  1.0000
  H   H1467     1.0  0.80846  0.24651  0.73513  1.0000
  H   H1468     1.0  0.81013  0.28184  0.74851  1.0000
  H   H1469     1.0  0.78152  0.32090  0.62837  1.0000
  H   H1470     1.0  0.81041  0.46987  0.76772  1.0000
  C   C1231     1.0  0.76280  0.24878  0.64665  1.0000
  C   C1232     1.0  0.77098  0.22636  0.96056  1.0000
  H   H1471     1.0  0.76223  0.27623  0.60721  1.0000
  H   H1472     1.0  0.79108  0.45276  0.82785  1.0000
  Fe  Fe157     1.0  0.74943  0.40311  0.78749  1.0000
  S   S322      1.0  0.76394  0.37164  0.71439  1.0000
  H   H1473     1.0  0.75815  0.21418  0.65605  1.0000
  C   C1233     1.0  0.74695  0.29388  0.96718  1.0000
  C   C1234     1.0  0.97861  0.32581  0.72619  1.0000
  S   S323      1.0  0.76740  0.41636  0.75420  1.0000
  H   H1474     1.0  0.74987  0.25190  0.63607  1.0000
  H   H1475     1.0  0.75283  0.06139  0.71164  1.0000
  H   H1476     1.0  0.77283  0.36681  0.99071  1.0000
  H   H1477     1.0  0.97025  0.36923  0.70780  1.0000
  H   H1478     1.0  0.78336  0.30692  0.65622  1.0000
  C   C1235     1.0  0.76149  0.45814  0.79877  1.0000
  H   H1479     1.0  0.81617  0.49300  0.79074  1.0000
  H   H1480     1.0  0.75536  0.20612  0.77748  1.0000
  H   H1481     1.0  0.79033  0.28093  0.60463  1.0000
  H   H1482     1.0  0.98839  0.30397  0.68938  1.0000
  H   H1483     1.0  0.75312  0.35458  0.81231  1.0000
  H   H1484     1.0  0.75645  0.29033  0.72481  1.0000
  H   H1485     1.0  0.76199  0.31584  0.83150  1.0000
  S   S324      1.0  0.75595  0.26332  0.83860  1.0000
  Fe  Fe158     1.0  0.74953  0.39433  0.74018  1.0000
  Fe  Fe159     1.0  0.75757  0.22452  0.54350  1.0000
  H   H1486     1.0  0.95923  0.31365  0.69673  1.0000
  C   C1236     1.0  0.97563  0.31919  0.68939  1.0000
  C   C1237     1.0  0.75211  0.03772  0.67950  1.0000
  C   C1238     1.0  0.78450  0.01207  0.66477  1.0000
  N   N84       1.0  0.98159  0.33529  0.70204  1.0000
  H   H1487     1.0  0.78104  0.04712  0.65534  1.0000
  H   H1488     1.0  0.75340  0.45729  0.81653  1.0000
  H   H1489     1.0  0.97460  0.32622  0.67158  1.0000
  C   C1239     1.0  0.75771  0.25102  0.76934  1.0000
  H   H1490     1.0  0.76158  0.14943  0.50905  1.0000
  C   C1240     1.0  0.78071  0.49021  0.79989  1.0000
  H   H1491     1.0  0.75889  0.16442  0.53209  1.0000
  C   C1241     1.0  0.75351  0.16513  0.51550  1.0000
  H   H1492     1.0  0.98924  0.30939  0.72934  1.0000
  H   H1493     1.0  0.76005  0.25736  0.70690  1.0000
  H   H1494     1.0  0.76103  0.39519  0.99281  1.0000
  C   C1242     1.0  0.75152  0.07863  0.66787  1.0000
  H   H1495     1.0  0.76064  0.17914  0.50405  1.0000
  H   H1496     1.0  0.75785  0.30642  0.96143  1.0000
  H   H1497     1.0  0.80057  0.00937  0.65430  1.0000
  H   H1498     1.0  0.74823  0.22930  0.81009  1.0000
  H   H1499     1.0  0.75364  0.07761  0.64965  1.0000
  S   S325      1.0  0.74702  0.21422  0.60911  1.0000
  H   H1500     1.0  0.74806  0.35552  0.89342  1.0000
  H   H1501     1.0  0.74728  0.28628  0.93384  1.0000
  Fe  Fe160     1.0  0.79947  0.61071  0.23694  1.0000
  S   S326      1.0  0.79777  0.58123  0.26449  1.0000
  S   S327      1.0  0.82739  0.62266  0.21114  1.0000
  C   C1243     1.0  0.99184  0.76400  0.26083  1.0000
  C   C1244     1.0  0.75579  0.80482  0.34388  1.0000
  Fe  Fe161     1.0  0.77939  0.60693  0.28597  1.0000
  S   S328      1.0  0.78730  0.60947  0.31995  1.0000
  Fe  Fe162     1.0  0.76380  0.58037  0.25548  1.0000
  S   S329      1.0  0.78401  0.63602  0.25920  1.0000
  S   S330      1.0  0.76716  0.60780  0.22609  1.0000
  Fe  Fe163     1.0  0.78227  0.73711  0.40814  1.0000
  S   S331      1.0  0.76158  0.75065  0.38027  1.0000
  S   S332      1.0  0.77222  0.75094  0.44138  1.0000
  Fe  Fe164     1.0  0.81854  0.71297  0.37707  1.0000
  S   S333      1.0  0.80135  0.72466  0.34711  1.0000
  S   S334      1.0  0.85188  0.69171  0.37077  1.0000
  Fe  Fe165     1.0  0.79381  0.75782  0.35907  1.0000
  H   H1502     1.0  0.86157  0.71468  0.05973  1.0000
  Fe  Fe166     1.0  0.77060  0.71648  0.37004  1.0000
  H   H1503     1.0  0.76447  0.78846  0.22172  1.0000
  S   S335      1.0  0.81393  0.74698  0.38727  1.0000
  S   S336      1.0  0.78830  0.70187  0.39975  1.0000
  Fe  Fe167     1.0  0.91911  0.67633  0.23958  1.0000
  S   S337      1.0  0.89201  0.70564  0.24192  1.0000
  S   S338      1.0  0.90891  0.64237  0.25169  1.0000
  Fe  Fe168     1.0  0.95635  0.70478  0.22296  1.0000
  S   S339      1.0  0.93191  0.73645  0.22363  1.0000
  Fe  Fe169     1.0  0.91632  0.71990  0.25656  1.0000
  S   S340      1.0  0.90376  0.74135  0.28354  1.0000
  Fe  Fe170     1.0  0.90954  0.71968  0.20877  1.0000
  S   S341      1.0  0.89067  0.74168  0.18262  1.0000
  S   S342      1.0  0.94226  0.68937  0.25740  1.0000
  S   S343      1.0  0.93515  0.68914  0.20496  1.0000
  H   H1504     1.0  0.83108  0.74592  0.45023  1.0000
  H   H1505     1.0  0.79437  0.62904  0.35708  1.0000
  Fe  Fe171     1.0  0.77886  0.74864  0.08056  1.0000
  S   S344      1.0  0.77518  0.71801  0.10605  1.0000
  S   S345      1.0  0.80029  0.74391  0.04689  1.0000
  C   C1245     1.0  0.85131  0.71344  0.45831  1.0000
  C   C1246     1.0  0.87884  0.70662  0.12204  1.0000
  C   C1247     1.0  0.85651  0.67657  0.12905  1.0000
  Fe  Fe172     1.0  0.78496  0.73671  0.13027  1.0000
  S   S346      1.0  0.80453  0.71515  0.15632  1.0000
  C   C1248     1.0  0.77729  0.75488  0.48412  1.0000
  C   C1249     1.0  0.75812  0.52455  0.24479  1.0000
  S   S347      1.0  0.79139  0.76646  0.10426  1.0000
  S   S348      1.0  0.79931  0.78684  0.33173  1.0000
  C   C1250     1.0  0.84119  0.73020  0.09782  1.0000
  H   H1506     1.0  0.82857  0.73039  0.11315  1.0000
  H   H1507     1.0  0.75688  0.64700  0.30203  1.0000
  H   H1508     1.0  0.84388  0.66788  0.12575  1.0000
  H   H1509     1.0  0.97222  0.73267  0.24888  1.0000
  H   H1510     1.0  0.75513  0.89396  0.31640  1.0000
  C   C1251     1.0  0.83931  0.73450  0.46283  1.0000
  C   C1252     1.0  0.76755  0.81500  0.17619  1.0000
  H   H1511     1.0  0.76354  0.62130  0.17670  1.0000
  C   C1253     1.0  0.76318  0.80866  0.15657  1.0000
  C   C1254     1.0  0.86903  0.70757  0.07526  1.0000
  H   H1512     1.0  0.90117  0.70548  0.14595  1.0000
  H   H1513     1.0  0.78152  0.80600  0.18413  1.0000
  H   H1514     1.0  0.77360  0.79468  0.14964  1.0000
  C   C1255     1.0  0.83418  0.69494  0.09135  1.0000
  C   C1256     1.0  0.86568  0.73495  0.17693  1.0000
  C   C1257     1.0  0.85734  0.71544  0.18767  1.0000
  C   C1258     1.0  0.83823  0.70982  0.18152  1.0000
  C   C1259     1.0  0.82729  0.72374  0.16480  1.0000
  C   C1260     1.0  0.83505  0.74373  0.15479  1.0000
  C   C1261     1.0  0.85429  0.74923  0.16076  1.0000
  H   H1515     1.0  0.86602  0.70431  0.20012  1.0000
  H   H1516     1.0  0.83226  0.69434  0.18931  1.0000
  H   H1517     1.0  0.82647  0.75482  0.14224  1.0000
  H   H1518     1.0  0.86054  0.76448  0.15260  1.0000
  H   H1519     1.0  0.95533  0.79270  0.25212  1.0000
  H   H1520     1.0  0.88389  0.72202  0.11282  1.0000
  H   H1521     1.0  0.76340  0.70061  0.17579  1.0000
  H   H1522     1.0  0.82611  0.70356  0.07654  1.0000
  H   H1523     1.0  0.79245  0.52924  0.24157  1.0000
  S   S349      1.0  0.75940  0.84046  0.21024  1.0000
  Fe  Fe173     1.0  0.75152  0.63141  0.25036  1.0000
  C   C1262     1.0  0.86222  0.69665  0.11552  1.0000
  H   H1524     1.0  0.88181  0.71809  0.07610  1.0000
  C   C1263     1.0  0.86710  0.70524  0.34690  1.0000
  C   C1264     1.0  0.86257  0.72845  0.34140  1.0000
  C   C1265     1.0  0.87432  0.73941  0.32223  1.0000
  C   C1266     1.0  0.89005  0.72715  0.30793  1.0000
  C   C1267     1.0  0.89442  0.70386  0.31314  1.0000
  C   C1268     1.0  0.88323  0.69294  0.33288  1.0000
  H   H1525     1.0  0.85019  0.73811  0.35206  1.0000
  H   H1526     1.0  0.87096  0.75743  0.31840  1.0000
  H   H1527     1.0  0.90664  0.69430  0.30218  1.0000
  H   H1528     1.0  0.88682  0.67497  0.33708  1.0000
  C   C1269     1.0  0.77662  0.63556  0.32870  1.0000
  C   C1270     1.0  0.76194  0.65107  0.31671  1.0000
  H   H1529     1.0  0.76875  0.65557  0.20454  1.0000
  H   H1530     1.0  0.94996  0.73240  0.27187  1.0000
  C   C1271     1.0  0.77469  0.66186  0.35481  1.0000
  C   C1272     1.0  0.78301  0.64101  0.34775  1.0000
  H   H1531     1.0  0.75688  0.79480  0.36002  1.0000
  H   H1532     1.0  0.77277  0.80738  0.25088  1.0000
  C   C1273     1.0  0.76567  0.75097  0.02152  1.0000
  H   H1533     1.0  0.82049  0.73592  0.00236  1.0000
  C   C1274     1.0  0.84949  0.62861  0.22293  1.0000
  C   C1275     1.0  0.85631  0.61525  0.24215  1.0000
  C   C1276     1.0  0.87485  0.61933  0.25058  1.0000
  C   C1277     1.0  0.88618  0.63724  0.24032  1.0000
  C   C1278     1.0  0.87891  0.65109  0.22153  1.0000
  C   C1279     1.0  0.86078  0.64658  0.21269  1.0000
  H   H1534     1.0  0.84770  0.60134  0.25012  1.0000
  H   H1535     1.0  0.88039  0.60861  0.26514  1.0000
  H   H1536     1.0  0.88750  0.66501  0.21359  1.0000
  H   H1537     1.0  0.85537  0.65712  0.19802  1.0000
  H   H1538     1.0  0.89078  0.67040  0.16851  1.0000
  C   C1280     1.0  0.88902  0.69717  0.14089  1.0000
  C   C1281     1.0  0.86689  0.66721  0.14781  1.0000
  C   C1282     1.0  0.78861  0.74515  0.02201  1.0000
  H   H1539     1.0  0.77952  0.66586  0.36965  1.0000
  N   N85       1.0  0.96837  0.76004  0.26776  1.0000
  H   H1540     1.0  0.76602  0.95523  0.26556  1.0000
  C   C1283     1.0  0.80272  0.74046  0.00217  1.0000
  N   N86       1.0  0.75858  0.66742  0.17213  1.0000
  C   C1284     1.0  0.78567  0.71728  0.47509  1.0000
  H   H1541     1.0  0.75459  0.75459  0.03661  1.0000
  N   N87       1.0  0.83992  0.66435  0.30086  1.0000
  C   C1285     1.0  0.83549  0.66969  0.32412  1.0000
  C   C1286     1.0  0.83941  0.64012  0.30214  1.0000
  C   C1287     1.0  0.86277  0.66911  0.29123  1.0000
  C   C1288     1.0  0.82359  0.67707  0.28645  1.0000
  C   C1289     1.0  0.80411  0.69110  0.29481  1.0000
  C   C1290     1.0  0.82648  0.67493  0.26337  1.0000
  C   C1291     1.0  0.78876  0.70237  0.28079  1.0000
  C   C1292     1.0  0.81107  0.68629  0.24949  1.0000
  C   C1293     1.0  0.79221  0.69997  0.25819  1.0000
  H   H1542     1.0  0.81931  0.66495  0.33315  1.0000
  H   H1543     1.0  0.84841  0.66039  0.33433  1.0000
  H   H1544     1.0  0.83546  0.68776  0.32440  1.0000
  H   H1545     1.0  0.85127  0.62977  0.31297  1.0000
  H   H1546     1.0  0.84381  0.63447  0.28546  1.0000
  H   H1547     1.0  0.82245  0.63591  0.30906  1.0000
  H   H1548     1.0  0.86380  0.68722  0.28954  1.0000
  H   H1549     1.0  0.87545  0.65989  0.30177  1.0000
  H   H1550     1.0  0.86836  0.66389  0.27448  1.0000
  H   H1551     1.0  0.80001  0.69319  0.31226  1.0000
  H   H1552     1.0  0.84037  0.66387  0.25598  1.0000
  C   C1294     1.0  0.86003  0.69897  0.47654  1.0000
  H   H1553     1.0  0.81348  0.68385  0.23205  1.0000
  H   H1554     1.0  0.82058  0.69411  0.10591  1.0000
  N   N88       1.0  0.84029  0.75925  0.25784  1.0000
  C   C1295     1.0  0.84096  0.73576  0.26897  1.0000
  C   C1296     1.0  0.85921  0.76062  0.23920  1.0000
  C   C1297     1.0  0.84380  0.77277  0.27453  1.0000
  C   C1298     1.0  0.81893  0.76682  0.24887  1.0000
  C   C1299     1.0  0.81347  0.75611  0.23215  1.0000
  C   C1300     1.0  0.80330  0.78514  0.25587  1.0000
  C   C1301     1.0  0.79391  0.76368  0.22264  1.0000
  C   C1302     1.0  0.78392  0.79267  0.24611  1.0000
  C   C1303     1.0  0.77923  0.78199  0.22957  1.0000
  H   H1555     1.0  0.84037  0.72412  0.25712  1.0000
  H   H1556     1.0  0.85657  0.72980  0.27650  1.0000
  H   H1557     1.0  0.82662  0.73403  0.28269  1.0000
  H   H1558     1.0  0.87567  0.75626  0.24538  1.0000
  H   H1559     1.0  0.85851  0.77777  0.22954  1.0000
  H   H1560     1.0  0.85942  0.74903  0.22704  1.0000
  H   H1561     1.0  0.84394  0.79064  0.26719  1.0000
  H   H1562     1.0  0.83081  0.77166  0.28968  1.0000
  H   H1563     1.0  0.86014  0.76691  0.28062  1.0000
  H   H1564     1.0  0.82460  0.74215  0.22587  1.0000
  H   H1565     1.0  0.80588  0.79430  0.26851  1.0000
  H   H1566     1.0  0.79054  0.75573  0.20931  1.0000
  H   H1567     1.0  0.78861  0.67008  0.18501  1.0000
  H   H1568     1.0  0.75195  0.84214  0.28642  1.0000
  H   H1569     1.0  0.78651  0.70565  0.46349  1.0000
  C   C1304     1.0  0.77460  0.80498  0.32743  1.0000
  H   H1570     1.0  0.78000  0.70825  0.24750  1.0000
  H   H1571     1.0  0.86891  0.68244  0.47495  1.0000
  H   H1572     1.0  0.77378  0.71252  0.28770  1.0000
  C   C1305     1.0  0.78118  0.51795  0.24028  1.0000
  H   H1573     1.0  0.94121  0.76184  0.29533  1.0000
  C   C1306     1.0  0.96714  0.73650  0.26630  1.0000
  H   H1574     1.0  0.78237  0.67940  0.14458  1.0000
  H   H1575     1.0  0.81861  0.71938  0.43267  1.0000
  H   H1576     1.0  0.78628  0.64255  0.18223  1.0000
  C   C1307     1.0  0.83075  0.70370  0.43224  1.0000
  N   N89       1.0  0.85315  0.70678  0.43588  1.0000
  H   H1577     1.0  0.82374  0.69082  0.44540  1.0000
  H   H1578     1.0  0.95727  0.77097  0.23533  1.0000
  C   C1308     1.0  0.75956  0.67713  0.34311  1.0000
  H   H1579     1.0  0.83135  0.69820  0.41576  1.0000
  C   C1309     1.0  0.77917  0.74010  0.46849  1.0000
  H   H1580     1.0  0.77230  0.77257  0.47914  1.0000
  H   H1581     1.0  0.96039  0.78129  0.29347  1.0000
  C   C1310     1.0  0.76894  0.66865  0.14839  1.0000
  H   H1582     1.0  0.78797  0.81962  0.29436  1.0000
  H   H1583     1.0  0.77646  0.65184  0.14409  1.0000
  H   H1584     1.0  0.93572  0.77298  0.25839  1.0000
  C   C1311     1.0  0.75697  0.75209  0.00146  1.0000
  C   C1312     1.0  0.77335  0.81908  0.30697  1.0000
  C   C1313     1.0  0.77619  0.65843  0.18658  1.0000
  C   C1314     1.0  0.95364  0.77485  0.25275  1.0000
  H   H1585     1.0  0.83253  0.73826  0.08325  1.0000
  H   H1586     1.0  0.84110  0.67768  0.08797  1.0000
  H   H1587     1.0  0.82713  0.75687  0.48719  1.0000
  C   C1315     1.0  0.88310  0.67747  0.15371  1.0000
  S   S350      1.0  0.74979  0.75105  0.14197  1.0000
  H   H1588     1.0  0.86207  0.65205  0.15809  1.0000
  H   H1589     1.0  0.96784  0.75182  0.30359  1.0000
  C   C1316     1.0  0.86154  0.72438  0.41815  1.0000
  C   C1317     1.0  0.86842  0.68557  0.43297  1.0000
  H   H1590     1.0  0.85333  0.74119  0.09912  1.0000
  N   N90       1.0  0.85176  0.70699  0.09541  1.0000
  H   H1591     1.0  0.87776  0.72816  0.42111  1.0000
  H   H1592     1.0  0.86405  0.71928  0.40117  1.0000
  H   H1593     1.0  0.84972  0.74025  0.41707  1.0000
  H   H1594     1.0  0.88550  0.68655  0.43612  1.0000
  H   H1595     1.0  0.87008  0.68161  0.41559  1.0000
  C   C1318     1.0  0.83671  0.74087  0.48405  1.0000
  H   H1596     1.0  0.87788  0.69047  0.07321  1.0000
  H   H1597     1.0  0.97826  0.72487  0.27707  1.0000
  H   H1598     1.0  0.86204  0.67102  0.44416  1.0000
  C   C1319     1.0  0.95920  0.76401  0.29106  1.0000
  Fe  Fe174     1.0  0.75507  0.77913  0.11406  1.0000
  S   S351      1.0  0.99284  0.70781  0.20900  1.0000
  C   C1320     1.0  0.75405  0.83305  0.18535  1.0000
  H   H1599     1.0  0.77251  0.50266  0.29017  1.0000
  C   C1321     1.0  0.75338  0.67172  0.32396  1.0000
  H   H1600     1.0  0.75412  0.76891  0.28241  1.0000
  H   H1601     1.0  0.99318  0.76019  0.22574  1.0000
  C   C1322     1.0  0.75299  0.83198  0.30255  1.0000
  C   C1323     1.0  0.78966  0.49654  0.23448  1.0000
  H   H1602     1.0  0.75629  0.67579  0.13702  1.0000
  C   C1324     1.0  0.74979  0.69050  0.17682  1.0000
  H   H1603     1.0  0.76221  0.95589  0.34292  1.0000
  H   H1604     1.0  0.75412  0.91924  0.33914  1.0000
  S   S352      1.0  0.74650  0.55066  0.25378  1.0000
  C   C1325     1.0  0.75706  0.49565  0.29538  1.0000
  C   C1326     1.0  0.74896  0.96186  0.26322  1.0000
  C   C1327     1.0  0.74773  0.95469  0.33553  1.0000
  S   S353      1.0  0.74779  0.70276  0.35240  1.0000
  H   H1605     1.0  0.74827  0.96191  0.20488  1.0000
  C   C1328     1.0  0.74641  0.62933  0.17833  1.0000
  Fe  Fe175     1.0  0.76640  0.76240  0.87274  1.0000
  S   S354      1.0  0.79148  0.76654  0.89387  1.0000
  H   H1606     1.0  0.76434  0.80414  0.64764  1.0000
  Fe  Fe176     1.0  0.76921  0.71212  0.88885  1.0000
  S   S355      1.0  0.79476  0.71164  0.91111  1.0000
  C   C1329     1.0  0.75821  0.84482  0.80751  1.0000
  Fe  Fe177     1.0  0.77400  0.74322  0.92138  1.0000
  S   S356      1.0  0.74746  0.78748  0.84855  1.0000
  Fe  Fe178     1.0  0.81011  0.73476  0.88201  1.0000
  S   S357      1.0  0.84614  0.72952  0.86641  1.0000
  H   H1607     1.0  0.75095  0.60625  0.66447  1.0000
  S   S358      1.0  0.78625  0.73239  0.85904  1.0000
  H   H1608     1.0  0.76262  0.80131  0.98560  1.0000
  H   H1609     1.0  0.80392  0.82549  0.59862  1.0000
  C   C1330     1.0  0.76939  0.64896  0.68885  1.0000
  S   S359      1.0  0.78876  0.87652  0.73459  1.0000
  S   S360      1.0  0.96885  0.75277  0.72733  1.0000
  Fe  Fe179     1.0  0.79660  0.91073  0.72005  1.0000
  S   S361      1.0  0.82598  0.91820  0.69420  1.0000
  S   S362      1.0  0.78921  0.92390  0.75282  1.0000
  Fe  Fe180     1.0  0.88891  0.79014  0.75233  1.0000
  S   S363      1.0  0.91965  0.80467  0.73492  1.0000
  S   S364      1.0  0.86618  0.80216  0.78210  1.0000
  Fe  Fe181     1.0  0.88785  0.76291  0.71582  1.0000
  S   S365      1.0  0.91857  0.77459  0.69514  1.0000
  S   S366      1.0  0.86497  0.74143  0.70743  1.0000
  Fe  Fe182     1.0  0.93280  0.76983  0.72742  1.0000
  Fe  Fe183     1.0  0.90357  0.80840  0.70408  1.0000
  S   S367      1.0  0.90474  0.83901  0.67826  1.0000
  S   S368      1.0  0.90304  0.75481  0.74765  1.0000
  S   S369      1.0  0.87177  0.79710  0.72195  1.0000
  Fe  Fe184     1.0  0.80544  0.75445  0.60303  1.0000
  S   S370      1.0  0.80036  0.71912  0.60235  1.0000
  S   S371      1.0  0.83427  0.76837  0.61148  1.0000
  Fe  Fe185     1.0  0.76089  0.77430  0.58793  1.0000
  H   H1610     1.0  0.78173  0.86304  0.60483  1.0000
  C   C1331     1.0  0.92770  0.77280  0.63485  1.0000
  Fe  Fe186     1.0  0.76530  0.73003  0.61842  1.0000
  C   C1332     1.0  0.76804  0.85349  0.61343  1.0000
  Fe  Fe187     1.0  0.78714  0.73300  0.56962  1.0000
  S   S372      1.0  0.79459  0.71349  0.54007  1.0000
  S   S373      1.0  0.77144  0.76413  0.62167  1.0000
  S   S374      1.0  0.79531  0.76732  0.56902  1.0000
  C   C1333     1.0  0.78849  0.72418  0.51266  1.0000
  H   H1611     1.0  0.77582  0.55212  0.81094  1.0000
  C   C1334     1.0  0.78576  0.66500  0.85617  1.0000
  H   H1612     1.0  0.81882  0.81056  0.73606  1.0000
  C   C1335     1.0  0.79976  0.50128  0.79660  1.0000
  Fe  Fe188     1.0  0.77794  0.89066  0.76678  1.0000
  C   C1336     1.0  0.78219  0.84959  0.65825  1.0000
  H   H1613     1.0  0.78093  0.75857  0.51780  1.0000
  C   C1337     1.0  0.74797  0.99231  0.74921  1.0000
  H   H1614     1.0  0.79693  0.64627  0.66196  1.0000
  S   S375      1.0  0.79022  0.62583  0.80818  1.0000
  C   C1338     1.0  0.79797  0.52334  0.80056  1.0000
  C   C1339     1.0  0.78156  0.65627  0.66813  1.0000
  C   C1340     1.0  0.77389  0.67662  0.65544  1.0000
  H   H1615     1.0  0.91458  0.76670  0.62887  1.0000
  S   S376      1.0  0.76905  0.59390  0.76650  1.0000
  C   C1341     1.0  0.77727  0.53492  0.80812  1.0000
  H   H1616     1.0  0.78332  0.68227  0.63948  1.0000
  H   H1617     1.0  0.75393  0.54995  0.75434  1.0000
  C   C1342     1.0  0.75759  0.64146  0.84084  1.0000
  C   C1343     1.0  0.85642  0.74903  0.68078  1.0000
  C   C1344     1.0  0.86410  0.76696  0.66584  1.0000
  C   C1345     1.0  0.85727  0.77262  0.64459  1.0000
  C   C1346     1.0  0.84252  0.76058  0.63823  1.0000
  C   C1347     1.0  0.83469  0.74276  0.65322  1.0000
  C   C1348     1.0  0.84164  0.73700  0.67444  1.0000
  H   H1618     1.0  0.87553  0.77630  0.67054  1.0000
  H   H1619     1.0  0.86349  0.78632  0.63300  1.0000
  H   H1620     1.0  0.82348  0.73327  0.64836  1.0000
  H   H1621     1.0  0.83575  0.72302  0.68583  1.0000
  S   S377      1.0  0.77848  0.62339  0.70460  1.0000
  C   C1349     1.0  0.84697  0.89546  0.68966  1.0000
  C   C1350     1.0  0.86328  0.89749  0.67076  1.0000
  C   C1351     1.0  0.88074  0.87993  0.66722  1.0000
  C   C1352     1.0  0.88211  0.86032  0.68269  1.0000
  C   C1353     1.0  0.86581  0.85827  0.70165  1.0000
  C   C1354     1.0  0.84817  0.87578  0.70505  1.0000
  H   H1622     1.0  0.86248  0.91273  0.65887  1.0000
  H   H1623     1.0  0.89334  0.88166  0.65259  1.0000
  H   H1624     1.0  0.86713  0.84357  0.71403  1.0000
  H   H1625     1.0  0.83596  0.87437  0.71990  1.0000
  C   C1355     1.0  0.77101  0.74730  0.98166  1.0000
  C   C1356     1.0  0.79398  0.74143  0.98211  1.0000
  H   H1626     1.0  0.80500  0.73768  0.96702  1.0000
  H   H1627     1.0  0.78746  0.78180  0.94333  1.0000
  C   C1357     1.0  0.85223  0.75010  0.84351  1.0000
  C   C1358     1.0  0.87198  0.74660  0.82844  1.0000
  C   C1359     1.0  0.87632  0.76233  0.80928  1.0000
  C   C1360     1.0  0.86134  0.78203  0.80572  1.0000
  C   C1361     1.0  0.84200  0.78588  0.82119  1.0000
  C   C1362     1.0  0.83717  0.76971  0.83975  1.0000
  H   H1628     1.0  0.88387  0.73164  0.83154  1.0000
  H   H1629     1.0  0.89153  0.75949  0.79765  1.0000
  H   H1630     1.0  0.83067  0.80133  0.81880  1.0000
  H   H1631     1.0  0.82200  0.77261  0.85136  1.0000
  C   C1363     1.0  0.78848  0.83466  0.82958  1.0000
  S   S378      1.0  0.75172  0.74110  0.58599  1.0000
  H   H1632     1.0  0.78731  0.80454  0.85360  1.0000
  S   S379      1.0  0.75154  0.68383  0.88577  1.0000
  H   H1633     1.0  0.75949  0.77718  0.77737  1.0000
  H   H1634     1.0  0.77875  0.81551  0.59668  1.0000
  C   C1364     1.0  0.77821  0.84904  0.81270  1.0000
  H   H1635     1.0  0.76470  0.58254  0.69334  1.0000
  H   H1636     1.0  0.75788  0.55868  0.71276  1.0000
  C   C1365     1.0  0.99049  0.78848  0.72943  1.0000
  H   H1637     1.0  0.94637  0.74015  0.64193  1.0000
  H   H1638     1.0  0.78463  0.97701  0.67722  1.0000
  C   C1366     1.0  0.75359  0.83868  0.88772  1.0000
  C   C1367     1.0  0.81379  0.82519  0.64185  1.0000
  H   H1639     1.0  0.77711  0.82145  0.74293  1.0000
  C   C1368     1.0  0.82669  0.82964  0.65685  1.0000
  C   C1369     1.0  0.80350  0.74775  0.73449  1.0000
  H   H1640     1.0  0.79489  0.80285  0.69009  1.0000
  H   H1641     1.0  0.78199  0.83272  0.76646  1.0000
  H   H1642     1.0  0.80095  0.80755  0.79636  1.0000
  H   H1643     1.0  0.78119  0.78876  0.79938  1.0000
  C   C1370     1.0  0.79415  0.65169  0.83919  1.0000
  C   C1371     1.0  0.76804  0.82362  0.93013  1.0000
  H   H1644     1.0  0.82207  0.81378  0.63036  1.0000
  H   H1645     1.0  0.81576  0.73927  0.72255  1.0000
  H   H1646     1.0  0.84401  0.82192  0.65637  1.0000
  C   C1372     1.0  0.92641  0.79552  0.63562  1.0000
  H   H1647     1.0  0.78819  0.86542  0.68501  1.0000
  H   H1648     1.0  0.86312  0.69394  0.51171  1.0000
  H   H1649     1.0  0.79596  0.80083  0.61661  1.0000
  C   C1373     1.0  0.78203  0.74701  0.50606  1.0000
  H   H1650     1.0  0.77324  0.84671  0.96349  1.0000
  H   H1651     1.0  0.81053  0.77886  0.79365  1.0000
  H   H1652     1.0  0.75901  0.81618  0.71245  1.0000
  H   H1653     1.0  0.74757  0.81704  0.62635  1.0000
  H   H1654     1.0  0.91221  0.80709  0.63033  1.0000
  H   H1655     1.0  0.80396  0.83788  0.83367  1.0000
  C   C1374     1.0  0.76526  0.76222  0.68576  1.0000
  H   H1656     1.0  0.82776  0.84801  0.68342  1.0000
  H   H1657     1.0  0.83259  0.79287  0.75811  1.0000
  N   N91       1.0  0.77715  0.83176  0.62573  1.0000
  H   H1658     1.0  0.82383  0.77224  0.73406  1.0000
  C   C1375     1.0  0.74868  0.82609  0.81899  1.0000
  C   C1376     1.0  0.96674  0.80764  0.68165  1.0000
  C   C1377     1.0  0.76331  0.66612  0.86580  1.0000
  S   S380      1.0  0.79127  0.87154  0.79776  1.0000
  H   H1659     1.0  0.74985  0.79437  0.96451  1.0000
  C   C1378     1.0  0.96126  0.78862  0.65195  1.0000
  Fe  Fe189     1.0  0.76448  0.62133  0.78772  1.0000
  H   H1660     1.0  0.74714  0.83059  0.65005  1.0000
  H   H1661     1.0  0.94082  0.82109  0.64465  1.0000
  N   N92       1.0  0.83979  0.70727  0.79590  1.0000
  C   C1379     1.0  0.82835  0.69949  0.81863  1.0000
  C   C1380     1.0  0.86420  0.70177  0.79643  1.0000
  C   C1381     1.0  0.83375  0.73189  0.79138  1.0000
  C   C1382     1.0  0.83385  0.69708  0.77791  1.0000
  C   C1383     1.0  0.84392  0.70243  0.75538  1.0000
  C   C1384     1.0  0.81821  0.68174  0.78197  1.0000
  C   C1385     1.0  0.83891  0.69281  0.73810  1.0000
  C   C1386     1.0  0.81340  0.67213  0.76458  1.0000
  C   C1387     1.0  0.82369  0.67765  0.74269  1.0000
  H   H1662     1.0  0.80988  0.70361  0.81986  1.0000
  H   H1663     1.0  0.83289  0.68115  0.82346  1.0000
  H   H1664     1.0  0.83319  0.70747  0.83177  1.0000
  H   H1665     1.0  0.86965  0.68338  0.79807  1.0000
  H   H1666     1.0  0.86907  0.70769  0.81084  1.0000
  H   H1667     1.0  0.87421  0.70961  0.78113  1.0000
  H   H1668     1.0  0.84362  0.73940  0.77579  1.0000
  H   H1669     1.0  0.81575  0.73656  0.78968  1.0000
  H   H1670     1.0  0.83695  0.74007  0.80515  1.0000
  H   H1671     1.0  0.85598  0.71396  0.75094  1.0000
  H   H1672     1.0  0.80971  0.67648  0.79846  1.0000
  H   H1673     1.0  0.84716  0.69697  0.72109  1.0000
  H   H1674     1.0  0.80194  0.65990  0.76825  1.0000
  H   H1675     1.0  0.82008  0.66990  0.72934  1.0000
  N   N93       1.0  0.85881  0.87191  0.77577  1.0000
  C   C1388     1.0  0.84426  0.88798  0.78959  1.0000
  C   C1389     1.0  0.84461  0.85760  0.76940  1.0000
  C   C1390     1.0  0.87447  0.85766  0.79023  1.0000
  C   C1391     1.0  0.87093  0.88312  0.75501  1.0000
  C   C1392     1.0  0.89032  0.87165  0.74328  1.0000
  C   C1393     1.0  0.86261  0.90478  0.74464  1.0000
  C   C1394     1.0  0.90121  0.88167  0.72306  1.0000
  C   C1395     1.0  0.87360  0.91460  0.72437  1.0000
  C   C1396     1.0  0.89289  0.90312  0.71366  1.0000
  H   H1676     1.0  0.83664  0.87937  0.80592  1.0000
  H   H1677     1.0  0.85377  0.90053  0.79309  1.0000
  H   H1678     1.0  0.82964  0.89687  0.78157  1.0000
  H   H1679     1.0  0.83129  0.86778  0.76026  1.0000
  H   H1680     1.0  0.83625  0.84752  0.78441  1.0000
  H   H1681     1.0  0.85454  0.84575  0.75831  1.0000
  H   H1682     1.0  0.88716  0.86722  0.79337  1.0000
  H   H1683     1.0  0.86558  0.85074  0.80672  1.0000
  H   H1684     1.0  0.88329  0.84259  0.78298  1.0000
  H   H1685     1.0  0.89683  0.85454  0.74903  1.0000
  H   H1686     1.0  0.84719  0.91419  0.75142  1.0000
  H   H1687     1.0  0.91558  0.87233  0.71409  1.0000
  H   H1688     1.0  0.86647  0.93079  0.71636  1.0000
  H   H1689     1.0  0.90084  0.91046  0.69753  1.0000
  C   C1397     1.0  0.76781  0.75031  0.75822  1.0000
  C   C1398     1.0  0.77991  0.64050  0.83099  1.0000
  C   C1399     1.0  0.78954  0.81784  0.60871  1.0000
  H   H1690     1.0  0.79091  0.82449  0.97764  1.0000
  Fe  Fe190     1.0  0.75442  0.93441  0.74465  1.0000
  C   C1400     1.0  0.75379  0.68929  0.66329  1.0000
  C   C1401     1.0  0.78357  0.73939  0.74295  1.0000
  C   C1402     1.0  0.79041  0.70940  0.49703  1.0000
  C   C1403     1.0  0.79115  0.83543  0.64183  1.0000
  C   C1404     1.0  0.77911  0.81576  0.84085  1.0000
  H   H1691     1.0  0.81165  0.65014  0.83227  1.0000
  H   H1692     1.0  0.76210  0.81408  0.77043  1.0000
  H   H1693     1.0  0.82093  0.82089  0.76109  1.0000
  H   H1694     1.0  0.97411  0.79823  0.73208  1.0000
  C   C1405     1.0  0.78563  0.83151  0.96101  1.0000
  C   C1406     1.0  0.77132  0.84505  0.91800  1.0000
  H   H1695     1.0  0.79968  0.78794  0.96543  1.0000
  C   C1407     1.0  0.81754  0.84423  0.67221  1.0000
  H   H1696     1.0  0.78045  0.72438  0.73767  1.0000
  C   C1408     1.0  0.75000  0.51756  0.74743  1.0000
  S   S381      1.0  0.75900  0.75025  0.95672  1.0000
  N   N94       1.0  0.79663  0.79831  0.76524  1.0000
  C   C1409     1.0  0.77865  0.81733  0.76104  1.0000
  C   C1410     1.0  0.79728  0.79307  0.78966  1.0000
  C   C1411     1.0  0.81815  0.80591  0.75452  1.0000
  C   C1412     1.0  0.79227  0.77841  0.75699  1.0000
  C   C1413     1.0  0.80792  0.76692  0.74131  1.0000
  C   C1414     1.0  0.77206  0.76948  0.76523  1.0000
  H   H1697     1.0  0.97586  0.82964  0.64077  1.0000
  N   N95       1.0  0.77598  0.81497  0.95194  1.0000
  Fe  Fe191     1.0  0.75397  0.88993  0.72766  1.0000
  C   C1415     1.0  0.79530  0.85404  0.67303  1.0000
  C   C1416     1.0  0.75919  0.81145  0.83555  1.0000
  H   H1698     1.0  0.84234  0.73090  0.51826  1.0000
  C   C1417     1.0  0.94295  0.80337  0.64390  1.0000
  C   C1418     1.0  0.78316  0.77427  0.68281  1.0000
  H   H1699     1.0  0.79867  0.76895  0.67244  1.0000
  H   H1700     1.0  0.74822  0.84430  0.87146  1.0000
  H   H1701     1.0  0.79539  0.69171  0.50201  1.0000
  H   H1702     1.0  0.75226  0.74382  0.76477  1.0000
  H   H1703     1.0  0.76753  0.74793  0.67699  1.0000
  H   H1704     1.0  0.78151  0.97602  0.74052  1.0000
  H   H1705     1.0  0.79665  0.67407  0.86208  1.0000
  H   H1706     1.0  0.75008  0.85599  0.79468  1.0000
  C   C1419     1.0  0.75832  0.52446  0.81189  1.0000
  H   H1707     1.0  0.75644  0.86420  0.62458  1.0000
  C   C1420     1.0  0.78103  0.79346  0.69268  1.0000
  H   H1708     1.0  0.76498  0.85756  0.65973  1.0000
  H   H1709     1.0  0.98984  0.76665  0.68189  1.0000
  C   C1421     1.0  0.75725  0.81016  0.91998  1.0000
  H   H1710     1.0  0.80809  0.79997  0.93681  1.0000
  H   H1711     1.0  0.97866  0.81472  0.68924  1.0000
  H   H1712     1.0  0.75450  0.79351  0.92792  1.0000
  C   C1422     1.0  0.74957  0.66190  0.69681  1.0000
  C   C1423     1.0  0.74945  0.65384  0.85851  1.0000
  H   H1713     1.0  0.76507  0.51616  0.73536  1.0000
  C   C1424     1.0  0.75719  0.80799  0.96897  1.0000
  H   H1714     1.0  0.97529  0.75294  0.65663  1.0000
  Fe  Fe192     1.0  0.75938  0.62160  0.73937  1.0000
  H   H1715     1.0  0.95926  0.79504  0.69479  1.0000
  C   C1425     1.0  0.99250  0.76585  0.72740  1.0000
  S   S382      1.0  0.75806  0.64897  0.75956  1.0000
  C   C1426     1.0  0.79356  0.79540  0.94929  1.0000
  C   C1427     1.0  0.75823  0.82044  0.63802  1.0000
  N   N96       1.0  0.97792  0.79734  0.66166  1.0000
  C   C1428     1.0  0.96223  0.76553  0.65068  1.0000
  C   C1429     1.0  0.76093  0.80076  0.70548  1.0000
  C   C1430     1.0  0.84531  0.72628  0.50157  1.0000
  S   S383      1.0  0.76262  0.92348  0.71067  1.0000
  H   H1716     1.0  0.76691  0.86866  0.88803  1.0000
  C   C1431     1.0  0.94563  0.75787  0.64223  1.0000
  C   C1432     1.0  0.77118  0.99141  0.74431  1.0000
  H   H1717     1.0  0.95310  0.82149  0.67780  1.0000
  H   H1718     1.0  0.75831  0.85111  0.60044  1.0000
  C   C1433     1.0  0.75015  0.81763  0.89913  1.0000
  H   H1719     1.0  0.80084  0.83647  0.94987  1.0000
  C   C1434     1.0  0.75150  0.57634  0.70660  1.0000
  C   C1435     1.0  0.74870  0.71308  0.82143  1.0000
  H   H1720     1.0  0.77948  0.85645  0.92419  1.0000
  H   H1721     1.0  0.81266  0.53160  0.79764  1.0000
  C   C1436     1.0  0.76416  0.85235  0.89712  1.0000
  C   C1437     1.0  0.85693  0.70539  0.49783  1.0000
  C   C1438     1.0  0.75985  0.50249  0.80778  1.0000
  H   H1722     1.0  0.75015  0.58618  0.72054  1.0000
  H   H1723     1.0  0.74814  0.98281  0.70123  1.0000
  H   H1724     1.0  0.75328  0.72565  0.83019  1.0000
  S   S384      1.0  0.74725  0.74198  0.90090  1.0000
  H   H1725     1.0  0.75676  0.71552  0.80368  1.0000
  H   H1726     1.0  0.75640  0.69657  0.82940  1.0000
  C   C1439     1.0  0.98817  0.81461  0.64498  1.0000
  C   C1440     1.0  0.77554  0.99378  0.67758  1.0000
  H   H1727     1.0  0.74665  0.63237  0.83511  1.0000
  H   H1728     1.0  0.99556  0.80790  0.62914  1.0000
