data_image0
_chemical_formula_structural       FeSFeS2HS2FeSFeS2H2CSC4HNHFeS2FeHCHCS2CH6FeHCH2CHFeH3CHC2HCFeC3H3CHCHCHCH2C2HC6H4C6H4SC2N2HNC4H9C3HC2H3C3HSH2SFeHS2HCH3SHC2H3CH3CFeCHCHC4FeCH2SHCHSC2H2CHCHFeS2Fe2HSH2CSNFeC2H2FeSCFeS2FeSFeS3FeHFeHSC2FeSHS2HCHCHSH2C5HC7H4CHC3SC3SH3CHC3HSH2C6H4CNCFeHC4HCH3CHCH4CH2SC2H5CSNH3CHC2SHCHC2HC3HCHSH2NC6H16CH3CH4CHCH5NH2C4H3SH6CHCHSC2H2SFeNH2CFeCHCH3FeHCSH2CHC2HCHC2HCHC2HCH3FeS2C2H2CNCHFeS2FeS2FeSFeS3FeS2FeS2FeSFeS3FeHSFeS2FeHSH2C7H4C6H4C2HNH3C5H4C6H4C6H7C5HSC2HC5H3CHNC3H12CH2CH2CSH2CSCHCHNHNC9H14CNHCFeC2HC3NCH2CNC2H2C2H4CH2CH3C2H5C2H2C3H2SHCSHCH4CHCH2CH3CH2C2HC2H2SCH2CH2CSCFeH3CSH2CH2SC2HSHSC2SCFe2SHCHFeSFeHSC3S2CH3C6H2SH4FeC6H4CH3CNC9H9CH4C3HS2CH2CHCH4FeCH2SHFeH2CH2CHC2H2CH2C2H2C2SH2C6H3CH2SC2H2C4NHNHCH2CSH2NHFeH2CHC2H2CH2NC2H8SHFeCSFeSHFeCS2FeS2FeS2FeSFeHS2C6HSH2C6H4C6H4C4H5CH10CH6NHCH2NC9H11CH3CH4C3HSFeHCFeH2C4H2CH2SH4CHCH2SHC2HCHCHC2NC7HSH3C2HCHFeCSC2HSHC3HCNCSH2CNHCHC2SHCH2CNSHCFeH3C5HC2H4C2NC2H2C2SH2C2H2SHC2HSCH3CHSC2H2C5H2CH2FeH2C3HFeS2FeSCFeSFeS3HSHFeCSCH3CHFeSCHCSHFeSCSHNH4C2HC2HC7H4C6H4CH4C2SH2CH4CH3C4HC3SH6C2H4C3HCHNH3C2H2CH2CH3CH2NC5H5NHCH2C3HCNH3C4HCH2C2HCFeCSC2HCHC2H4CHFeS2FeS2FeCFeHS2FeS2FeCFeS2FeSFeCFeCSFeH2SCHC6H7SH2C6H4CH3CH2CH2SH3CHCHCH2C3H2SH3CHNH2CSHSCH4CHNC9H11C4H3C2HSHC2HCHNHC4H4CSCH3CFeSHFeS2FeCFeSHSFeS2FeS2FeSFeS3CHSCH4NC4H3CHCH5C8H6CHC7HCHCHCHC2H2C5HCSC2H3CHFeHCHC2SH2NCH4CH3C2HCH2CHSHC2H3C2H4NH2CH3CHC2HC2HC6HCSCHCNC3NH4CH3FeH2CH2SNHCH2CHC3HC2H6C2H3C3H2CSH4SCHFeSHSFeS2FeS2FeC2FeSFeS2FeCFeS4CHSC7HFeH3CS2H2C7H4CHC2HSC6H4CHC4SH3NC9H14CS2CH2CH2CH3FeHCHCH3SH2CNCHCHNC9H16C5SH2FeH2CHC2NCH3CHNH5C3H4SH5C3H2C4FeS2FeS2FeSFeS3HC3HCH3CHNC4H4C5H9CH6C3H2CH2C2H3CSH2C2HCH6C2SCHC6NCH2CNH2C6H3CNCHCHFeH4CHC2NH12C2H3C5HCHCH2CSC2H2CSH6CHC2H3CH2C2NFeH3C3H3C2HCHS2FeS2FeS2FeSFeS3HSFeS2FeSFeS3H4C5H3CHCHCHC2HCH2C6H4CHFeH2C6H4C3HC2H5NHCHC2H2CHCHC2NC10H10C2HC2FeC3H2CH2CH3C2H7CHNC7H15C3HCH3SHC3HC2HC2H2NH3CH3C2HSCSHCHCHFeS2FeS2FeHFeS3FeS2HSHFeSFeHSC2NCSHC4H2NHC2HSHCSHCFeNH2CHCH2CHC6HCH2SH3C2HC6H4C6H8CHFe2CHC2NFeHCHC2HFeHC2HSH2C3HC4H3NHCSH3CH4CH2SCHSCH5CHC2H2CHSH2C3H2CH2C2H3CSHC2SHC4HCHCNH5CHC2HNH2CSC2H4CH2FeS2FeS2FeSFeS3HC2HSCHCHCFeS2FeS2FeSFeS3FeS2FeSCFeSHS2HC2HC6H4CHC5SH2C6H4C6H5C3H5CHC2H4C2HFeH6NC9H11CHCFeCHCHFeH4C2NCHC2HCNH2CHC2HCH4CH4CH2C2H3CHSHCNC4H4C2NCH4C2H5CHC3HSCNH2C6HC3SHC2H2CHC2H5CHCH8CH6C3NC3H3CH3CSH6CH2CFeS2CHFeSHS2HFeCFeHSCHFeHS3H2C2HC11H6SCH3NHC7H8CSCH2SC2SH2FeH5C2FeHNCH2CHC3HCH2CHSC2H2C2FeCSHSCH3CFeC4HC2HC2SCH3CHSCH2CHSC2FeCSHFeS2FeCHC2FeS4CFeS2CH5C2H4C4HC2Fe2H2C4HC6H4C2HC2HCH5C2H2S2HCFeC2SC2SH3SH2SHCHC2FeH3SHCFe2H2CH2CHSC3SNCNHC3HCH8C3H8CHC2HCHCHNCH2CHNCH2C3HCNHCHSH2CHSHCFeHC4H4SHSH4CH2C3H4SCH3FeS2FeSCHC2S2FeS2FeH3FeSHSHCHC2HCFeSFeS2FeSFeHS2CH3C3SH2C6H4C3HC2HSHNC6H4SH2SCNFeCH2C4H4C4NH4NC2H2C2H3C3NHCFeH3NFeCH3C6HC2H3SCH6CHCH4SH2C2HCSHCHC3H3CHCH2CH3C3H3CHSH9CFeHSFeS2FeHFeCS2CH2FeS2HFeHFeS3FeC6H5CSHCNSC2HC6H4C3HCHSHCH6CH3SFeCHSFeSCHCH3CH2C3HCHC2HCH2C3H2FeC3H3C2HC2HNH2C2FeS2FeS2FeSFeS3FeSHFeSHFeSH2SH6C2HC2H2CNC3H3C6H5CH4CHC3H3NH2C4HNC6H8CH2C5SHC6SHC4HCHCHCHCH2CH2SHCH3C2HSH2CHNHSHCSC2HSFeH3NCHCH2NHC2H2CH2C2HCHC2FeHCH5CHNC3HSHCHCH4C3HCHFeS2FeS2Fe2S5FeSC2HCH2FeCSFeHNHFeSCSC2HSCH3C2H2C7H4C6H4CHCHCNHC3SH5C2H2N2CHC2HCHC2H2C4H2SH3CHC2HCH4SCH6C2FeH2CHCHCSCHCH2SC3FeCHSHC3HNC9H15C2H2FeH4CHCSH2SH2CH4C3H2CH5SH4C3HC2SHCHFeS2CSFeSFeS2FeHFeS4FeCSFeH2C4S2HCHC3H2SHCH4C2HCNH2C6H6NH3C2HC6H4NC9H17C3SNCHC2HCFeHNCHSH2CSC2HFeH2CH6SHS2NHCH5C3SCH2C7H2CHCH2CHCH2CHCH3C2H3SHCFeCH5FeC3H3C2H2CH2CFeSHFeS2FeSFeS3HCHS2FeS2FeSFeSCSC8H2C5SH4C6H4C6H5C3HFeH3CH3CH3CSH2C2H3CN2C5H10CNH2SH3C2HC2H5CH4SHCNCH2CH8CNCHC8HSHCHCNH4C2H2C3HCHCH2C3HC4HC2H2C3H2FeCH3C2H3CSHFeSFeS2FeSFeS3H4SCHSHSHFeS2FeS2FeNFeS3C6H5C5H3SHC6H4C6H4C4HCHCFeCH3SC2HSH2CSHSHC2H3CHCH3C2HCH3NH2SHCH2C2HCHCHFeHCHNH3CH2C2HC2HCH9C5HCNC9H16NC6SCHCH2CH3SCFeCH2NHCHCH3CSH2CH3CHC2SC2H5CHCHCFeH3CFeH2CFeS3C3HC2HS2HCH2C2SCHCHNCFeCSFeH3C2S3C4HCH3C2H2CHCH2SCH4C4H3C6H4C6H5SC2NC9H14CH3C3HCHSHCHC2FeH3CHFeH3SCHCHC4H4CHFeC5H2CH3NH2FeHCS3H4NCH2C2FeH3NHC2HCHC3H3SFeS2FeS2FeSFeS3FeSCHCFeHC2H2C2HC4H3C6H4CHCH2SHCH7CHC2HCH3SHSC2HC2H3CFeC2SCH2CH2C3NCHCNC2NC6H2C3H4CH9C2HCHCH2CHCNCH6SNCHC7FeH3CH9CHCH2CHCH3SC2H3CHC2H3C2HFeCH2C2SH3C
_chemical_formula_sum              "Fe256 S512 H2304 C1920 N128"
_cell_length_a       66.4864
_cell_length_b       66.6261
_cell_length_c       66.9487
_cell_angle_alpha    74.4354
_cell_angle_beta     74.7982
_cell_angle_gamma    75.0822

_space_group_name_H-M_alt    "P 1"
_space_group_IT_number       1

loop_
  _space_group_symop_operation_xyz
  'x, y, z'

loop_
  _atom_site_type_symbol
  _atom_site_label
  _atom_site_symmetry_multiplicity
  _atom_site_fract_x
  _atom_site_fract_y
  _atom_site_fract_z
  _atom_site_occupancy
  Fe  Fe1       1.0  0.32784  0.16051  0.15694  1.0000
  S   S1        1.0  0.30231  0.17894  0.13885  1.0000
  Fe  Fe2       1.0  0.21702  0.30674  0.18879  1.0000
  S   S2        1.0  0.23195  0.27356  0.18508  1.0000
  S   S3        1.0  0.43548  0.01129  0.04651  1.0000
  H   H1        1.0  0.44852  0.06809  0.10134  1.0000
  S   S4        1.0  0.21636  0.28663  0.13961  1.0000
  S   S5        1.0  0.45590  0.02616  0.07973  1.0000
  Fe  Fe3       1.0  0.20298  0.27431  0.17391  1.0000
  S   S6        1.0  0.18996  0.24446  0.18479  1.0000
  Fe  Fe4       1.0  0.24427  0.28859  0.15149  1.0000
  S   S7        1.0  0.27909  0.27682  0.13999  1.0000
  S   S8        1.0  0.18642  0.30622  0.18105  1.0000
  H   H2        1.0  0.25742  0.16849  0.19009  1.0000
  H   H3        1.0  0.32808  0.24869  0.18698  1.0000
  C   C1        1.0  0.33676  0.27130  0.11878  1.0000
  S   S9        1.0  0.36882  0.12956  0.19107  1.0000
  C   C2        1.0  0.28642  0.23574  0.20357  1.0000
  C   C3        1.0  0.47294  0.08634  0.11629  1.0000
  C   C4        1.0  0.37705  0.18803  0.20817  1.0000
  C   C5        1.0  0.36113  0.23595  0.14085  1.0000
  H   H4        1.0  0.18981  0.25565  0.09511  1.0000
  N   N1        1.0  0.45696  0.09806  0.08380  1.0000
  H   H5        1.0  0.17246  0.28056  0.08778  1.0000
  Fe  Fe5       1.0  0.43158  0.04054  0.05923  1.0000
  S   S10       1.0  0.45430  0.05533  0.03130  1.0000
  S   S11       1.0  0.39988  0.06170  0.06890  1.0000
  Fe  Fe6       1.0  0.46068  0.02483  0.02076  1.0000
  H   H6        1.0  0.24898  0.17334  0.23504  1.0000
  C   C6        1.0  0.34524  0.24189  0.18676  1.0000
  H   H7        1.0  0.34811  0.24114  0.20264  1.0000
  C   C7        1.0  0.43749  0.11071  0.09492  1.0000
  S   S12       1.0  0.38046  0.18578  0.18191  1.0000
  S   S13       1.0  0.39374  0.09952  0.14785  1.0000
  C   C8        1.0  0.29089  0.12068  0.23641  1.0000
  H   H8        1.0  0.25097  0.21465  0.17368  1.0000
  H   H9        1.0  0.37008  0.11423  0.11373  1.0000
  H   H10       1.0  0.37883  0.99457  0.01459  1.0000
  H   H11       1.0  0.23753  0.26950  0.23751  1.0000
  H   H12       1.0  0.19024  0.20424  0.21460  1.0000
  H   H13       1.0  0.17790  0.27049  0.21579  1.0000
  Fe  Fe7       1.0  0.36162  0.16440  0.17735  1.0000
  H   H14       1.0  0.28820  0.25176  0.19517  1.0000
  C   C9        1.0  0.18035  0.27021  0.10079  1.0000
  H   H15       1.0  0.28969  0.12174  0.20428  1.0000
  H   H16       1.0  0.29505  0.28963  0.18779  1.0000
  C   C10       1.0  0.35686  0.19040  0.22150  1.0000
  H   H17       1.0  0.46491  0.12492  0.05920  1.0000
  Fe  Fe8       1.0  0.47885  0.03886  0.05072  1.0000
  H   H18       1.0  0.34317  0.19005  0.21585  1.0000
  H   H19       1.0  0.43183  0.10248  0.11148  1.0000
  H   H20       1.0  0.18947  0.25643  0.13903  1.0000
  C   C11       1.0  0.28051  0.12292  0.22002  1.0000
  H   H21       1.0  0.18516  0.23477  0.13106  1.0000
  C   C12       1.0  0.15311  0.28496  0.12787  1.0000
  C   C13       1.0  0.25815  0.12672  0.22404  1.0000
  H   H22       1.0  0.33945  0.25164  0.09706  1.0000
  C   C14       1.0  0.26241  0.30225  0.20052  1.0000
  Fe  Fe9       1.0  0.46135  0.99803  0.06506  1.0000
  C   C15       1.0  0.24044  0.18624  0.22404  1.0000
  C   C16       1.0  0.17925  0.25403  0.22400  1.0000
  C   C17       1.0  0.24136  0.20919  0.18966  1.0000
  H   H23       1.0  0.22865  0.17898  0.22070  1.0000
  H   H24       1.0  0.44666  0.11208  0.05415  1.0000
  H   H25       1.0  0.14479  0.31198  0.16737  1.0000
  C   C18       1.0  0.35615  0.23503  0.12213  1.0000
  H   H26       1.0  0.47395  0.09949  0.05131  1.0000
  C   C19       1.0  0.12844  0.31940  0.12157  1.0000
  H   H27       1.0  0.16617  0.24522  0.15209  1.0000
  C   C20       1.0  0.18246  0.32343  0.07994  1.0000
  H   H28       1.0  0.01396  0.32163  0.07282  1.0000
  C   C21       1.0  0.18457  0.23799  0.21257  1.0000
  H   H29       1.0  0.42377  0.11374  0.08712  1.0000
  H   H30       1.0  0.36974  0.22149  0.14924  1.0000
  C   C22       1.0  0.14973  0.25408  0.11728  1.0000
  C   C23       1.0  0.24759  0.30797  0.21821  1.0000
  H   H31       1.0  0.22977  0.20118  0.18707  1.0000
  C   C24       1.0  0.39269  0.08815  0.12737  1.0000
  C   C25       1.0  0.40608  0.06848  0.12523  1.0000
  C   C26       1.0  0.40764  0.05989  0.10779  1.0000
  C   C27       1.0  0.39616  0.07111  0.09210  1.0000
  C   C28       1.0  0.38218  0.09048  0.09456  1.0000
  C   C29       1.0  0.38043  0.09901  0.11219  1.0000
  H   H32       1.0  0.41544  0.05994  0.13705  1.0000
  H   H33       1.0  0.41788  0.04465  0.10642  1.0000
  H   H34       1.0  0.37307  0.09914  0.08257  1.0000
  H   H35       1.0  0.14180  0.26341  0.10399  1.0000
  C   C30       1.0  0.29577  0.20607  0.13948  1.0000
  C   C31       1.0  0.30829  0.21485  0.14731  1.0000
  C   C32       1.0  0.30288  0.23654  0.14773  1.0000
  C   C33       1.0  0.28493  0.24949  0.14043  1.0000
  C   C34       1.0  0.27200  0.24059  0.13322  1.0000
  C   C35       1.0  0.27756  0.21893  0.13253  1.0000
  H   H36       1.0  0.32237  0.20506  0.15268  1.0000
  H   H37       1.0  0.31257  0.24325  0.15381  1.0000
  H   H38       1.0  0.25809  0.25053  0.12759  1.0000
  H   H39       1.0  0.26781  0.21214  0.12655  1.0000
  S   S14       1.0  0.36277  0.16036  0.14481  1.0000
  C   C36       1.0  0.28379  0.29411  0.20156  1.0000
  C   C37       1.0  0.27573  0.29725  0.23812  1.0000
  N   N2        1.0  0.16485  0.26505  0.12089  1.0000
  N   N3        1.0  0.25492  0.19478  0.20432  1.0000
  H   H40       1.0  0.23134  0.19902  0.23265  1.0000
  N   N4        1.0  0.35861  0.25491  0.16959  1.0000
  C   C38       1.0  0.38134  0.24575  0.17040  1.0000
  C   C39       1.0  0.35378  0.27656  0.17398  1.0000
  C   C40       1.0  0.35428  0.25475  0.14902  1.0000
  C   C41       1.0  0.34173  0.27243  0.13745  1.0000
  H   H41       1.0  0.43954  0.07845  0.07684  1.0000
  H   H42       1.0  0.44023  0.12630  0.09551  1.0000
  H   H43       1.0  0.38570  0.22848  0.17053  1.0000
  H   H44       1.0  0.38517  0.24699  0.18520  1.0000
  H   H45       1.0  0.39202  0.25391  0.15662  1.0000
  H   H46       1.0  0.33643  0.28359  0.17625  1.0000
  H   H47       1.0  0.35806  0.27630  0.18909  1.0000
  H   H48       1.0  0.36258  0.28747  0.16105  1.0000
  H   H49       1.0  0.33488  0.28707  0.14286  1.0000
  C   C42       1.0  0.27260  0.22616  0.19846  1.0000
  C   C43       1.0  0.29604  0.20399  0.22947  1.0000
  C   C44       1.0  0.34398  0.25267  0.11111  1.0000
  H   H50       1.0  0.27758  0.16504  0.20467  1.0000
  C   C45       1.0  0.46091  0.10920  0.06114  1.0000
  C   C46       1.0  0.18616  0.21670  0.22338  1.0000
  H   H51       1.0  0.25011  0.12854  0.21136  1.0000
  H   H52       1.0  0.34833  0.22525  0.18473  1.0000
  H   H53       1.0  0.16437  0.27889  0.15750  1.0000
  C   C47       1.0  0.39474  0.18869  0.21540  1.0000
  C   C48       1.0  0.17685  0.24977  0.13646  1.0000
  C   C49       1.0  0.26956  0.20532  0.20925  1.0000
  H   H54       1.0  0.23189  0.22336  0.19603  1.0000
  S   S15       1.0  0.32638  0.16751  0.18832  1.0000
  H   H55       1.0  0.28137  0.17807  0.23281  1.0000
  H   H56       1.0  0.32638  0.28463  0.11074  1.0000
  S   S16       1.0  0.33214  0.12498  0.16873  1.0000
  Fe  Fe10      1.0  0.36714  0.12534  0.15941  1.0000
  H   H57       1.0  0.26475  0.23532  0.18571  1.0000
  S   S17       1.0  0.31861  0.11691  0.23191  1.0000
  S   S18       1.0  0.31691  0.27927  0.22172  1.0000
  H   H58       1.0  0.13704  0.25116  0.13173  1.0000
  C   C50       1.0  0.00799  0.32416  0.04206  1.0000
  H   H59       1.0  0.24312  0.24261  0.23426  1.0000
  H   H60       1.0  0.15785  0.23844  0.11314  1.0000
  H   H61       1.0  0.30876  0.23224  0.22304  1.0000
  S   S19       1.0  0.48684  0.00928  0.03837  1.0000
  H   H62       1.0  0.46716  0.06705  0.07677  1.0000
  C   C51       1.0  0.29041  0.29123  0.22045  1.0000
  C   C52       1.0  0.45281  0.07702  0.08476  1.0000
  H   H63       1.0  0.36108  0.22027  0.11659  1.0000
  H   H64       1.0  0.19175  0.27877  0.10289  1.0000
  H   H65       1.0  0.25749  0.30391  0.18596  1.0000
  C   C53       1.0  0.15453  0.28959  0.14695  1.0000
  H   H66       1.0  0.39933  0.00747  0.01516  1.0000
  H   H67       1.0  0.41034  0.18694  0.20510  1.0000
  H   H68       1.0  0.27870  0.18278  0.17946  1.0000
  C   C54       1.0  0.25431  0.30576  0.23696  1.0000
  Fe  Fe11      1.0  0.33360  0.13207  0.19910  1.0000
  C   C55       1.0  0.28202  0.19437  0.22469  1.0000
  H   H69       1.0  0.45813  0.08236  0.12605  1.0000
  C   C56       1.0  0.26762  0.17698  0.19426  1.0000
  H   H70       1.0  0.19383  0.10758  0.23925  1.0000
  C   C57       1.0  0.47505  0.09484  0.09414  1.0000
  C   C58       1.0  0.13986  0.30059  0.11526  1.0000
  C   C59       1.0  0.14323  0.30861  0.15294  1.0000
  C   C60       1.0  0.39519  0.99722  0.00675  1.0000
  Fe  Fe12      1.0  0.20202  0.31883  0.14748  1.0000
  C   C61       1.0  0.29810  0.22471  0.21906  1.0000
  H   H71       1.0  0.42695  0.04135  0.99336  1.0000
  H   H72       1.0  0.13853  0.29864  0.10016  1.0000
  S   S20       1.0  0.23137  0.32206  0.15586  1.0000
  H   H73       1.0  0.19211  0.31098  0.07196  1.0000
  C   C62       1.0  0.02073  0.32334  0.05605  1.0000
  H   H74       1.0  0.20152  0.31624  0.10346  1.0000
  S   S21       1.0  0.22049  0.31586  0.21737  1.0000
  C   C63       1.0  0.39242  0.19118  0.23606  1.0000
  C   C64       1.0  0.13021  0.32346  0.14031  1.0000
  H   H75       1.0  0.48816  0.07538  0.14311  1.0000
  H   H76       1.0  0.39452  0.00675  0.99046  1.0000
  C   C65       1.0  0.49008  0.08215  0.12624  1.0000
  H   H77       1.0  0.99152  0.32291  0.04810  1.0000
  C   C66       1.0  0.00389  0.09068  0.43115  1.0000
  H   H78       1.0  0.26728  0.25748  0.25642  1.0000
  Fe  Fe13      1.0  0.30302  0.24845  0.30045  1.0000
  S   S22       1.0  0.33451  0.23842  0.31049  1.0000
  S   S23       1.0  0.27164  0.24324  0.32173  1.0000
  Fe  Fe14      1.0  0.34011  0.27039  0.29078  1.0000
  Fe  Fe15      1.0  0.34640  0.22761  0.27967  1.0000
  H   H79       1.0  0.36318  0.16490  0.31676  1.0000
  S   S24       1.0  0.31455  0.23485  0.27130  1.0000
  H   H80       1.0  0.21106  0.09265  0.27053  1.0000
  H   H81       1.0  0.19449  0.25657  0.27829  1.0000
  C   C67       1.0  0.19910  0.11128  0.38513  1.0000
  S   S25       1.0  0.38040  0.30919  0.47380  1.0000
  N   N5        1.0  0.23794  0.24593  0.26652  1.0000
  Fe  Fe16      1.0  0.06995  0.02396  0.37575  1.0000
  C   C68       1.0  0.36641  0.30398  0.35046  1.0000
  C   C69       1.0  0.35119  0.15609  0.31772  1.0000
  H   H82       1.0  0.06849  0.08326  0.46191  1.0000
  H   H83       1.0  0.23259  0.21971  0.29275  1.0000
  Fe  Fe17      1.0  0.20755  0.14659  0.27973  1.0000
  S   S26       1.0  0.17368  0.16095  0.29211  1.0000
  C   C70       1.0  0.26120  0.24273  0.26482  1.0000
  Fe  Fe18      1.0  0.22413  0.15628  0.31332  1.0000
  S   S27       1.0  0.19177  0.17172  0.32896  1.0000
  S   S28       1.0  0.25589  0.15390  0.32070  1.0000
  Fe  Fe19      1.0  0.18080  0.14438  0.32416  1.0000
  S   S29       1.0  0.15553  0.12976  0.34928  1.0000
  Fe  Fe20      1.0  0.18718  0.18686  0.29581  1.0000
  S   S30       1.0  0.17338  0.22126  0.28474  1.0000
  S   S31       1.0  0.21366  0.12741  0.31149  1.0000
  S   S32       1.0  0.22047  0.17399  0.28063  1.0000
  Fe  Fe21      1.0  0.37348  0.30967  0.40073  1.0000
  H   H84       1.0  0.35335  0.15113  0.25692  1.0000
  Fe  Fe22      1.0  0.11559  0.02928  0.36879  1.0000
  H   H85       1.0  0.19166  0.11005  0.28531  1.0000
  S   S33       1.0  0.14477  0.03907  0.34624  1.0000
  C   C71       1.0  0.09579  0.07020  0.47632  1.0000
  C   C72       1.0  0.01670  0.01837  0.39815  1.0000
  Fe  Fe23      1.0  0.08474  0.03690  0.40892  1.0000
  S   S34       1.0  0.07160  0.05758  0.43275  1.0000
  H   H86       1.0  0.21562  0.22502  0.27447  1.0000
  S   S35       1.0  0.08397  0.05148  0.37474  1.0000
  S   S36       1.0  0.99597  0.06518  0.48876  1.0000
  H   H87       1.0  0.30817  0.13917  0.35172  1.0000
  C   C73       1.0  0.21371  0.09310  0.39174  1.0000
  H   H88       1.0  0.30521  0.31828  0.31285  1.0000
  C   C74       1.0  0.12091  0.04112  0.46271  1.0000
  H   H89       1.0  0.26533  0.23735  0.28073  1.0000
  S   S37       1.0  0.30750  0.28146  0.28330  1.0000
  H   H90       1.0  0.23044  0.09179  0.38430  1.0000
  H   H91       1.0  0.43419  0.30681  0.34822  1.0000
  C   C75       1.0  0.02247  0.07304  0.40287  1.0000
  C   C76       1.0  0.08869  0.05683  0.44902  1.0000
  C   C77       1.0  0.10766  0.04171  0.44929  1.0000
  C   C78       1.0  0.12876  0.11759  0.30577  1.0000
  C   C79       1.0  0.14531  0.07903  0.29279  1.0000
  H   H92       1.0  0.11211  0.03037  0.43933  1.0000
  C   C80       1.0  0.45164  0.26510  0.34634  1.0000
  C   C81       1.0  0.15331  0.10419  0.34881  1.0000
  C   C82       1.0  0.16956  0.09117  0.33728  1.0000
  C   C83       1.0  0.16710  0.07091  0.33697  1.0000
  C   C84       1.0  0.14845  0.06364  0.34822  1.0000
  C   C85       1.0  0.13256  0.07642  0.36029  1.0000
  C   C86       1.0  0.13487  0.09672  0.36039  1.0000
  H   H93       1.0  0.18397  0.09671  0.32867  1.0000
  H   H94       1.0  0.17956  0.06085  0.32797  1.0000
  H   H95       1.0  0.11827  0.07091  0.36924  1.0000
  H   H96       1.0  0.12217  0.10676  0.36922  1.0000
  C   C87       1.0  0.00270  0.01953  0.36796  1.0000
  H   H97       1.0  0.31172  0.14554  0.25844  1.0000
  C   C88       1.0  0.20005  0.29029  0.30528  1.0000
  C   C89       1.0  0.12551  0.08216  0.30664  1.0000
  C   C90       1.0  0.39246  0.24602  0.33732  1.0000
  S   S38       1.0  0.10154  0.00296  0.36630  1.0000
  C   C91       1.0  0.25680  0.12634  0.26060  1.0000
  C   C92       1.0  0.27900  0.12194  0.25676  1.0000
  C   C93       1.0  0.11487  0.05524  0.47634  1.0000
  S   S39       1.0  0.06803  0.01125  0.41059  1.0000
  H   H98       1.0  0.24788  0.12786  0.27625  1.0000
  H   H99       1.0  0.28690  0.11988  0.26958  1.0000
  H   H100      1.0  0.19044  0.30121  0.31516  1.0000
  C   C94       1.0  0.34539  0.27668  0.36209  1.0000
  H   H101      1.0  0.20450  0.12403  0.37246  1.0000
  C   C95       1.0  0.23195  0.22487  0.27569  1.0000
  C   C96       1.0  0.36638  0.30477  0.32932  1.0000
  C   C97       1.0  0.35588  0.29149  0.32451  1.0000
  H   H102      1.0  0.31270  0.10926  0.29637  1.0000
  S   S40       1.0  0.35626  0.29287  0.29785  1.0000
  H   H103      1.0  0.36226  0.15360  0.28575  1.0000
  H   H104      1.0  0.20122  0.07044  0.25306  1.0000
  C   C98       1.0  0.26729  0.21806  0.32270  1.0000
  C   C99       1.0  0.24676  0.21368  0.32996  1.0000
  C   C100      1.0  0.24307  0.19400  0.32936  1.0000
  C   C101      1.0  0.25996  0.17865  0.32168  1.0000
  C   C102      1.0  0.28043  0.18306  0.31466  1.0000
  C   C103      1.0  0.28412  0.20264  0.31520  1.0000
  H   H105      1.0  0.23366  0.22563  0.33569  1.0000
  H   H106      1.0  0.22720  0.19072  0.33489  1.0000
  H   H107      1.0  0.29347  0.17151  0.30847  1.0000
  H   H108      1.0  0.30007  0.20571  0.30996  1.0000
  C   C104      1.0  0.35599  0.28991  0.36686  1.0000
  N   N6        1.0  0.33210  0.13309  0.28110  1.0000
  C   C105      1.0  0.42388  0.26928  0.31505  1.0000
  Fe  Fe24      1.0  0.32193  0.26682  0.25498  1.0000
  H   H109      1.0  0.12269  0.13230  0.31138  1.0000
  C   C106      1.0  0.33448  0.13861  0.30025  1.0000
  C   C107      1.0  0.31942  0.13485  0.31961  1.0000
  C   C108      1.0  0.35045  0.14946  0.29985  1.0000
  C   C109      1.0  0.32032  0.14154  0.33739  1.0000
  H   H110      1.0  0.15095  0.06350  0.28908  1.0000
  C   C110      1.0  0.31350  0.14804  0.27361  1.0000
  H   H111      1.0  0.42109  0.25692  0.38013  1.0000
  H   H112      1.0  0.38970  0.24352  0.30680  1.0000
  H   H113      1.0  0.34100  0.09961  0.29412  1.0000
  C   C111      1.0  0.08294  0.07126  0.46234  1.0000
  H   H114      1.0  0.17393  0.06954  0.25575  1.0000
  C   C112      1.0  0.01461  0.05241  0.43829  1.0000
  H   H115      1.0  0.30603  0.12788  0.32082  1.0000
  H   H116      1.0  0.99400  0.08984  0.44741  1.0000
  H   H117      1.0  0.01713  0.08706  0.39066  1.0000
  H   H118      1.0  0.42763  0.28140  0.37929  1.0000
  C   C113      1.0  0.20272  0.26490  0.28432  1.0000
  H   H119      1.0  0.01848  0.03781  0.43199  1.0000
  H   H120      1.0  0.02917  0.05418  0.44229  1.0000
  S   S41       1.0  0.35604  0.28853  0.39344  1.0000
  C   C114      1.0  0.22216  0.28730  0.30096  1.0000
  C   C115      1.0  0.01915  0.02160  0.37629  1.0000
  H   H121      1.0  0.34925  0.12912  0.24960  1.0000
  H   H122      1.0  0.17315  0.28137  0.30030  1.0000
  H   H123      1.0  0.01954  0.09303  0.43229  1.0000
  H   H124      1.0  0.33703  0.26731  0.33733  1.0000
  H   H125      1.0  0.46021  0.26707  0.32950  1.0000
  C   C116      1.0  0.33615  0.15218  0.33643  1.0000
  S   S42       1.0  0.36966  0.19749  0.27496  1.0000
  N   N7        1.0  0.17858  0.09263  0.27046  1.0000
  H   H126      1.0  0.39654  0.25188  0.36530  1.0000
  H   H127      1.0  0.30157  0.30565  0.35157  1.0000
  H   H128      1.0  0.03588  0.07715  0.48289  1.0000
  C   C117      1.0  0.15741  0.09533  0.28489  1.0000
  H   H129      1.0  0.03787  0.07481  0.40526  1.0000
  C   C118      1.0  0.14844  0.11471  0.29177  1.0000
  C   C119      1.0  0.22527  0.26132  0.27973  1.0000
  S   S43       1.0  0.39970  0.29491  0.41860  1.0000
  H   H130      1.0  0.00295  0.04947  0.45344  1.0000
  C   C120      1.0  0.17834  0.10953  0.25081  1.0000
  H   H131      1.0  0.31516  0.16482  0.27089  1.0000
  C   C121      1.0  0.41952  0.27385  0.37152  1.0000
  C   C122      1.0  0.40224  0.25456  0.34833  1.0000
  H   H132      1.0  0.99646  0.10519  0.42072  1.0000
  C   C123      1.0  0.35098  0.13451  0.26337  1.0000
  C   C124      1.0  0.17715  0.22757  0.25702  1.0000
  C   C125      1.0  0.39798  0.24944  0.31531  1.0000
  H   H133      1.0  0.21816  0.06250  0.41291  1.0000
  C   C126      1.0  0.23466  0.27315  0.28830  1.0000
  H   H134      1.0  0.37989  0.23737  0.34583  1.0000
  S   S44       1.0  0.04318  0.02702  0.35949  1.0000
  H   H135      1.0  0.04861  0.03134  0.47459  1.0000
  H   H136      1.0  0.19576  0.08193  0.29576  1.0000
  N   N8        1.0  0.14687  0.09740  0.42043  1.0000
  C   C127      1.0  0.14338  0.09586  0.44357  1.0000
  C   C128      1.0  0.13286  0.11731  0.41159  1.0000
  C   C129      1.0  0.13996  0.07933  0.41696  1.0000
  C   C130      1.0  0.16975  0.09644  0.41069  1.0000
  C   C131      1.0  0.18511  0.07822  0.41719  1.0000
  C   C132      1.0  0.17747  0.11309  0.39450  1.0000
  H   H137      1.0  0.45180  0.31702  0.42850  1.0000
  H   H138      1.0  0.22977  0.29581  0.30759  1.0000
  H   H139      1.0  0.14922  0.10862  0.44688  1.0000
  H   H140      1.0  0.12622  0.09725  0.45133  1.0000
  H   H141      1.0  0.15161  0.08036  0.45190  1.0000
  H   H142      1.0  0.13436  0.11925  0.39425  1.0000
  H   H143      1.0  0.13665  0.13158  0.41431  1.0000
  H   H144      1.0  0.11576  0.11746  0.41902  1.0000
  H   H145      1.0  0.14751  0.06371  0.42567  1.0000
  H   H146      1.0  0.12246  0.08043  0.42242  1.0000
  H   H147      1.0  0.14411  0.07883  0.39986  1.0000
  H   H148      1.0  0.18042  0.06500  0.42949  1.0000
  H   H149      1.0  0.16712  0.12760  0.38844  1.0000
  H   H150      1.0  0.43637  0.26906  0.48204  1.0000
  H   H151      1.0  0.33723  0.26580  0.37476  1.0000
  H   H152      1.0  0.37446  0.31421  0.35407  1.0000
  C   C133      1.0  0.19035  0.27914  0.29693  1.0000
  H   H153      1.0  0.40080  0.26288  0.48793  1.0000
  H   H154      1.0  0.36575  0.12447  0.26838  1.0000
  H   H155      1.0  0.29832  0.14626  0.28529  1.0000
  C   C134      1.0  0.43979  0.31913  0.46112  1.0000
  H   H156      1.0  0.17052  0.26139  0.25494  1.0000
  H   H157      1.0  0.09061  0.01014  0.48487  1.0000
  H   H158      1.0  0.11691  0.06925  0.31310  1.0000
  H   H159      1.0  0.33649  0.15786  0.35004  1.0000
  C   C135      1.0  0.34530  0.27748  0.34093  1.0000
  H   H160      1.0  0.15684  0.12766  0.28675  1.0000
  C   C136      1.0  0.19491  0.09437  0.28099  1.0000
  H   H161      1.0  0.10232  0.10338  0.32450  1.0000
  H   H162      1.0  0.41769  0.26379  0.28703  1.0000
  H   H163      1.0  0.00438  0.02226  0.35097  1.0000
  H   H164      1.0  0.18700  0.05836  0.27806  1.0000
  H   H165      1.0  0.02887  0.02051  0.40458  1.0000
  N   N9        1.0  0.42897  0.27595  0.34852  1.0000
  H   H166      1.0  0.33882  0.19602  0.25215  1.0000
  H   H167      1.0  0.02629  0.05856  0.39625  1.0000
  C   C137      1.0  0.32854  0.11098  0.28614  1.0000
  C   C138      1.0  0.20675  0.07664  0.40781  1.0000
  C   C139      1.0  0.11730  0.10134  0.31318  1.0000
  C   C140      1.0  0.41369  0.26099  0.30420  1.0000
  H   H168      1.0  0.43608  0.27795  0.30569  1.0000
  H   H169      1.0  0.40238  0.28166  0.37428  1.0000
  H   H170      1.0  0.46024  0.27155  0.35469  1.0000
  S   S45       1.0  0.35495  0.25852  0.26081  1.0000
  H   H171      1.0  0.25167  0.27164  0.28568  1.0000
  H   H172      1.0  0.43738  0.30204  0.32263  1.0000
  H   H173      1.0  0.41118  0.30741  0.33857  1.0000
  H   H174      1.0  0.32895  0.10560  0.27164  1.0000
  H   H175      1.0  0.27024  0.23035  0.25584  1.0000
  H   H176      1.0  0.13567  0.02950  0.46279  1.0000
  C   C141      1.0  0.99837  0.01246  0.41177  1.0000
  H   H177      1.0  0.45319  0.24771  0.35316  1.0000
  C   C142      1.0  0.44405  0.32280  0.47898  1.0000
  H   H178      1.0  0.28078  0.29522  0.25271  1.0000
  S   S46       1.0  0.11725  0.01639  0.40302  1.0000
  C   C143      1.0  0.41820  0.26666  0.33745  1.0000
  C   C144      1.0  0.42786  0.29899  0.33905  1.0000
  H   H179      1.0  0.17581  0.12569  0.25388  1.0000
  H   H180      1.0  0.37449  0.31566  0.31663  1.0000
  S   S47       1.0  0.45084  0.31166  0.38334  1.0000
  Fe  Fe25      1.0  0.38386  0.31890  0.43858  1.0000
  N   N10       1.0  0.00623  0.07136  0.42300  1.0000
  H   H181      1.0  0.99648  0.01036  0.42867  1.0000
  H   H182      1.0  0.99429  0.06580  0.38757  1.0000
  C   C145      1.0  0.24631  0.12871  0.24431  1.0000
  Fe  Fe26      1.0  0.10040  0.99203  0.40121  1.0000
  C   C146      1.0  0.37225  0.19404  0.24925  1.0000
  H   H183      1.0  0.07760  0.99841  0.47186  1.0000
  C   C147      1.0  0.45517  0.31988  0.44241  1.0000
  H   H184      1.0  0.24262  0.21232  0.26754  1.0000
  H   H185      1.0  0.42453  0.31566  0.46178  1.0000
  H   H186      1.0  0.16556  0.10952  0.24290  1.0000
  Fe  Fe27      1.0  0.41595  0.32071  0.39701  1.0000
  H   H187      1.0  0.18437  0.19499  0.25383  1.0000
  C   C148      1.0  0.18537  0.07179  0.26409  1.0000
  S   S48       1.0  0.21846  0.13526  0.24924  1.0000
  H   H188      1.0  0.24288  0.31008  0.25071  1.0000
  H   H189      1.0  0.09117  0.08126  0.48675  1.0000
  C   C149      1.0  0.30716  0.32032  0.34379  1.0000
  H   H190      1.0  0.40623  0.19132  0.24167  1.0000
  C   C150      1.0  0.23363  0.25355  0.24482  1.0000
  C   C151      1.0  0.18283  0.21147  0.24558  1.0000
  H   H191      1.0  0.30543  0.19532  0.24123  1.0000
  C   C152      1.0  0.17511  0.24886  0.24620  1.0000
  H   H192      1.0  0.21661  0.25511  0.24469  1.0000
  C   C153      1.0  0.35440  0.19389  0.24191  1.0000
  C   C154      1.0  0.07938  0.99932  0.48765  1.0000
  H   H193      1.0  0.31210  0.32438  0.37221  1.0000
  C   C155      1.0  0.47489  0.32428  0.44152  1.0000
  H   H194      1.0  0.06270  0.03950  0.48942  1.0000
  C   C156      1.0  0.36935  0.30264  0.63463  1.0000
  C   C157      1.0  0.02030  0.02401  0.60676  1.0000
  H   H195      1.0  0.34948  0.24030  0.54802  1.0000
  C   C158      1.0  0.00223  0.08644  0.53759  1.0000
  H   H196      1.0  0.27568  0.29276  0.72053  1.0000
  H   H197      1.0  0.11889  0.18009  0.72252  1.0000
  H   H198      1.0  0.42664  0.27297  0.54686  1.0000
  Fe  Fe28      1.0  0.14506  0.26176  0.71964  1.0000
  S   S49       1.0  0.18059  0.25336  0.71253  1.0000
  S   S50       1.0  0.12567  0.26880  0.69501  1.0000
  C   C159      1.0  0.17115  0.03523  0.73120  1.0000
  C   C160      1.0  0.31704  0.31784  0.62593  1.0000
  H   H199      1.0  0.05159  0.08864  0.50684  1.0000
  H   H200      1.0  0.15588  0.03614  0.72672  1.0000
  C   C161      1.0  0.32846  0.15447  0.73327  1.0000
  N   N11       1.0  0.01421  0.02937  0.58590  1.0000
  C   C162      1.0  0.18963  0.28850  0.65263  1.0000
  H   H201      1.0  0.00901  0.01522  0.61922  1.0000
  Fe  Fe29      1.0  0.27517  0.23329  0.64189  1.0000
  S   S51       1.0  0.28585  0.21814  0.67246  1.0000
  S   S52       1.0  0.24183  0.23317  0.64037  1.0000
  Fe  Fe30      1.0  0.31672  0.24842  0.62051  1.0000
  S   S53       1.0  0.33134  0.23359  0.64911  1.0000
  S   S54       1.0  0.33042  0.27047  0.59092  1.0000
  Fe  Fe31      1.0  0.31650  0.20603  0.65179  1.0000
  S   S55       1.0  0.32967  0.17136  0.66232  1.0000
  Fe  Fe32      1.0  0.29932  0.24695  0.66710  1.0000
  S   S56       1.0  0.29596  0.26414  0.69266  1.0000
  S   S57       1.0  0.30503  0.21936  0.62123  1.0000
  S   S58       1.0  0.28557  0.26365  0.63850  1.0000
  Fe  Fe33      1.0  0.15371  0.15782  0.66825  1.0000
  S   S59       1.0  0.16832  0.14478  0.63895  1.0000
  S   S60       1.0  0.12563  0.18501  0.66780  1.0000
  Fe  Fe34      1.0  0.18212  0.12446  0.69449  1.0000
  S   S61       1.0  0.19953  0.10838  0.66765  1.0000
  S   S62       1.0  0.18647  0.11449  0.72811  1.0000
  Fe  Fe35      1.0  0.19915  0.14147  0.64817  1.0000
  S   S63       1.0  0.22834  0.14885  0.62424  1.0000
  Fe  Fe36      1.0  0.16730  0.11273  0.66059  1.0000
  S   S64       1.0  0.16009  0.08420  0.65376  1.0000
  S   S65       1.0  0.18479  0.15729  0.67571  1.0000
  S   S66       1.0  0.14979  0.12605  0.68922  1.0000
  Fe  Fe37      1.0  0.06814  0.08095  0.54786  1.0000
  H   H202      1.0  0.15898  0.30452  0.63037  1.0000
  S   S67       1.0  0.03399  0.09727  0.54869  1.0000
  Fe  Fe38      1.0  0.10838  0.07937  0.56200  1.0000
  S   S68       1.0  0.12473  0.04795  0.55321  1.0000
  S   S69       1.0  0.12294  0.10165  0.57135  1.0000
  Fe  Fe39      1.0  0.11142  0.06184  0.52383  1.0000
  H   H203      1.0  0.12339  0.19943  0.73382  1.0000
  S   S70       1.0  0.09744  0.09404  0.53120  1.0000
  H   H204      1.0  0.18840  0.10791  0.61549  1.0000
  H   H205      1.0  0.23690  0.30066  0.65250  1.0000
  C   C163      1.0  0.22006  0.30036  0.65691  1.0000
  C   C164      1.0  0.14805  0.08915  0.63186  1.0000
  C   C165      1.0  0.14365  0.10970  0.61962  1.0000
  C   C166      1.0  0.13555  0.11326  0.60136  1.0000
  C   C167      1.0  0.13125  0.09641  0.59545  1.0000
  C   C168      1.0  0.13502  0.07586  0.60800  1.0000
  C   C169      1.0  0.14359  0.07223  0.62611  1.0000
  H   H206      1.0  0.14651  0.12291  0.62409  1.0000
  H   H207      1.0  0.13261  0.12918  0.59172  1.0000
  H   H208      1.0  0.13182  0.06277  0.60346  1.0000
  H   H209      1.0  0.14689  0.05627  0.63555  1.0000
  C   C170      1.0  0.23856  0.21020  0.63443  1.0000
  C   C171      1.0  0.21799  0.20678  0.63733  1.0000
  C   C172      1.0  0.21489  0.18819  0.63363  1.0000
  C   C173      1.0  0.23237  0.17292  0.62691  1.0000
  C   C174      1.0  0.25297  0.17650  0.62341  1.0000
  C   C175      1.0  0.25606  0.19513  0.62721  1.0000
  H   H210      1.0  0.20436  0.21832  0.64270  1.0000
  H   H211      1.0  0.19891  0.18577  0.63588  1.0000
  H   H212      1.0  0.26656  0.16467  0.61829  1.0000
  H   H213      1.0  0.27200  0.19764  0.62479  1.0000
  C   C176      1.0  0.25016  0.09194  0.71679  1.0000
  C   C177      1.0  0.22914  0.09984  0.71399  1.0000
  H   H214      1.0  0.32969  0.18726  0.72974  1.0000
  N   N12       1.0  0.32882  0.30848  0.64335  1.0000
  H   H215      1.0  0.26261  0.08747  0.70376  1.0000
  H   H216      1.0  0.22546  0.10137  0.69883  1.0000
  H   H217      1.0  0.04628  0.01298  0.53216  1.0000
  C   C178      1.0  0.32936  0.17524  0.72177  1.0000
  C   C179      1.0  0.32948  0.18060  0.69997  1.0000
  C   C180      1.0  0.32966  0.16494  0.68951  1.0000
  C   C181      1.0  0.32935  0.14405  0.70095  1.0000
  C   C182      1.0  0.32820  0.13893  0.72289  1.0000
  H   H218      1.0  0.33805  0.27938  0.53412  1.0000
  H   H219      1.0  0.32991  0.19673  0.69117  1.0000
  H   H220      1.0  0.32995  0.13182  0.69285  1.0000
  H   H221      1.0  0.34034  0.27680  0.66029  1.0000
  C   C183      1.0  0.12617  0.24535  0.68749  1.0000
  C   C184      1.0  0.14211  0.22723  0.69142  1.0000
  C   C185      1.0  0.14265  0.20886  0.68462  1.0000
  C   C186      1.0  0.12668  0.20822  0.67487  1.0000
  C   C187      1.0  0.11068  0.22627  0.67117  1.0000
  C   C188      1.0  0.11063  0.24490  0.67714  1.0000
  H   H222      1.0  0.15424  0.22746  0.69937  1.0000
  H   H223      1.0  0.15529  0.19521  0.68705  1.0000
  H   H224      1.0  0.09831  0.22587  0.66360  1.0000
  H   H225      1.0  0.09828  0.25883  0.67409  1.0000
  C   C189      1.0  0.22613  0.28723  0.72066  1.0000
  C   C190      1.0  0.23177  0.27308  0.70706  1.0000
  C   C191      1.0  0.25321  0.26644  0.69789  1.0000
  C   C192      1.0  0.26906  0.27338  0.70290  1.0000
  C   C193      1.0  0.26345  0.28739  0.71660  1.0000
  C   C194      1.0  0.24198  0.29455  0.72523  1.0000
  H   H226      1.0  0.21961  0.26761  0.70320  1.0000
  H   H227      1.0  0.25740  0.25580  0.68713  1.0000
  H   H228      1.0  0.34684  0.30826  0.57080  1.0000
  H   H229      1.0  0.16987  0.05014  0.69040  1.0000
  H   H230      1.0  0.11150  0.00888  0.54235  1.0000
  H   H231      1.0  0.16115  0.18518  0.72555  1.0000
  H   H232      1.0  0.38185  0.31697  0.56675  1.0000
  C   C195      1.0  0.03545  0.08602  0.51175  1.0000
  C   C196      1.0  0.17878  0.25560  0.65736  1.0000
  C   C197      1.0  0.38800  0.31068  0.62896  1.0000
  C   C198      1.0  0.36565  0.24373  0.54515  1.0000
  C   C199      1.0  0.01366  0.00958  0.58010  1.0000
  H   H233      1.0  0.16834  0.25756  0.67289  1.0000
  S   S71       1.0  0.07784  0.06859  0.57923  1.0000
  C   C200      1.0  0.18587  0.30842  0.67991  1.0000
  C   C201      1.0  0.39429  0.28706  0.58584  1.0000
  H   H234      1.0  0.28126  0.17534  0.73961  1.0000
  C   C202      1.0  0.35880  0.29682  0.57851  1.0000
  C   C203      1.0  0.35463  0.27694  0.59016  1.0000
  C   C204      1.0  0.37019  0.26221  0.60002  1.0000
  C   C205      1.0  0.39004  0.26726  0.59778  1.0000
  C   C206      1.0  0.20361  0.04878  0.72247  1.0000
  H   H235      1.0  0.32408  0.30852  0.67638  1.0000
  H   H236      1.0  0.36716  0.24675  0.60889  1.0000
  H   H237      1.0  0.40222  0.25571  0.60508  1.0000
  C   C207      1.0  0.19678  0.11305  0.57163  1.0000
  H   H238      1.0  0.17123  0.09200  0.53670  1.0000
  N   N13       1.0  0.20527  0.12215  0.58485  1.0000
  C   C208      1.0  0.19242  0.14368  0.58644  1.0000
  C   C209      1.0  0.20491  0.10921  0.60677  1.0000
  C   C210      1.0  0.22767  0.12398  0.57503  1.0000
  H   H239      1.0  0.17529  0.14309  0.59302  1.0000
  H   H240      1.0  0.19789  0.15082  0.59684  1.0000
  H   H241      1.0  0.19341  0.15507  0.57087  1.0000
  H   H242      1.0  0.21144  0.11643  0.61626  1.0000
  H   H243      1.0  0.22921  0.13510  0.55929  1.0000
  H   H244      1.0  0.23466  0.13023  0.58501  1.0000
  H   H245      1.0  0.23774  0.10823  0.57288  1.0000
  H   H246      1.0  0.18809  0.08499  0.59553  1.0000
  H   H247      1.0  0.38932  0.30957  0.51334  1.0000
  H   H248      1.0  0.07330  0.01618  0.52109  1.0000
  H   H249      1.0  0.16548  0.07568  0.73371  1.0000
  H   H250      1.0  0.35778  0.28607  0.54330  1.0000
  C   C211      1.0  0.18865  0.09400  0.57944  1.0000
  H   H251      1.0  0.04752  0.99629  0.57815  1.0000
  H   H252      1.0  0.34110  0.27914  0.63249  1.0000
  C   C212      1.0  0.40022  0.26689  0.53798  1.0000
  H   H253      1.0  0.15238  0.27983  0.63055  1.0000
  H   H254      1.0  0.17307  0.07233  0.57319  1.0000
  C   C213      1.0  0.37858  0.30187  0.57632  1.0000
  S   S72       1.0  0.08089  0.05025  0.53718  1.0000
  H   H255      1.0  0.02688  0.04394  0.55370  1.0000
  H   H256      1.0  0.44975  0.27418  0.51119  1.0000
  C   C214      1.0  0.17997  0.08641  0.56670  1.0000
  S   S73       1.0  0.41960  0.29260  0.58223  1.0000
  C   C215      1.0  0.19349  0.27262  0.62198  1.0000
  H   H257      1.0  0.17623  0.31491  0.69342  1.0000
  C   C216      1.0  0.33205  0.28503  0.64696  1.0000
  H   H258      1.0  0.15665  0.16496  0.71498  1.0000
  N   N14       1.0  0.18311  0.05114  0.71634  1.0000
  H   H259      1.0  0.19682  0.28774  0.61097  1.0000
  N   N15       1.0  0.25551  0.15473  0.69259  1.0000
  C   C217      1.0  0.26701  0.17233  0.68210  1.0000
  C   C218      1.0  0.23252  0.16323  0.69262  1.0000
  C   C219      1.0  0.25774  0.14771  0.71505  1.0000
  C   C220      1.0  0.26487  0.13704  0.68138  1.0000
  C   C221      1.0  0.28622  0.12611  0.68142  1.0000
  C   C222      1.0  0.25379  0.13102  0.66914  1.0000
  C   C223      1.0  0.29571  0.10985  0.67037  1.0000
  C   C224      1.0  0.26347  0.11482  0.65801  1.0000
  C   C225      1.0  0.28436  0.10422  0.65867  1.0000
  H   H260      1.0  0.26757  0.17665  0.66476  1.0000
  H   H261      1.0  0.25912  0.18690  0.68834  1.0000
  H   H262      1.0  0.28382  0.16808  0.68407  1.0000
  H   H263      1.0  0.22976  0.17073  0.67630  1.0000
  H   H264      1.0  0.22567  0.17589  0.70194  1.0000
  H   H265      1.0  0.22307  0.15051  0.69992  1.0000
  H   H266      1.0  0.27458  0.14267  0.71678  1.0000
  H   H267      1.0  0.25043  0.16065  0.72389  1.0000
  H   H268      1.0  0.24986  0.13402  0.72332  1.0000
  H   H269      1.0  0.29586  0.13025  0.68978  1.0000
  H   H270      1.0  0.23768  0.13870  0.66770  1.0000
  H   H271      1.0  0.31203  0.10175  0.67080  1.0000
  H   H272      1.0  0.25474  0.11074  0.64858  1.0000
  H   H273      1.0  0.29183  0.09175  0.64995  1.0000
  C   C226      1.0  0.99461  0.00485  0.57832  1.0000
  N   N16       1.0  0.18042  0.27645  0.64284  1.0000
  H   H274      1.0  0.17198  0.24564  0.65094  1.0000
  C   C227      1.0  0.99383  0.07892  0.52453  1.0000
  Fe  Fe40      1.0  0.09297  0.03866  0.56725  1.0000
  C   C228      1.0  0.40576  0.26445  0.50145  1.0000
  C   C229      1.0  0.35499  0.28098  0.52998  1.0000
  H   H275      1.0  0.37143  0.28572  0.63617  1.0000
  C   C230      1.0  0.20719  0.30991  0.67327  1.0000
  C   C231      1.0  0.02317  0.08964  0.53137  1.0000
  C   C232      1.0  0.31539  0.31471  0.66312  1.0000
  N   N17       1.0  0.36973  0.26091  0.52606  1.0000
  C   C233      1.0  0.19595  0.12367  0.55032  1.0000
  H   H276      1.0  0.18593  0.12471  0.52182  1.0000
  H   H277      1.0  0.39061  0.26705  0.55367  1.0000
  C   C234      1.0  0.02661  0.07954  0.49823  1.0000
  N   N18       1.0  0.05846  0.00700  0.50082  1.0000
  C   C235      1.0  0.06151  0.00653  0.52209  1.0000
  C   C236      1.0  0.17718  0.29777  0.66990  1.0000
  H   H278      1.0  0.03659  0.01399  0.60640  1.0000
  H   H279      1.0  0.99399  0.11774  0.57157  1.0000
  C   C237      1.0  0.18702  0.11602  0.53783  1.0000
  C   C238      1.0  0.22371  0.04370  0.70884  1.0000
  H   H280      1.0  0.03601  0.03679  0.50056  1.0000
  H   H281      1.0  0.21468  0.09292  0.60682  1.0000
  H   H282      1.0  0.22261  0.28187  0.63484  1.0000
  H   H283      1.0  0.30211  0.31176  0.62924  1.0000
  C   C239      1.0  0.17889  0.09751  0.54608  1.0000
  H   H284      1.0  0.32686  0.31374  0.61076  1.0000
  H   H285      1.0  0.31666  0.27977  0.65113  1.0000
  C   C240      1.0  0.15882  0.28788  0.63937  1.0000
  H   H286      1.0  0.20173  0.13826  0.54331  1.0000
  H   H287      1.0  0.18551  0.26495  0.61421  1.0000
  H   H288      1.0  0.19464  0.24661  0.66064  1.0000
  C   C241      1.0  0.39198  0.26376  0.52176  1.0000
  C   C242      1.0  0.21299  0.10530  0.73095  1.0000
  H   H289      1.0  0.29216  0.20889  0.72362  1.0000
  H   H290      1.0  0.22524  0.04173  0.69300  1.0000
  H   H291      1.0  0.24564  0.22580  0.72320  1.0000
  H   H292      1.0  0.14684  0.28836  0.65441  1.0000
  H   H293      1.0  0.25792  0.03777  0.70468  1.0000
  C   C243      1.0  0.05105  0.02956  0.49085  1.0000
  C   C244      1.0  0.03022  0.04039  0.56987  1.0000
  H   H294      1.0  0.19365  0.06028  0.68241  1.0000
  H   H295      1.0  0.04673  0.03108  0.56945  1.0000
  C   C245      1.0  0.36441  0.25532  0.50828  1.0000
  C   C246      1.0  0.02253  0.00141  0.49885  1.0000
  C   C247      1.0  0.15792  0.16881  0.72968  1.0000
  H   H296      1.0  0.25999  0.20096  0.71720  1.0000
  H   H297      1.0  0.27727  0.23298  0.73097  1.0000
  S   S74       1.0  0.13141  0.05436  0.49307  1.0000
  H   H298      1.0  0.03039  0.05579  0.57334  1.0000
  C   C248      1.0  0.42084  0.27046  0.53417  1.0000
  S   S75       1.0  0.08713  0.00633  0.58544  1.0000
  H   H299      1.0  0.21393  0.31769  0.68151  1.0000
  C   C249      1.0  0.42634  0.26816  0.49777  1.0000
  H   H300      1.0  0.32761  0.12282  0.73167  1.0000
  H   H301      1.0  0.17929  0.08503  0.70753  1.0000
  H   H302      1.0  0.16084  0.29619  0.67644  1.0000
  H   H303      1.0  0.30057  0.30813  0.66831  1.0000
  C   C250      1.0  0.43387  0.27115  0.51410  1.0000
  H   H304      1.0  0.02045  0.03858  0.61185  1.0000
  C   C251      1.0  0.18556  0.04817  0.69454  1.0000
  H   H305      1.0  0.40339  0.30007  0.62622  1.0000
  H   H306      1.0  0.36613  0.24802  0.55995  1.0000
  C   C252      1.0  0.17018  0.07273  0.71739  1.0000
  H   H307      1.0  0.35698  0.29423  0.51583  1.0000
  H   H308      1.0  0.00613  0.15068  0.56806  1.0000
  H   H309      1.0  0.34785  0.25258  0.51226  1.0000
  C   C253      1.0  0.21155  0.28966  0.64678  1.0000
  H   H310      1.0  0.37754  0.22874  0.54364  1.0000
  H   H311      1.0  0.19454  0.03199  0.69266  1.0000
  C   C254      1.0  0.00597  0.07556  0.50479  1.0000
  C   C255      1.0  0.34896  0.31628  0.63773  1.0000
  H   H312      1.0  0.20886  0.26142  0.62354  1.0000
  C   C256      1.0  0.24272  0.04128  0.71536  1.0000
  C   C257      1.0  0.03262  0.99418  0.57619  1.0000
  H   H313      1.0  0.15523  0.07571  0.71151  1.0000
  H   H314      1.0  0.37527  0.24058  0.50416  1.0000
  S   S76       1.0  0.19945  0.29598  0.73212  1.0000
  C   C258      1.0  0.04335  0.99322  0.50309  1.0000
  H   H315      1.0  0.43202  0.32216  0.49352  1.0000
  H   H316      1.0  0.36523  0.26846  0.49386  1.0000
  C   C259      1.0  0.28182  0.21562  0.73727  1.0000
  H   H317      1.0  0.18067  0.01878  0.73141  1.0000
  H   H318      1.0  0.23591  0.20216  0.73728  1.0000
  C   C260      1.0  0.10610  0.99396  0.54773  1.0000
  S   S77       1.0  0.28146  0.08037  0.73970  1.0000
  C   C261      1.0  0.25064  0.20873  0.73044  1.0000
  Fe  Fe41      1.0  0.17843  0.27334  0.73538  1.0000
  H   H319      1.0  0.17229  0.15783  0.73464  1.0000
  H   H320      1.0  0.99236  0.99457  0.49936  1.0000
  H   H321      1.0  0.01664  0.01816  0.49323  1.0000
  C   C262      1.0  0.24233  0.04381  0.73545  1.0000
  S   S78       1.0  0.19465  0.19500  0.73691  1.0000
  H   H322      1.0  0.23766  0.30551  0.73573  1.0000
  H   H323      1.0  0.99264  0.08931  0.55270  1.0000
  C   C263      1.0  0.12057  0.18290  0.73766  1.0000
  H   H324      1.0  0.13057  0.14297  0.73519  1.0000
  H   H325      1.0  0.99466  0.05993  0.59057  1.0000
  S   S79       1.0  0.14305  0.28455  0.73959  1.0000
  C   C264      1.0  0.99352  0.04479  0.58724  1.0000
  C   C265      1.0  0.25511  0.08983  0.73643  1.0000
  H   H326      1.0  0.17269  0.31919  0.86055  1.0000
  S   S80       1.0  0.47178  0.02067  0.98725  1.0000
  H   H327      1.0  0.34593  0.10989  0.78874  1.0000
  S   S81       1.0  0.39671  0.00238  0.89372  1.0000
  C   C266      1.0  0.13580  0.31375  0.79623  1.0000
  C   C267      1.0  0.12232  0.31062  0.87523  1.0000
  S   S82       1.0  0.43998  0.02311  0.87758  1.0000
  C   C268      1.0  0.24962  0.21521  0.76462  1.0000
  Fe  Fe42      1.0  0.41799  0.01256  0.90843  1.0000
  Fe  Fe43      1.0  0.42032  0.01003  0.86341  1.0000
  S   S83       1.0  0.41191  0.02453  0.83137  1.0000
  H   H328      1.0  0.33197  0.14033  0.80557  1.0000
  C   C269      1.0  0.45863  0.01882  0.95293  1.0000
  H   H329      1.0  0.20670  0.17945  0.80910  1.0000
  Fe  Fe44      1.0  0.26390  0.11764  0.79959  1.0000
  S   S84       1.0  0.23405  0.13808  0.81398  1.0000
  Fe  Fe45      1.0  0.30161  0.08186  0.80757  1.0000
  H   H330      1.0  0.17004  0.28544  0.88799  1.0000
  S   S85       1.0  0.31330  0.05848  0.83533  1.0000
  C   C270      1.0  0.16420  0.26308  0.82551  1.0000
  C   C271      1.0  0.10540  0.29014  0.82116  1.0000
  C   C272      1.0  0.23180  0.21319  0.80203  1.0000
  S   S86       1.0  0.29391  0.11618  0.80942  1.0000
  S   S87       1.0  0.27000  0.08271  0.80072  1.0000
  C   C273      1.0  0.14891  0.17622  0.80389  1.0000
  H   H331      1.0  0.44808  0.01531  0.92657  1.0000
  H   H332      1.0  0.14702  0.28883  0.77895  1.0000
  H   H333      1.0  0.11956  0.14343  0.76276  1.0000
  C   C274      1.0  0.22081  0.15308  0.79379  1.0000
  C   C275      1.0  0.21792  0.10303  0.75062  1.0000
  C   C276      1.0  0.13280  0.19021  0.79444  1.0000
  C   C277      1.0  0.02501  0.31132  0.79811  1.0000
  C   C278      1.0  0.16111  0.15917  0.79500  1.0000
  C   C279      1.0  0.22314  0.14516  0.77583  1.0000
  H   H334      1.0  0.18258  0.28588  0.80543  1.0000
  H   H335      1.0  0.10503  0.18216  0.74894  1.0000
  S   S88       1.0  0.27771  0.12645  0.76493  1.0000
  H   H336      1.0  0.16796  0.25333  0.81388  1.0000
  H   H337      1.0  0.02045  0.31187  0.81520  1.0000
  H   H338      1.0  0.14348  0.24387  0.84805  1.0000
  H   H339      1.0  0.36155  0.09088  0.88522  1.0000
  Fe  Fe46      1.0  0.14189  0.25617  0.76666  1.0000
  C   C280      1.0  0.38465  0.03500  0.83214  1.0000
  C   C281      1.0  0.37073  0.03807  0.85121  1.0000
  C   C282      1.0  0.34890  0.04547  0.85192  1.0000
  C   C283      1.0  0.34087  0.05018  0.83350  1.0000
  C   C284      1.0  0.35479  0.04759  0.81425  1.0000
  C   C285      1.0  0.37668  0.03999  0.81359  1.0000
  H   H340      1.0  0.37678  0.03508  0.86539  1.0000
  H   H341      1.0  0.33821  0.04771  0.86678  1.0000
  H   H342      1.0  0.34862  0.05099  0.80001  1.0000
  H   H343      1.0  0.38739  0.03762  0.79878  1.0000
  C   C286      1.0  0.21419  0.15787  0.75876  1.0000
  H   H344      1.0  0.40009  0.04591  0.97174  1.0000
  H   H345      1.0  0.36586  0.13834  0.78385  1.0000
  H   H346      1.0  0.09369  0.28095  0.83086  1.0000
  C   C287      1.0  0.32899  0.00497  0.82234  1.0000
  N   N19       1.0  0.35866  0.11521  0.81294  1.0000
  C   C288      1.0  0.35294  0.10089  0.80275  1.0000
  C   C289      1.0  0.33895  0.13062  0.81945  1.0000
  C   C290      1.0  0.37358  0.12758  0.79687  1.0000
  C   C291      1.0  0.36882  0.10234  0.83083  1.0000
  C   C292      1.0  0.35915  0.10284  0.85240  1.0000
  C   C293      1.0  0.38885  0.08836  0.82697  1.0000
  C   C294      1.0  0.36924  0.09044  0.86887  1.0000
  C   C295      1.0  0.39887  0.07623  0.84354  1.0000
  C   C296      1.0  0.38908  0.07725  0.86445  1.0000
  H   H347      1.0  0.07042  0.30465  0.76074  1.0000
  H   H348      1.0  0.12355  0.20369  0.80124  1.0000
  H   H349      1.0  0.09421  0.31534  0.83845  1.0000
  H   H350      1.0  0.34210  0.14191  0.82731  1.0000
  H   H351      1.0  0.32629  0.12238  0.83031  1.0000
  H   H352      1.0  0.32956  0.00786  0.85278  1.0000
  H   H353      1.0  0.38764  0.11723  0.78896  1.0000
  H   H354      1.0  0.14774  0.32272  0.78661  1.0000
  H   H355      1.0  0.37943  0.13755  0.80419  1.0000
  C   C297      1.0  0.17242  0.28143  0.82079  1.0000
  H   H356      1.0  0.39677  0.08630  0.81114  1.0000
  H   H357      1.0  0.16695  0.03759  0.74773  1.0000
  H   H358      1.0  0.41404  0.06546  0.84020  1.0000
  H   H359      1.0  0.39673  0.06749  0.87729  1.0000
  C   C298      1.0  0.42236  0.03061  0.94784  1.0000
  C   C299      1.0  0.12003  0.28280  0.80406  1.0000
  C   C300      1.0  0.44347  0.02105  0.94102  1.0000
  H   H360      1.0  0.17389  0.14850  0.80218  1.0000
  S   S89       1.0  0.32678  0.14813  0.76076  1.0000
  S   S90       1.0  0.40330  0.03147  0.93370  1.0000
  C   C301      1.0  0.33663  0.99819  0.84112  1.0000
  H   H361      1.0  0.14823  0.30155  0.90278  1.0000
  H   H362      1.0  0.01890  0.31636  0.85190  1.0000
  C   C302      1.0  0.13524  0.29462  0.79171  1.0000
  H   H363      1.0  0.47784  0.01325  0.90023  1.0000
  C   C303      1.0  0.22703  0.24682  0.77709  1.0000
  H   H364      1.0  0.34371  0.11248  0.85705  1.0000
  H   H365      1.0  0.11618  0.19872  0.76952  1.0000
  H   H366      1.0  0.16796  0.14321  0.76974  1.0000
  H   H367      1.0  0.11389  0.29719  0.88231  1.0000
  Fe  Fe47      1.0  0.28651  0.09139  0.76663  1.0000
  C   C304      1.0  0.16656  0.29481  0.83518  1.0000
  H   H368      1.0  0.25117  0.18652  0.79032  1.0000
  H   H369      1.0  0.36691  0.08896  0.79709  1.0000
  S   S91       1.0  0.31885  0.08759  0.77348  1.0000
  H   H370      1.0  0.24319  0.24722  0.74519  1.0000
  Fe  Fe48      1.0  0.30832  0.12211  0.77482  1.0000
  H   H371      1.0  0.24267  0.09361  0.76856  1.0000
  H   H372      1.0  0.04684  0.29452  0.76593  1.0000
  C   C305      1.0  0.45267  0.02591  0.97189  1.0000
  H   H373      1.0  0.29173  0.21340  0.74907  1.0000
  H   H374      1.0  0.13358  0.26626  0.87402  1.0000
  C   C306      1.0  0.41643  0.03833  0.96652  1.0000
  H   H375      1.0  0.20549  0.10723  0.76380  1.0000
  C   C307      1.0  0.15029  0.25786  0.84475  1.0000
  C   C308      1.0  0.22294  0.04898  0.74907  1.0000
  H   H376      1.0  0.08910  0.31738  0.77702  1.0000
  H   H377      1.0  0.15217  0.17875  0.81796  1.0000
  C   C309      1.0  0.20330  0.17868  0.75947  1.0000
  H   H378      1.0  0.21235  0.24224  0.81022  1.0000
  H   H379      1.0  0.31668  0.01922  0.82024  1.0000
  C   C310      1.0  0.12884  0.18724  0.77601  1.0000
  C   C311      1.0  0.20030  0.18640  0.77772  1.0000
  H   H380      1.0  0.01976  0.29717  0.79694  1.0000
  H   H381      1.0  0.22834  0.20378  0.81802  1.0000
  C   C312      1.0  0.20881  0.17345  0.79504  1.0000
  C   C313      1.0  0.14455  0.27094  0.85939  1.0000
  S   S92       1.0  0.17725  0.24648  0.76390  1.0000
  H   H382      1.0  0.47491  0.01123  0.94762  1.0000
  H   H383      1.0  0.19157  0.20232  0.77850  1.0000
  C   C314      1.0  0.22275  0.23481  0.79766  1.0000
  C   C315      1.0  0.24035  0.23723  0.76085  1.0000
  C   C316      1.0  0.47821  0.99653  0.81787  1.0000
  C   C317      1.0  0.33735  0.99381  0.80616  1.0000
  C   C318      1.0  0.03920  0.31894  0.93067  1.0000
  C   C319      1.0  0.15755  0.15629  0.77638  1.0000
  H   H384      1.0  0.23180  0.12918  0.77518  1.0000
  H   H385      1.0  0.34100  0.09202  0.81402  1.0000
  H   H386      1.0  0.47172  0.01304  0.81880  1.0000
  C   C320      1.0  0.43158  0.03577  0.97872  1.0000
  H   H387      1.0  0.22276  0.05168  0.76440  1.0000
  H   H388      1.0  0.21986  0.26364  0.77352  1.0000
  S   S93       1.0  0.11920  0.25912  0.79777  1.0000
  C   C321      1.0  0.24505  0.20341  0.78583  1.0000
  C   C322      1.0  0.15239  0.28993  0.85502  1.0000
  H   H389      1.0  0.18925  0.05588  0.75378  1.0000
  H   H390      1.0  0.07683  0.28707  0.79586  1.0000
  C   C323      1.0  0.23897  0.09542  0.75331  1.0000
  C   C324      1.0  0.05302  0.30793  0.76750  1.0000
  C   C325      1.0  0.14140  0.17034  0.76619  1.0000
  C   C326      1.0  0.03286  0.31917  0.91237  1.0000
  N   N20       1.0  0.04825  0.31008  0.78985  1.0000
  H   H391      1.0  0.35263  0.00185  0.87455  1.0000
  N   N21       1.0  0.14580  0.30364  0.87072  1.0000
  H   H392      1.0  0.05348  0.27622  0.80304  1.0000
  C   C327      1.0  0.10580  0.30950  0.82558  1.0000
  H   H393      1.0  0.05732  0.29212  0.81911  1.0000
  H   H394      1.0  0.14728  0.13281  0.75393  1.0000
  C   C328      1.0  0.13369  0.14567  0.74973  1.0000
  S   S94       1.0  0.14064  0.23429  0.74694  1.0000
  H   H395      1.0  0.17281  0.30922  0.83004  1.0000
  H   H396      1.0  0.05529  0.31145  0.93267  1.0000
  N   N22       1.0  0.13828  0.16714  0.74622  1.0000
  H   H397      1.0  0.21581  0.15159  0.74498  1.0000
  Fe  Fe49      1.0  0.17620  0.22731  0.74138  1.0000
  H   H398      1.0  0.25783  0.17347  0.76010  1.0000
  H   H399      1.0  0.11668  0.31944  0.86046  1.0000
  C   C329      1.0  0.20384  0.05146  0.74275  1.0000
  H   H400      1.0  0.14472  0.27765  0.89826  1.0000
  C   C330      1.0  0.15251  0.29151  0.89077  1.0000
  C   C331      1.0  0.27116  0.18220  0.75329  1.0000
  H   H401      1.0  0.04576  0.32275  0.75729  1.0000
  H   H402      1.0  0.28140  0.17849  0.76510  1.0000
  C   C332      1.0  0.05943  0.29057  0.80249  1.0000
  H   H403      1.0  0.04407  0.31185  0.90010  1.0000
  H   H404      1.0  0.33145  0.99929  0.79159  1.0000
  N   N23       1.0  0.26310  0.20545  0.74686  1.0000
  C   C333      1.0  0.12116  0.32123  0.81314  1.0000
  C   C334      1.0  0.15501  0.32312  0.86355  1.0000
  H   H405      1.0  0.11683  0.32137  0.88663  1.0000
  H   H406      1.0  0.25710  0.04250  0.74023  1.0000
  H   H407      1.0  0.44877  0.99140  0.81450  1.0000
  H   H408      1.0  0.05885  0.51740  0.03863  1.0000
  H   H409      1.0  0.20795  0.35306  0.18373  1.0000
  H   H410      1.0  0.35505  0.59308  0.12550  1.0000
  H   H411      1.0  0.09168  0.59196  0.08506  1.0000
  H   H412      1.0  0.02039  0.35023  0.08603  1.0000
  S   S95       1.0  0.11996  0.38564  0.02920  1.0000
  H   H413      1.0  0.11326  0.43073  0.02925  1.0000
  Fe  Fe50      1.0  0.17335  0.64094  0.12791  1.0000
  C   C335      1.0  0.06307  0.46444  0.01993  1.0000
  S   S96       1.0  0.15734  0.63043  0.10772  1.0000
  Fe  Fe51      1.0  0.18842  0.63695  0.16830  1.0000
  S   S97       1.0  0.19110  0.62199  0.20200  1.0000
  H   H414      1.0  0.03470  0.40930  0.08444  1.0000
  Fe  Fe52      1.0  0.10062  0.37596  0.01195  1.0000
  C   C336      1.0  0.18483  0.38706  0.04014  1.0000
  S   S98       1.0  0.20420  0.62511  0.13841  1.0000
  S   S99       1.0  0.07677  0.41878  0.06632  1.0000
  Fe  Fe53      1.0  0.14061  0.48749  0.08131  1.0000
  S   S100      1.0  0.12327  0.50462  0.05519  1.0000
  S   S101      1.0  0.14484  0.45199  0.09247  1.0000
  Fe  Fe54      1.0  0.15664  0.52635  0.08133  1.0000
  S   S102      1.0  0.14146  0.54682  0.05443  1.0000
  S   S103      1.0  0.17643  0.53480  0.09940  1.0000
  Fe  Fe55      1.0  0.11348  0.53167  0.07189  1.0000
  S   S104      1.0  0.08117  0.55297  0.07390  1.0000
  Fe  Fe56      1.0  0.15246  0.51813  0.03990  1.0000
  H   H415      1.0  0.04258  0.58776  0.01619  1.0000
  S   S105      1.0  0.12773  0.51313  0.09997  1.0000
  S   S106      1.0  0.17065  0.49918  0.06491  1.0000
  C   C337      1.0  0.06148  0.53879  0.07651  1.0000
  C   C338      1.0  0.04205  0.54951  0.07081  1.0000
  C   C339      1.0  0.02650  0.53810  0.07221  1.0000
  C   C340      1.0  0.03027  0.51603  0.07966  1.0000
  C   C341      1.0  0.04949  0.50543  0.08589  1.0000
  C   C342      1.0  0.06519  0.51676  0.08408  1.0000
  H   H416      1.0  0.03913  0.56658  0.06505  1.0000
  S   S107      1.0  0.28750  0.63317  0.23880  1.0000
  H   H417      1.0  0.05236  0.48839  0.09183  1.0000
  H   H418      1.0  0.08005  0.50847  0.08876  1.0000
  C   C343      1.0  0.09561  0.42752  0.07418  1.0000
  C   C344      1.0  0.11578  0.41480  0.07530  1.0000
  C   C345      1.0  0.13079  0.42220  0.08129  1.0000
  C   C346      1.0  0.12574  0.44250  0.08577  1.0000
  C   C347      1.0  0.10566  0.45531  0.08438  1.0000
  C   C348      1.0  0.09055  0.44774  0.07877  1.0000
  H   H419      1.0  0.11974  0.39922  0.07168  1.0000
  H   H420      1.0  0.14638  0.41229  0.08215  1.0000
  H   H421      1.0  0.10161  0.47091  0.08802  1.0000
  H   H422      1.0  0.07495  0.45759  0.07789  1.0000
  C   C349      1.0  0.16393  0.60391  0.10507  1.0000
  C   C350      1.0  0.15811  0.59893  0.08859  1.0000
  C   C351      1.0  0.16210  0.57776  0.08658  1.0000
  C   C352      1.0  0.17202  0.56149  0.10104  1.0000
  C   C353      1.0  0.17835  0.56652  0.11722  1.0000
  C   C354      1.0  0.17430  0.58772  0.11927  1.0000
  H   H423      1.0  0.15030  0.61150  0.07744  1.0000
  H   H424      1.0  0.15749  0.57404  0.07388  1.0000
  H   H425      1.0  0.18605  0.55394  0.12843  1.0000
  H   H426      1.0  0.17882  0.59148  0.13203  1.0000
  C   C355      1.0  0.26059  0.59905  0.20770  1.0000
  C   C356      1.0  0.25438  0.59833  0.18950  1.0000
  C   C357      1.0  0.23313  0.60590  0.18750  1.0000
  C   C358      1.0  0.21789  0.61348  0.20402  1.0000
  H   H427      1.0  0.19335  0.47495  0.03222  1.0000
  H   H428      1.0  0.12179  0.33832  0.14485  1.0000
  H   H429      1.0  0.26598  0.59182  0.17698  1.0000
  H   H430      1.0  0.22841  0.60522  0.17347  1.0000
  H   H431      1.0  0.11099  0.46540  0.03718  1.0000
  C   C359      1.0  0.32596  0.64242  0.12991  1.0000
  H   H432      1.0  0.04233  0.37081  0.09369  1.0000
  H   H433      1.0  0.23118  0.55398  0.13825  1.0000
  H   H434      1.0  0.11698  0.59380  0.08838  1.0000
  H   H435      1.0  0.14360  0.36976  0.21647  1.0000
  H   H436      1.0  0.12296  0.54165  0.01921  1.0000
  H   H437      1.0  0.05436  0.59586  0.13449  1.0000
  H   H438      1.0  0.06558  0.46232  0.03573  1.0000
  H   H439      1.0  0.12303  0.42606  0.99276  1.0000
  H   H440      1.0  0.08930  0.54956  0.11682  1.0000
  H   H441      1.0  0.07489  0.56093  0.13914  1.0000
  C   C360      1.0  0.02470  0.40130  0.08026  1.0000
  H   H442      1.0  0.02519  0.37253  0.01184  1.0000
  H   H443      1.0  0.15683  0.44847  0.02157  1.0000
  H   H444      1.0  0.06841  0.57198  0.11314  1.0000
  H   H445      1.0  0.11753  0.61105  0.11440  1.0000
  H   H446      1.0  0.26602  0.60168  0.13312  1.0000
  H   H447      1.0  0.25657  0.62026  0.09925  1.0000
  N   N24       1.0  0.29137  0.65330  0.15568  1.0000
  H   H448      1.0  0.05193  0.49198  0.04782  1.0000
  C   C361      1.0  0.11651  0.44410  0.01635  1.0000
  H   H449      1.0  0.19757  0.36133  0.06351  1.0000
  H   H450      1.0  0.16136  0.47280  0.02416  1.0000
  N   N25       1.0  0.16071  0.40478  0.14555  1.0000
  C   C362      1.0  0.15342  0.42639  0.15012  1.0000
  C   C363      1.0  0.17868  0.40570  0.12685  1.0000
  C   C364      1.0  0.14324  0.39917  0.13952  1.0000
  C   C365      1.0  0.16639  0.38921  0.16468  1.0000
  C   C366      1.0  0.15081  0.38634  0.18378  1.0000
  C   C367      1.0  0.18720  0.37668  0.16513  1.0000
  C   C368      1.0  0.15575  0.37185  0.20211  1.0000
  C   C369      1.0  0.19199  0.36245  0.18363  1.0000
  C   C370      1.0  0.17632  0.35996  0.20203  1.0000
  H   H451      1.0  0.16589  0.43091  0.15539  1.0000
  H   H452      1.0  0.14963  0.43864  0.13587  1.0000
  H   H453      1.0  0.13873  0.42770  0.16268  1.0000
  H   H454      1.0  0.19217  0.41054  0.13000  1.0000
  H   H455      1.0  0.17384  0.41746  0.11276  1.0000
  H   H456      1.0  0.18448  0.39012  0.12206  1.0000
  H   H457      1.0  0.14764  0.38245  0.13746  1.0000
  H   H458      1.0  0.12818  0.40071  0.15155  1.0000
  H   H459      1.0  0.13950  0.40966  0.12437  1.0000
  H   H460      1.0  0.13465  0.39521  0.18463  1.0000
  H   H461      1.0  0.20001  0.37725  0.15134  1.0000
  C   C371      1.0  0.34595  0.64604  0.19008  1.0000
  H   H462      1.0  0.26615  0.63638  0.16039  1.0000
  H   H463      1.0  0.18020  0.34865  0.21620  1.0000
  H   H464      1.0  0.20436  0.42241  0.06548  1.0000
  C   C372      1.0  0.18779  0.32640  0.09773  1.0000
  H   H465      1.0  0.11241  0.56876  0.08771  1.0000
  H   H466      1.0  0.14927  0.36971  0.10681  1.0000
  H   H467      1.0  0.18697  0.45691  0.05703  1.0000
  H   H468      1.0  0.09249  0.55771  0.00169  1.0000
  C   C373      1.0  0.17576  0.34298  0.10756  1.0000
  C   C374      1.0  0.10706  0.54938  0.99322  1.0000
  C   C375      1.0  0.28939  0.64969  0.17892  1.0000
  H   H469      1.0  0.06356  0.53504  0.00344  1.0000
  S   S108      1.0  0.07012  0.38151  0.03553  1.0000
  Fe  Fe57      1.0  0.08037  0.34753  0.05142  1.0000
  H   H470      1.0  0.02128  0.50319  0.03125  1.0000
  C   C376      1.0  0.25120  0.60557  0.10694  1.0000
  Fe  Fe58      1.0  0.08997  0.38880  0.05396  1.0000
  H   H471      1.0  0.21277  0.45178  0.03954  1.0000
  H   H472      1.0  0.99923  0.46102  0.03637  1.0000
  C   C377      1.0  0.09241  0.63370  0.12751  1.0000
  C   C378      1.0  0.24945  0.57651  0.13770  1.0000
  C   C379      1.0  0.25664  0.59505  0.12646  1.0000
  C   C380      1.0  0.16397  0.45531  0.03074  1.0000
  H   H473      1.0  0.02693  0.52941  0.02371  1.0000
  H   H474      1.0  0.01161  0.54640  0.06760  1.0000
  C   C381      1.0  0.16476  0.33665  0.07238  1.0000
  H   H475      1.0  0.00692  0.39759  0.00927  1.0000
  H   H476      1.0  0.03271  0.44245  0.06210  1.0000
  S   S109      1.0  0.18239  0.34727  0.12951  1.0000
  H   H477      1.0  0.35104  0.64117  0.15845  1.0000
  H   H478      1.0  0.21125  0.63972  0.06703  1.0000
  H   H479      1.0  0.00241  0.37606  0.00087  1.0000
  H   H480      1.0  0.29605  0.60999  0.16743  1.0000
  C   C382      1.0  0.30886  0.63712  0.14689  1.0000
  H   H481      1.0  0.20906  0.38434  0.07972  1.0000
  C   C383      1.0  0.23834  0.59779  0.09801  1.0000
  H   H482      1.0  0.19693  0.46582  0.99948  1.0000
  H   H483      1.0  0.20248  0.62670  0.09391  1.0000
  S   S110      1.0  0.15786  0.33228  0.05067  1.0000
  H   H484      1.0  0.15479  0.45280  0.04736  1.0000
  C   C384      1.0  0.19500  0.37830  0.05713  1.0000
  C   C385      1.0  0.01702  0.36741  0.08130  1.0000
  H   H485      1.0  0.01946  0.43784  0.03220  1.0000
  C   C386      1.0  0.02922  0.37909  0.08584  1.0000
  H   H486      1.0  0.41814  0.56865  0.23589  1.0000
  C   C387      1.0  0.06676  0.44589  0.01237  1.0000
  H   H487      1.0  0.16878  0.64985  0.23550  1.0000
  C   C388      1.0  0.03836  0.32638  0.01287  1.0000
  C   C389      1.0  0.34951  0.65252  0.16791  1.0000
  N   N26       1.0  0.09698  0.57920  0.11680  1.0000
  C   C390      1.0  0.11504  0.56736  0.12724  1.0000
  C   C391      1.0  0.08164  0.56490  0.12184  1.0000
  C   C392      1.0  0.10490  0.58366  0.09352  1.0000
  C   C393      1.0  0.08768  0.59958  0.12371  1.0000
  C   C394      1.0  0.10073  0.61430  0.12130  1.0000
  C   C395      1.0  0.06565  0.60575  0.13239  1.0000
  C   C396      1.0  0.05745  0.62527  0.13851  1.0000
  H   H488      1.0  0.17406  0.41493  0.01830  1.0000
  S   S111      1.0  0.15671  0.64969  0.15908  1.0000
  H   H489      1.0  0.10982  0.56417  0.14480  1.0000
  H   H490      1.0  0.12229  0.55182  0.12251  1.0000
  H   H491      1.0  0.12822  0.57609  0.12300  1.0000
  C   C397      1.0  0.04201  0.32524  0.04832  1.0000
  C   C398      1.0  0.34241  0.62666  0.12240  1.0000
  H   H492      1.0  0.21527  0.44103  0.00581  1.0000
  C   C399      1.0  0.32532  0.59950  0.14745  1.0000
  H   H493      1.0  0.17911  0.37673  0.03372  1.0000
  Fe  Fe59      1.0  0.12570  0.35128  0.04571  1.0000
  C   C400      1.0  0.20166  0.39136  0.06611  1.0000
  S   S112      1.0  0.16444  0.51696  0.00552  1.0000
  C   C401      1.0  0.99593  0.40000  0.06495  1.0000
  C   C402      1.0  0.19542  0.45774  0.04017  1.0000
  H   H494      1.0  0.11864  0.33118  0.11152  1.0000
  S   S113      1.0  0.28737  0.58992  0.20960  1.0000
  H   H495      1.0  0.22152  0.57156  0.10448  1.0000
  C   C403      1.0  0.05679  0.48484  0.00713  1.0000
  C   C404      1.0  0.18198  0.40892  0.03152  1.0000
  C   C405      1.0  0.00058  0.37780  0.07065  1.0000
  H   H496      1.0  0.01101  0.46435  0.06573  1.0000
  C   C406      1.0  0.12194  0.44168  0.99535  1.0000
  N   N27       1.0  0.18682  0.44566  0.02980  1.0000
  C   C407      1.0  0.19808  0.44860  0.00725  1.0000
  S   S114      1.0  0.10921  0.34108  0.02600  1.0000
  H   H497      1.0  0.25333  0.56863  0.15304  1.0000
  H   H498      1.0  0.07207  0.43054  0.02219  1.0000
  C   C408      1.0  0.23694  0.56831  0.12936  1.0000
  N   N28       1.0  0.05328  0.50488  0.01434  1.0000
  H   H499      1.0  0.27262  0.65243  0.13442  1.0000
  C   C409      1.0  0.06097  0.50196  0.03406  1.0000
  H   H500      1.0  0.13935  0.36371  0.07606  1.0000
  C   C410      1.0  0.15850  0.35669  0.09948  1.0000
  C   C411      1.0  0.11504  0.46369  0.02086  1.0000
  S   S115      1.0  0.32980  0.59414  0.23720  1.0000
  H   H501      1.0  0.15269  0.65383  0.20382  1.0000
  C   C412      1.0  0.25058  0.61529  0.06138  1.0000
  H   H502      1.0  0.25019  0.60771  0.23809  1.0000
  H   H503      1.0  0.00837  0.59834  0.04033  1.0000
  C   C413      1.0  0.15284  0.35334  0.08207  1.0000
  N   N29       1.0  0.00187  0.43597  0.06432  1.0000
  S   S116      1.0  0.09737  0.35526  0.07239  1.0000
  H   H504      1.0  0.06750  0.32753  0.02075  1.0000
  C   C414      1.0  0.05089  0.32667  0.02670  1.0000
  Fe  Fe60      1.0  0.29542  0.59919  0.23591  1.0000
  H   H505      1.0  0.20551  0.59545  0.07997  1.0000
  H   H506      1.0  0.24635  0.62287  0.04565  1.0000
  H   H507      1.0  0.30475  0.64952  0.18274  1.0000
  C   C415      1.0  0.18927  0.42268  0.03977  1.0000
  C   C416      1.0  0.01578  0.44673  0.07021  1.0000
  C   C417      1.0  0.22405  0.61412  0.22229  1.0000
  C   C418      1.0  0.12434  0.54020  0.00320  1.0000
  C   C419      1.0  0.23144  0.57869  0.10981  1.0000
  H   H508      1.0  0.34461  0.62978  0.19762  1.0000
  C   C420      1.0  0.22090  0.59827  0.06928  1.0000
  C   C421      1.0  0.03022  0.51414  0.01848  1.0000
  H   H509      1.0  0.10288  0.64455  0.12547  1.0000
  H   H510      1.0  0.35556  0.63120  0.10984  1.0000
  H   H511      1.0  0.25773  0.62695  0.06498  1.0000
  H   H512      1.0  0.23105  0.58267  0.06670  1.0000
  C   C422      1.0  0.00849  0.59608  0.02484  1.0000
  C   C423      1.0  0.01495  0.38411  0.00133  1.0000
  N   N30       1.0  0.23177  0.60995  0.07790  1.0000
  C   C424      1.0  0.21685  0.63000  0.08161  1.0000
  C   C425      1.0  0.34216  0.60524  0.13123  1.0000
  H   H513      1.0  0.32503  0.58285  0.15439  1.0000
  H   H514      1.0  0.02332  0.51745  0.00421  1.0000
  C   C426      1.0  0.30884  0.61517  0.15502  1.0000
  C   C427      1.0  0.00774  0.41246  0.06974  1.0000
  S   S117      1.0  0.01210  0.50106  0.07973  1.0000
  H   H515      1.0  0.26314  0.60078  0.05960  1.0000
  H   H516      1.0  0.22418  0.64020  0.08717  1.0000
  C   C428      1.0  0.39656  0.63986  0.22877  1.0000
  C   C429      1.0  0.14332  0.52951  0.99241  1.0000
  H   H517      1.0  0.04058  0.62971  0.14504  1.0000
  H   H518      1.0  0.08161  0.51352  0.99280  1.0000
  S   S118      1.0  0.33968  0.65293  0.23004  1.0000
  H   H519      1.0  0.01487  0.44277  0.08764  1.0000
  C   C430      1.0  0.19886  0.41326  0.05768  1.0000
  C   C431      1.0  0.24547  0.60719  0.22399  1.0000
  H   H520      1.0  0.37614  0.61804  0.23722  1.0000
  S   S119      1.0  0.00020  0.32980  0.00254  1.0000
  C   C432      1.0  0.00318  0.44337  0.04112  1.0000
  H   H521      1.0  0.07816  0.49468  0.03223  1.0000
  H   H522      1.0  0.06440  0.65432  0.14083  1.0000
  H   H523      1.0  0.38592  0.65190  0.21975  1.0000
  C   C433      1.0  0.07081  0.63919  0.13613  1.0000
  H   H524      1.0  0.21675  0.60745  0.05385  1.0000
  S   S120      1.0  0.05714  0.32586  0.06594  1.0000
  C   C434      1.0  0.02782  0.58695  0.99138  1.0000
  C   C435      1.0  0.41544  0.64423  0.23024  1.0000
  H   H525      1.0  0.21230  0.62000  0.23509  1.0000
  H   H526      1.0  0.28467  0.63433  0.18761  1.0000
  C   C436      1.0  0.01668  0.32610  0.02040  1.0000
  C   C437      1.0  0.11930  0.48092  0.00442  1.0000
  C   C438      1.0  0.06447  0.52047  0.99780  1.0000
  C   C439      1.0  0.02769  0.59003  0.01128  1.0000
  C   C440      1.0  0.06422  0.44701  0.99209  1.0000
  H   H527      1.0  0.19136  0.44161  0.99777  1.0000
  H   H528      1.0  0.05575  0.38923  0.99068  1.0000
  C   C441      1.0  0.27109  0.65161  0.15155  1.0000
  H   H529      1.0  0.04537  0.32676  0.99630  1.0000
  H   H530      1.0  0.11861  0.49608  0.00800  1.0000
  Fe  Fe61      1.0  0.21223  0.65755  0.12590  1.0000
  H   H531      1.0  0.03795  0.41414  0.99000  1.0000
  H   H532      1.0  0.99184  0.43756  0.03556  1.0000
  C   C442      1.0  0.39112  0.62015  0.23897  1.0000
  C   C443      1.0  0.46820  0.58061  0.47253  1.0000
  C   C444      1.0  0.45798  0.38559  0.48412  1.0000
  H   H533      1.0  0.43481  0.59771  0.26106  1.0000
  Fe  Fe62      1.0  0.42206  0.47575  0.37602  1.0000
  S   S121      1.0  0.39221  0.49468  0.39246  1.0000
  S   S122      1.0  0.42836  0.44627  0.36329  1.0000
  Fe  Fe63      1.0  0.45050  0.50317  0.37924  1.0000
  S   S123      1.0  0.42356  0.52475  0.39592  1.0000
  C   C445      1.0  0.44852  0.39859  0.44916  1.0000
  Fe  Fe64      1.0  0.41249  0.49479  0.41452  1.0000
  S   S124      1.0  0.40028  0.48964  0.44971  1.0000
  Fe  Fe65      1.0  0.40544  0.52324  0.37251  1.0000
  S   S125      1.0  0.38579  0.55415  0.35809  1.0000
  S   S126      1.0  0.44113  0.47327  0.39994  1.0000
  S   S127      1.0  0.43350  0.50431  0.35403  1.0000
  H   H534      1.0  0.29280  0.54854  0.31662  1.0000
  S   S128      1.0  0.40241  0.34358  0.41862  1.0000
  H   H535      1.0  0.45746  0.40317  0.40594  1.0000
  Fe  Fe66      1.0  0.37575  0.35429  0.40102  1.0000
  C   C446      1.0  0.32263  0.35738  0.32336  1.0000
  S   S129      1.0  0.35965  0.38850  0.39281  1.0000
  C   C447      1.0  0.22733  0.64942  0.26735  1.0000
  H   H536      1.0  0.25713  0.55876  0.36794  1.0000
  H   H537      1.0  0.43215  0.56557  0.25646  1.0000
  H   H538      1.0  0.24802  0.58004  0.34717  1.0000
  C   C448      1.0  0.48653  0.32627  0.38106  1.0000
  H   H539      1.0  0.43658  0.35640  0.38307  1.0000
  Fe  Fe67      1.0  0.27982  0.61981  0.27370  1.0000
  S   S130      1.0  0.28455  0.58612  0.27058  1.0000
  C   C449      1.0  0.44995  0.55735  0.41517  1.0000
  H   H540      1.0  0.35644  0.37358  0.35645  1.0000
  C   C450      1.0  0.46451  0.33139  0.38221  1.0000
  S   S131      1.0  0.39101  0.33372  0.37730  1.0000
  H   H541      1.0  0.35040  0.37767  0.33124  1.0000
  Fe  Fe68      1.0  0.31842  0.58368  0.27231  1.0000
  S   S132      1.0  0.33543  0.55315  0.29036  1.0000
  C   C451      1.0  0.48655  0.54395  0.47522  1.0000
  S   S133      1.0  0.31279  0.61631  0.27842  1.0000
  H   H542      1.0  0.27472  0.59427  0.31598  1.0000
  N   N31       1.0  0.39955  0.58294  0.26190  1.0000
  H   H543      1.0  0.41314  0.42857  0.44342  1.0000
  H   H544      1.0  0.29630  0.58440  0.36589  1.0000
  H   H545      1.0  0.26542  0.56116  0.31958  1.0000
  H   H546      1.0  0.29691  0.38055  0.36556  1.0000
  C   C452      1.0  0.43014  0.44016  0.48128  1.0000
  C   C453      1.0  0.37883  0.35107  0.47250  1.0000
  H   H547      1.0  0.37424  0.35468  0.45739  1.0000
  C   C454      1.0  0.30432  0.56821  0.36524  1.0000
  C   C455      1.0  0.44053  0.49014  0.45269  1.0000
  H   H548      1.0  0.47020  0.44245  0.37150  1.0000
  C   C456      1.0  0.44295  0.54914  0.45354  1.0000
  C   C457      1.0  0.40872  0.43086  0.37123  1.0000
  C   C458      1.0  0.38809  0.43851  0.38161  1.0000
  C   C459      1.0  0.37287  0.42556  0.38800  1.0000
  C   C460      1.0  0.37851  0.40479  0.38460  1.0000
  C   C461      1.0  0.39925  0.39705  0.37461  1.0000
  C   C462      1.0  0.41423  0.41020  0.36761  1.0000
  H   H549      1.0  0.38376  0.45445  0.38444  1.0000
  H   H550      1.0  0.35682  0.43154  0.39579  1.0000
  H   H551      1.0  0.40363  0.38108  0.37184  1.0000
  H   H552      1.0  0.43016  0.40427  0.35950  1.0000
  C   C463      1.0  0.37213  0.55368  0.33912  1.0000
  C   C464      1.0  0.35928  0.57251  0.33034  1.0000
  C   C465      1.0  0.34809  0.57262  0.31519  1.0000
  C   C466      1.0  0.34946  0.55378  0.30903  1.0000
  C   C467      1.0  0.36241  0.53496  0.31773  1.0000
  C   C468      1.0  0.37381  0.53491  0.33269  1.0000
  H   H553      1.0  0.35798  0.58706  0.33530  1.0000
  H   H554      1.0  0.33842  0.58726  0.30843  1.0000
  H   H555      1.0  0.36355  0.52034  0.31297  1.0000
  H   H556      1.0  0.38369  0.52032  0.33944  1.0000
  C   C469      1.0  0.41910  0.49165  0.46281  1.0000
  H   H557      1.0  0.42228  0.37899  0.42342  1.0000
  H   H558      1.0  0.44549  0.48845  0.43642  1.0000
  H   H559      1.0  0.42448  0.36979  0.45035  1.0000
  H   H560      1.0  0.47224  0.48863  0.45607  1.0000
  C   C470      1.0  0.48754  0.42866  0.33645  1.0000
  C   C471      1.0  0.32059  0.55914  0.37656  1.0000
  S   S134      1.0  0.25345  0.63630  0.29606  1.0000
  H   H561      1.0  0.33586  0.51078  0.36380  1.0000
  H   H562      1.0  0.27340  0.53825  0.33914  1.0000
  C   C472      1.0  0.44121  0.41105  0.41295  1.0000
  H   H563      1.0  0.48611  0.39336  0.48752  1.0000
  H   H564      1.0  0.46232  0.44020  0.48172  1.0000
  H   H565      1.0  0.43055  0.41100  0.40267  1.0000
  H   H566      1.0  0.30245  0.58246  0.31452  1.0000
  C   C473      1.0  0.32157  0.35015  0.34553  1.0000
  H   H567      1.0  0.36140  0.35136  0.34418  1.0000
  H   H568      1.0  0.44106  0.42805  0.41165  1.0000
  H   H569      1.0  0.46978  0.51070  0.41200  1.0000
  C   C474      1.0  0.31063  0.53567  0.35289  1.0000
  C   C475      1.0  0.43795  0.54886  0.43460  1.0000
  C   C476      1.0  0.39853  0.57942  0.28495  1.0000
  C   C477      1.0  0.31336  0.33134  0.35549  1.0000
  H   H570      1.0  0.30816  0.52590  0.34359  1.0000
  C   C478      1.0  0.44463  0.38723  0.47053  1.0000
  C   C479      1.0  0.29887  0.55679  0.35296  1.0000
  C   C480      1.0  0.47573  0.39499  0.47686  1.0000
  S   S135      1.0  0.35602  0.33138  0.42289  1.0000
  H   H571      1.0  0.38647  0.59215  0.29187  1.0000
  H   H572      1.0  0.28848  0.59862  0.33337  1.0000
  H   H573      1.0  0.40578  0.40444  0.45984  1.0000
  H   H574      1.0  0.48676  0.57163  0.43207  1.0000
  H   H575      1.0  0.40108  0.41310  0.43341  1.0000
  H   H576      1.0  0.47014  0.42879  0.34128  1.0000
  C   C481      1.0  0.27822  0.55300  0.32862  1.0000
  C   C482      1.0  0.46730  0.56572  0.41458  1.0000
  H   H577      1.0  0.48597  0.52767  0.47430  1.0000
  H   H578      1.0  0.33996  0.33512  0.38041  1.0000
  H   H579      1.0  0.42486  0.54172  0.43500  1.0000
  H   H580      1.0  0.39750  0.44134  0.48424  1.0000
  C   C483      1.0  0.26138  0.57289  0.35569  1.0000
  C   C484      1.0  0.45345  0.35219  0.38277  1.0000
  C   C485      1.0  0.47997  0.40648  0.45604  1.0000
  H   H581      1.0  0.36530  0.59189  0.26627  1.0000
  C   C486      1.0  0.46019  0.55816  0.45350  1.0000
  H   H582      1.0  0.33491  0.36013  0.38792  1.0000
  N   N32       1.0  0.43401  0.40007  0.43518  1.0000
  H   H583      1.0  0.43107  0.37965  0.47701  1.0000
  H   H584      1.0  0.34475  0.53167  0.38450  1.0000
  H   H585      1.0  0.31286  0.39280  0.34157  1.0000
  C   C487      1.0  0.31677  0.34598  0.31178  1.0000
  C   C488      1.0  0.43219  0.37843  0.43473  1.0000
  H   H586      1.0  0.32500  0.56834  0.38527  1.0000
  H   H587      1.0  0.47117  0.58186  0.48774  1.0000
  C   C489      1.0  0.41260  0.41202  0.44333  1.0000
  H   H588      1.0  0.26206  0.58496  0.36405  1.0000
  H   H589      1.0  0.47977  0.48045  0.33828  1.0000
  C   C490      1.0  0.23384  0.65433  0.28341  1.0000
  H   H590      1.0  0.41395  0.57914  0.28865  1.0000
  H   H591      1.0  0.23415  0.63428  0.26284  1.0000
  H   H592      1.0  0.46255  0.46542  0.33579  1.0000
  C   C491      1.0  0.32669  0.52669  0.36449  1.0000
  H   H593      1.0  0.37889  0.38366  0.47141  1.0000
  H   H594      1.0  0.43323  0.54189  0.46796  1.0000
  N   N33       1.0  0.32840  0.36223  0.35735  1.0000
  C   C492      1.0  0.41279  0.49372  0.48392  1.0000
  C   C493      1.0  0.31338  0.38291  0.35778  1.0000
  C   C494      1.0  0.47254  0.56592  0.43341  1.0000
  C   C495      1.0  0.35004  0.36635  0.34682  1.0000
  C   C496      1.0  0.38141  0.36748  0.48047  1.0000
  H   H595      1.0  0.47071  0.41761  0.42642  1.0000
  H   H596      1.0  0.45347  0.59244  0.46953  1.0000
  H   H597      1.0  0.31847  0.35126  0.29473  1.0000
  H   H598      1.0  0.45573  0.38391  0.38222  1.0000
  H   H599      1.0  0.14208  0.65701  0.24875  1.0000
  N   N34       1.0  0.28173  0.56691  0.34092  1.0000
  H   H600      1.0  0.44621  0.55687  0.40051  1.0000
  C   C497      1.0  0.38187  0.33011  0.48425  1.0000
  H   H601      1.0  0.31797  0.39243  0.36668  1.0000
  H   H602      1.0  0.44812  0.36857  0.42971  1.0000
  C   C498      1.0  0.28709  0.58640  0.32562  1.0000
  C   C499      1.0  0.33171  0.53841  0.37622  1.0000
  C   C500      1.0  0.45566  0.49021  0.46384  1.0000
  H   H603      1.0  0.32824  0.37176  0.31472  1.0000
  C   C501      1.0  0.46432  0.36778  0.38235  1.0000
  N   N35       1.0  0.46596  0.55879  0.47322  1.0000
  H   H604      1.0  0.39411  0.56390  0.29373  1.0000
  H   H605      1.0  0.37568  0.56421  0.26743  1.0000
  H   H606      1.0  0.43352  0.44111  0.46437  1.0000
  C   C502      1.0  0.46654  0.40845  0.44232  1.0000
  C   C503      1.0  0.32910  0.35100  0.37963  1.0000
  C   C504      1.0  0.37891  0.58033  0.25929  1.0000
  C   C505      1.0  0.42902  0.62887  0.24193  1.0000
  H   H607      1.0  0.31307  0.34882  0.38917  1.0000
  C   C506      1.0  0.44937  0.49212  0.48501  1.0000
  H   H608      1.0  0.41267  0.54999  0.26068  1.0000
  H   H609      1.0  0.47718  0.57140  0.39942  1.0000
  C   C507      1.0  0.41638  0.56610  0.25335  1.0000
  C   C508      1.0  0.47960  0.46652  0.33222  1.0000
  H   H610      1.0  0.48177  0.58563  0.46006  1.0000
  C   C509      1.0  0.40463  0.60409  0.25102  1.0000
  Fe  Fe69      1.0  0.32092  0.62709  0.24319  1.0000
  C   C510      1.0  0.48606  0.51281  0.40670  1.0000
  S   S136      1.0  0.48513  0.50473  0.36872  1.0000
  C   C511      1.0  0.47984  0.32799  0.45945  1.0000
  C   C512      1.0  0.46374  0.32719  0.47827  1.0000
  H   H611      1.0  0.48927  0.45764  0.37043  1.0000
  C   C513      1.0  0.42377  0.60908  0.25217  1.0000
  H   H612      1.0  0.48499  0.47029  0.31468  1.0000
  C   C514      1.0  0.48621  0.36259  0.38178  1.0000
  C   C515      1.0  0.48713  0.44389  0.36529  1.0000
  H   H613      1.0  0.48937  0.36610  0.44559  1.0000
  H   H614      1.0  0.48768  0.51895  0.43624  1.0000
  H   H615      1.0  0.37863  0.58220  0.24233  1.0000
  H   H616      1.0  0.44368  0.63236  0.24310  1.0000
  C   C516      1.0  0.30913  0.32744  0.32197  1.0000
  H   H617      1.0  0.48623  0.32484  0.42658  1.0000
  Fe  Fe70      1.0  0.43807  0.53693  0.55409  1.0000
  S   S137      1.0  0.47125  0.52144  0.54060  1.0000
  S   S138      1.0  0.42634  0.57223  0.55102  1.0000
  Fe  Fe71      1.0  0.42332  0.49509  0.57128  1.0000
  S   S139      1.0  0.45533  0.47567  0.55998  1.0000
  S   S140      1.0  0.39360  0.48352  0.58967  1.0000
  Fe  Fe72      1.0  0.46819  0.49751  0.57139  1.0000
  C   C517      1.0  0.42125  0.43968  0.52441  1.0000
  Fe  Fe73      1.0  0.45549  0.50104  0.53026  1.0000
  H   H618      1.0  0.31023  0.33220  0.66134  1.0000
  S   S141      1.0  0.43618  0.51438  0.58579  1.0000
  S   S142      1.0  0.42247  0.51898  0.54066  1.0000
  Fe  Fe74      1.0  0.41606  0.36931  0.57819  1.0000
  S   S143      1.0  0.42923  0.38505  0.54497  1.0000
  S   S144      1.0  0.40148  0.38451  0.60609  1.0000
  Fe  Fe75      1.0  0.41027  0.36714  0.53555  1.0000
  C   C518      1.0  0.26077  0.62924  0.72997  1.0000
  Fe  Fe76      1.0  0.45429  0.35522  0.54514  1.0000
  S   S145      1.0  0.39462  0.35408  0.56881  1.0000
  S   S146      1.0  0.44284  0.34092  0.57945  1.0000
  Fe  Fe77      1.0  0.38609  0.61624  0.65331  1.0000
  S   S147      1.0  0.41150  0.58935  0.64248  1.0000
  Fe  Fe78      1.0  0.33936  0.63182  0.67131  1.0000
  C   C519      1.0  0.44201  0.43926  0.51260  1.0000
  Fe  Fe79      1.0  0.37276  0.63790  0.69083  1.0000
  C   C520      1.0  0.29348  0.62449  0.70354  1.0000
  S   S148      1.0  0.43630  0.33830  0.53322  1.0000
  Fe  Fe80      1.0  0.42237  0.32664  0.56753  1.0000
  H   H619      1.0  0.38603  0.46041  0.54849  1.0000
  H   H620      1.0  0.45312  0.56425  0.64939  1.0000
  S   S149      1.0  0.39289  0.38289  0.50899  1.0000
  C   C521      1.0  0.40417  0.44061  0.51497  1.0000
  H   H621      1.0  0.31960  0.64897  0.73828  1.0000
  C   C522      1.0  0.39608  0.45601  0.59385  1.0000
  C   C523      1.0  0.41271  0.44396  0.58165  1.0000
  C   C524      1.0  0.41433  0.42195  0.58505  1.0000
  C   C525      1.0  0.39948  0.41199  0.60094  1.0000
  C   C526      1.0  0.38298  0.42401  0.61327  1.0000
  C   C527      1.0  0.38111  0.44605  0.60953  1.0000
  H   H622      1.0  0.42418  0.45161  0.56945  1.0000
  H   H623      1.0  0.42732  0.41261  0.57575  1.0000
  H   H624      1.0  0.37156  0.41629  0.62565  1.0000
  H   H625      1.0  0.36823  0.45531  0.61902  1.0000
  H   H626      1.0  0.39126  0.42147  0.55632  1.0000
  H   H627      1.0  0.36664  0.36300  0.62682  1.0000
  H   H628      1.0  0.35937  0.46365  0.54600  1.0000
  S   S150      1.0  0.38349  0.63477  0.72078  1.0000
  H   H629      1.0  0.32244  0.61487  0.71543  1.0000
  H   H630      1.0  0.41859  0.43948  0.54099  1.0000
  C   C528      1.0  0.42386  0.57917  0.57523  1.0000
  C   C529      1.0  0.43572  0.56582  0.58983  1.0000
  C   C530      1.0  0.43231  0.56967  0.61007  1.0000
  C   C531      1.0  0.41696  0.58701  0.61597  1.0000
  C   C532      1.0  0.40564  0.60106  0.60113  1.0000
  C   C533      1.0  0.40916  0.59717  0.58068  1.0000
  H   H631      1.0  0.44752  0.55240  0.58551  1.0000
  H   H632      1.0  0.44123  0.55875  0.62133  1.0000
  H   H633      1.0  0.39388  0.61460  0.60550  1.0000
  H   H634      1.0  0.40003  0.60767  0.56936  1.0000
  C   C534      1.0  0.47359  0.38323  0.60512  1.0000
  H   H635      1.0  0.26205  0.63364  0.69665  1.0000
  H   H636      1.0  0.45452  0.37697  0.50044  1.0000
  H   H637      1.0  0.36923  0.42943  0.50859  1.0000
  C   C535      1.0  0.45505  0.39783  0.61063  1.0000
  H   H638      1.0  0.34046  0.59427  0.66163  1.0000
  H   H639      1.0  0.31251  0.33545  0.62322  1.0000
  C   C536      1.0  0.38736  0.36288  0.50003  1.0000
  H   H640      1.0  0.36437  0.42367  0.55509  1.0000
  H   H641      1.0  0.31012  0.54173  0.67288  1.0000
  S   S151      1.0  0.46867  0.49167  0.49876  1.0000
  H   H642      1.0  0.48295  0.58344  0.61247  1.0000
  H   H643      1.0  0.45654  0.59737  0.62209  1.0000
  H   H644      1.0  0.33367  0.34968  0.63643  1.0000
  C   C537      1.0  0.38977  0.34203  0.51203  1.0000
  H   H645      1.0  0.43892  0.57834  0.67804  1.0000
  C   C538      1.0  0.44435  0.59289  0.67574  1.0000
  H   H646      1.0  0.29343  0.64636  0.63709  1.0000
  C   C539      1.0  0.45597  0.41894  0.60869  1.0000
  H   H647      1.0  0.44144  0.43029  0.61281  1.0000
  H   H648      1.0  0.42296  0.49485  0.51150  1.0000
  C   C540      1.0  0.36729  0.34612  0.62914  1.0000
  C   C541      1.0  0.32339  0.56911  0.66864  1.0000
  C   C542      1.0  0.46706  0.61833  0.65786  1.0000
  H   H649      1.0  0.47913  0.60916  0.61776  1.0000
  H   H650      1.0  0.30966  0.57715  0.67852  1.0000
  S   S152      1.0  0.36550  0.60888  0.68568  1.0000
  H   H651      1.0  0.48012  0.62367  0.64584  1.0000
  H   H652      1.0  0.48007  0.55236  0.64021  1.0000
  H   H653      1.0  0.45464  0.43909  0.52016  1.0000
  C   C543      1.0  0.46229  0.59820  0.65989  1.0000
  H   H654      1.0  0.42811  0.63696  0.69687  1.0000
  N   N36       1.0  0.38215  0.44221  0.52776  1.0000
  H   H655      1.0  0.38540  0.40839  0.53903  1.0000
  H   H656      1.0  0.47115  0.55420  0.66752  1.0000
  C   C544      1.0  0.46967  0.56274  0.65108  1.0000
  S   S153      1.0  0.39552  0.64346  0.65966  1.0000
  H   H657      1.0  0.37801  0.47597  0.52449  1.0000
  S   S154      1.0  0.30632  0.62624  0.67690  1.0000
  C   C545      1.0  0.27123  0.62939  0.70886  1.0000
  H   H658      1.0  0.34971  0.44509  0.52524  1.0000
  H   H659      1.0  0.24359  0.63338  0.73396  1.0000
  H   H660      1.0  0.41854  0.60257  0.70075  1.0000
  H   H661      1.0  0.47965  0.53007  0.57903  1.0000
  C   C546      1.0  0.30525  0.61877  0.71944  1.0000
  H   H662      1.0  0.43991  0.39276  0.61631  1.0000
  N   N37       1.0  0.37876  0.53790  0.62949  1.0000
  C   C547      1.0  0.39763  0.53501  0.63864  1.0000
  C   C548      1.0  0.37753  0.51662  0.62741  1.0000
  C   C549      1.0  0.38208  0.55152  0.60785  1.0000
  C   C550      1.0  0.35958  0.54829  0.64293  1.0000
  C   C551      1.0  0.34150  0.53884  0.65273  1.0000
  C   C552      1.0  0.35859  0.56864  0.64647  1.0000
  C   C553      1.0  0.32373  0.54919  0.66544  1.0000
  C   C554      1.0  0.34077  0.57879  0.65913  1.0000
  C   C555      1.0  0.36609  0.44384  0.51529  1.0000
  H   H663      1.0  0.41249  0.52754  0.62877  1.0000
  H   H664      1.0  0.40045  0.55030  0.63986  1.0000
  H   H665      1.0  0.39570  0.52485  0.65492  1.0000
  H   H666      1.0  0.37537  0.50532  0.64305  1.0000
  H   H667      1.0  0.39244  0.50923  0.61756  1.0000
  H   H668      1.0  0.36449  0.51756  0.61941  1.0000
  H   H669      1.0  0.36799  0.55452  0.60065  1.0000
  H   H670      1.0  0.38495  0.56722  0.60775  1.0000
  H   H671      1.0  0.39612  0.54420  0.59699  1.0000
  H   H672      1.0  0.34068  0.52350  0.65086  1.0000
  H   H673      1.0  0.37165  0.57691  0.63952  1.0000
  C   C556      1.0  0.43237  0.60673  0.68895  1.0000
  C   C557      1.0  0.38077  0.42316  0.54528  1.0000
  C   C558      1.0  0.47547  0.42552  0.60127  1.0000
  C   C559      1.0  0.34853  0.33830  0.63470  1.0000
  H   H674      1.0  0.47276  0.36686  0.60641  1.0000
  H   H675      1.0  0.45378  0.55472  0.50710  1.0000
  H   H676      1.0  0.39390  0.33841  0.52736  1.0000
  C   C560      1.0  0.44640  0.43973  0.49102  1.0000
  C   C561      1.0  0.27615  0.65342  0.64023  1.0000
  H   H677      1.0  0.46595  0.32989  0.49269  1.0000
  S   S155      1.0  0.35913  0.63662  0.63826  1.0000
  H   H678      1.0  0.26918  0.64328  0.65533  1.0000
  C   C562      1.0  0.37615  0.46136  0.53705  1.0000
  C   C563      1.0  0.47347  0.59391  0.62359  1.0000
  H   H679      1.0  0.26944  0.65168  0.62735  1.0000
  C   C564      1.0  0.43770  0.62621  0.68673  1.0000
  H   H680      1.0  0.48724  0.34171  0.57118  1.0000
  N   N38       1.0  0.47558  0.58388  0.64577  1.0000
  H   H681      1.0  0.47535  0.44211  0.59987  1.0000
  C   C565      1.0  0.42790  0.49394  0.49503  1.0000
  C   C566      1.0  0.38699  0.33233  0.62625  1.0000
  C   C567      1.0  0.45494  0.63206  0.67115  1.0000
  C   C568      1.0  0.38696  0.32569  0.50417  1.0000
  H   H682      1.0  0.44889  0.53573  0.49557  1.0000
  H   H683      1.0  0.45877  0.64742  0.66924  1.0000
  H   H684      1.0  0.40152  0.33849  0.62166  1.0000
  H   H685      1.0  0.36588  0.45821  0.50209  1.0000
  C   C569      1.0  0.40932  0.44052  0.49298  1.0000
  S   S156      1.0  0.48709  0.35883  0.52639  1.0000
  C   C570      1.0  0.44988  0.55271  0.49265  1.0000
  H   H686      1.0  0.39624  0.49489  0.49173  1.0000
  H   H687      1.0  0.43381  0.56278  0.49166  1.0000
  H   H688      1.0  0.49094  0.54268  0.49051  1.0000
  C   C571      1.0  0.04202  0.34604  0.79957  1.0000
  Fe  Fe81      1.0  0.08295  0.35886  0.88958  1.0000
  S   S157      1.0  0.11067  0.37004  0.86589  1.0000
  H   H689      1.0  0.00779  0.46849  0.84047  1.0000
  Fe  Fe82      1.0  0.05236  0.37892  0.86032  1.0000
  S   S158      1.0  0.07736  0.39163  0.83386  1.0000
  S   S159      1.0  0.01851  0.38879  0.85635  1.0000
  Fe  Fe83      1.0  0.09823  0.35992  0.84292  1.0000
  C   C572      1.0  0.03124  0.45274  0.90387  1.0000
  Fe  Fe84      1.0  0.08756  0.40070  0.85891  1.0000
  S   S160      1.0  0.09637  0.43269  0.84951  1.0000
  H   H690      1.0  0.27742  0.63495  0.80325  1.0000
  S   S161      1.0  0.06074  0.39061  0.88493  1.0000
  Fe  Fe85      1.0  0.08779  0.55078  0.92994  1.0000
  S   S162      1.0  0.08134  0.57564  0.90097  1.0000
  S   S163      1.0  0.08627  0.55899  0.96079  1.0000
  Fe  Fe86      1.0  0.08595  0.51432  0.91141  1.0000
  S   S164      1.0  0.07930  0.53600  0.88084  1.0000
  S   S165      1.0  0.08429  0.47972  0.92321  1.0000
  Fe  Fe87      1.0  0.10446  0.55190  0.88326  1.0000
  S   S166      1.0  0.13058  0.55877  0.85457  1.0000
  Fe  Fe88      1.0  0.05704  0.55761  0.90118  1.0000
  S   S167      1.0  0.02279  0.57271  0.90067  1.0000
  S   S168      1.0  0.11286  0.52832  0.91244  1.0000
  S   S169      1.0  0.06178  0.53464  0.93144  1.0000
  C   C573      1.0  0.09783  0.37725  0.96242  1.0000
  H   H691      1.0  0.11869  0.62724  0.75085  1.0000
  S   S170      1.0  0.19785  0.63576  0.77472  1.0000
  C   C574      1.0  0.19758  0.63932  0.86052  1.0000
  H   H692      1.0  0.18258  0.63305  0.86605  1.0000
  H   H693      1.0  0.05144  0.46419  0.85203  1.0000
  H   H694      1.0  0.10621  0.65082  0.76099  1.0000
  H   H695      1.0  0.17485  0.60957  0.81127  1.0000
  N   N39       1.0  0.21652  0.62241  0.85576  1.0000
  C   C575      1.0  0.13971  0.58268  0.84881  1.0000
  C   C576      1.0  0.13114  0.59759  0.86162  1.0000
  C   C577      1.0  0.13789  0.61707  0.85590  1.0000
  C   C578      1.0  0.15558  0.58707  0.83068  1.0000
  H   H696      1.0  0.11906  0.59427  0.87572  1.0000
  H   H697      1.0  0.13087  0.62872  0.86563  1.0000
  H   H698      1.0  0.16241  0.57547  0.82086  1.0000
  C   C579      1.0  0.09126  0.34445  0.95855  1.0000
  H   H699      1.0  0.14173  0.48606  0.93942  1.0000
  C   C580      1.0  0.12761  0.53735  0.96148  1.0000
  H   H700      1.0  0.03891  0.56261  0.96097  1.0000
  H   H701      1.0  0.02968  0.32730  0.96104  1.0000
  H   H702      1.0  0.05759  0.52629  0.98338  1.0000
  H   H703      1.0  0.15969  0.52009  0.96301  1.0000
  H   H704      1.0  0.12902  0.53647  0.94529  1.0000
  C   C581      1.0  0.09141  0.35310  0.93703  1.0000
  C   C582      1.0  0.15335  0.62165  0.83747  1.0000
  C   C583      1.0  0.09358  0.44520  0.87026  1.0000
  C   C584      1.0  0.08808  0.43476  0.89143  1.0000
  C   C585      1.0  0.08556  0.44536  0.90770  1.0000
  C   C586      1.0  0.08822  0.46644  0.90277  1.0000
  C   C587      1.0  0.09394  0.47673  0.88163  1.0000
  C   C588      1.0  0.09660  0.46612  0.86540  1.0000
  H   H705      1.0  0.08586  0.41856  0.89522  1.0000
  H   H706      1.0  0.08130  0.43735  0.92407  1.0000
  H   H707      1.0  0.09646  0.49281  0.87771  1.0000
  H   H708      1.0  0.10096  0.47417  0.84902  1.0000
  H   H709      1.0  0.04766  0.50009  0.97664  1.0000
  H   H710      1.0  0.01455  0.38727  0.94408  1.0000
  C   C589      1.0  0.01959  0.60136  0.94664  1.0000
  H   H711      1.0  0.19677  0.60479  0.84902  1.0000
  C   C590      1.0  0.23571  0.63184  0.84633  1.0000
  C   C591      1.0  0.00849  0.36945  0.85074  1.0000
  C   C592      1.0  0.27252  0.62357  0.74587  1.0000
  C   C593      1.0  0.05726  0.46665  0.97950  1.0000
  C   C594      1.0  0.01320  0.40670  0.96649  1.0000
  C   C595      1.0  0.34012  0.65449  0.77706  1.0000
  C   C596      1.0  0.00849  0.40242  0.94865  1.0000
  H   H712      1.0  0.02041  0.55952  0.94751  1.0000
  C   C597      1.0  0.12459  0.47875  0.98336  1.0000
  H   H713      1.0  0.10109  0.40167  0.93391  1.0000
  C   C598      1.0  0.09488  0.37376  0.92819  1.0000
  H   H714      1.0  0.01715  0.48866  0.84627  1.0000
  C   C599      1.0  0.04984  0.36316  0.80085  1.0000
  H   H715      1.0  0.04091  0.55591  0.86275  1.0000
  C   C600      1.0  0.03812  0.37182  0.97108  1.0000
  C   C601      1.0  0.99561  0.41787  0.93608  1.0000
  H   H716      1.0  0.05517  0.46753  0.96372  1.0000
  H   H717      1.0  0.01590  0.55187  0.97583  1.0000
  C   C602      1.0  0.01195  0.56152  0.88598  1.0000
  C   C603      1.0  0.11377  0.60113  0.79109  1.0000
  C   C604      1.0  0.10859  0.54790  0.97241  1.0000
  C   C605      1.0  0.02445  0.55441  0.86789  1.0000
  C   C606      1.0  0.11028  0.62659  0.81232  1.0000
  H   H718      1.0  0.00693  0.50018  0.87696  1.0000
  C   C607      1.0  0.00909  0.44062  0.87670  1.0000
  S   S171      1.0  0.25971  0.62518  0.77195  1.0000
  C   C608      1.0  0.02162  0.46667  0.88730  1.0000
  C   C609      1.0  0.16251  0.60643  0.82512  1.0000
  H   H719      1.0  0.04315  0.58254  0.98130  1.0000
  H   H720      1.0  0.22184  0.61454  0.88771  1.0000
  H   H721      1.0  0.05127  0.43787  0.86752  1.0000
  C   C610      1.0  0.01640  0.49550  0.90581  1.0000
  H   H722      1.0  0.20557  0.59923  0.88324  1.0000
  Fe  Fe89      1.0  0.18312  0.65563  0.79904  1.0000
  H   H723      1.0  0.30385  0.61348  0.75297  1.0000
  C   C611      1.0  0.01548  0.54582  0.85610  1.0000
  H   H724      1.0  0.11356  0.64042  0.81537  1.0000
  C   C612      1.0  0.32070  0.65621  0.75046  1.0000
  C   C613      1.0  0.04213  0.45129  0.85750  1.0000
  S   S172      1.0  0.10084  0.39303  0.97816  1.0000
  H   H725      1.0  0.24687  0.61833  0.81781  1.0000
  H   H726      1.0  0.04960  0.36109  0.98066  1.0000
  N   N40       1.0  0.02032  0.45872  0.86909  1.0000
  C   C614      1.0  0.14500  0.52820  0.97147  1.0000
  H   H727      1.0  0.16507  0.45400  0.95423  1.0000
  H   H728      1.0  0.22452  0.59711  0.83864  1.0000
  H   H729      1.0  0.00537  0.43096  0.98524  1.0000
  H   H730      1.0  0.04750  0.37592  0.95464  1.0000
  C   C615      1.0  0.24956  0.62818  0.82692  1.0000
  H   H731      1.0  0.14960  0.33317  0.87560  1.0000
  H   H732      1.0  0.02519  0.54040  0.84209  1.0000
  H   H733      1.0  0.13158  0.64946  0.74273  1.0000
  C   C616      1.0  0.09434  0.35658  0.97127  1.0000
  C   C617      1.0  0.01966  0.34837  0.85254  1.0000
  H   H734      1.0  0.04207  0.44551  0.84337  1.0000
  C   C618      1.0  0.09816  0.38579  0.94086  1.0000
  H   H735      1.0  0.01097  0.61788  0.94759  1.0000
  H   H736      1.0  0.01795  0.42653  0.88631  1.0000
  C   C619      1.0  0.07756  0.33002  0.78343  1.0000
  H   H737      1.0  0.03639  0.60008  0.94748  1.0000
  S   S173      1.0  0.08661  0.33830  0.92139  1.0000
  H   H738      1.0  0.03509  0.34393  0.85656  1.0000
  C   C620      1.0  0.27204  0.65076  0.82879  1.0000
  C   C621      1.0  0.13785  0.65006  0.77958  1.0000
  H   H739      1.0  0.08400  0.58685  0.84041  1.0000
  H   H740      1.0  0.03779  0.43618  0.90352  1.0000
  H   H741      1.0  0.09525  0.38041  0.91153  1.0000
  C   C622      1.0  0.07131  0.36383  0.79327  1.0000
  C   C623      1.0  0.99414  0.54390  0.86264  1.0000
  H   H742      1.0  0.16108  0.60951  0.78153  1.0000
  H   H743      1.0  0.07740  0.37700  0.79442  1.0000
  H   H744      1.0  0.23385  0.59411  0.87292  1.0000
  H   H745      1.0  0.02813  0.48719  0.93456  1.0000
  N   N41       1.0  0.13266  0.63175  0.77467  1.0000
  H   H746      1.0  0.99207  0.41431  0.92262  1.0000
  H   H747      1.0  0.02006  0.59905  0.93061  1.0000
  C   C624      1.0  0.24131  0.64486  0.85686  1.0000
  H   H748      1.0  0.15668  0.42890  0.96262  1.0000
  H   H749      1.0  0.11963  0.59513  0.77673  1.0000
  H   H750      1.0  0.00700  0.43488  0.86332  1.0000
  C   C625      1.0  0.01206  0.32864  0.90987  1.0000
  H   H751      1.0  0.03918  0.37591  0.80795  1.0000
  C   C626      1.0  0.03323  0.46004  0.92087  1.0000
  C   C627      1.0  0.09748  0.61494  0.82907  1.0000
  H   H752      1.0  0.10184  0.34794  0.77875  1.0000
  C   C628      1.0  0.33699  0.64596  0.76152  1.0000
  C   C629      1.0  0.02478  0.32810  0.94657  1.0000
  H   H753      1.0  0.08847  0.32849  0.96545  1.0000
  C   C630      1.0  0.02168  0.56398  0.96196  1.0000
  C   C631      1.0  0.29474  0.61789  0.74067  1.0000
  C   C632      1.0  0.21958  0.60692  0.87579  1.0000
  C   C633      1.0  0.09317  0.59629  0.82705  1.0000
  C   C634      1.0  0.00400  0.33790  0.94412  1.0000
  C   C635      1.0  0.21168  0.61105  0.84180  1.0000
  H   H754      1.0  0.14995  0.33338  0.84884  1.0000
  C   C636      1.0  0.12178  0.64015  0.75654  1.0000
  S   S174      1.0  0.07226  0.34605  0.86725  1.0000
  C   C637      1.0  0.11895  0.61993  0.79277  1.0000
  H   H755      1.0  0.12214  0.42638  0.96013  1.0000
  C   C638      1.0  0.99712  0.33878  0.92542  1.0000
  N   N42       1.0  0.13186  0.45623  0.95596  1.0000
  C   C639      1.0  0.15431  0.44490  0.95186  1.0000
  C   C640      1.0  0.11840  0.44341  0.95230  1.0000
  C   C641      1.0  0.12976  0.47675  0.94017  1.0000
  N   N43       1.0  0.02738  0.39109  0.97974  1.0000
  H   H756      1.0  0.09154  0.61993  0.84405  1.0000
  H   H757      1.0  0.05371  0.40704  0.96558  1.0000
  H   H758      1.0  0.20916  0.62184  0.82640  1.0000
  H   H759      1.0  0.35324  0.64684  0.78502  1.0000
  C   C642      1.0  0.26733  0.63767  0.81830  1.0000
  H   H760      1.0  0.23188  0.64800  0.87191  1.0000
  H   H761      1.0  0.15958  0.44244  0.93530  1.0000
  H   H762      1.0  0.04100  0.44920  0.93310  1.0000
  Fe  Fe90      1.0  0.22765  0.64664  0.77250  1.0000
  H   H763      1.0  0.12061  0.44346  0.93520  1.0000
  H   H764      1.0  0.10122  0.44969  0.95797  1.0000
  C   C643      1.0  0.01050  0.33277  0.84981  1.0000
  H   H765      1.0  0.13209  0.47445  0.92375  1.0000
  H   H766      1.0  0.11354  0.48667  0.94381  1.0000
  S   S175      1.0  0.12280  0.34530  0.81797  1.0000
  N   N44       1.0  0.00919  0.58559  0.96366  1.0000
  H   H767      1.0  0.02520  0.34666  0.80566  1.0000
  C   C644      1.0  0.15310  0.61737  0.76796  1.0000
  H   H768      1.0  0.02658  0.36222  0.97132  1.0000
  H   H769      1.0  0.99359  0.34432  0.95726  1.0000
  C   C645      1.0  0.08508  0.34741  0.78440  1.0000
  H   H770      1.0  0.01098  0.51221  0.90637  1.0000
  C   C646      1.0  0.10125  0.58942  0.80809  1.0000
  C   C647      1.0  0.00351  0.42695  0.97131  1.0000
  C   C648      1.0  0.05576  0.32878  0.79096  1.0000
  H   H771      1.0  0.34773  0.63164  0.75751  1.0000
  C   C649      1.0  0.25916  0.65419  0.84814  1.0000
  C   C650      1.0  0.02598  0.48141  0.92175  1.0000
  H   H772      1.0  0.12772  0.49275  0.97144  1.0000
  H   H773      1.0  0.99299  0.44525  0.88644  1.0000
  H   H774      1.0  0.09812  0.57469  0.80678  1.0000
  H   H775      1.0  0.16435  0.62612  0.75531  1.0000
  H   H776      1.0  0.14641  0.64482  0.79291  1.0000
  H   H777      1.0  0.99227  0.48136  0.86143  1.0000
  C   C651      1.0  0.12573  0.45909  0.97813  1.0000
  C   C652      1.0  0.04433  0.40092  0.98151  1.0000
  H   H778      1.0  0.15104  0.60463  0.76132  1.0000
  H   H779      1.0  0.00772  0.32777  0.89573  1.0000
  H   H780      1.0  0.06789  0.43263  0.98607  1.0000
  C   C653      1.0  0.01421  0.48833  0.88884  1.0000
  C   C654      1.0  0.00887  0.47506  0.85371  1.0000
  C   C655      1.0  0.00859  0.58949  0.98461  1.0000
  H   H781      1.0  0.09380  0.34997  0.98793  1.0000
  H   H782      1.0  0.01546  0.32551  0.78921  1.0000
  C   C656      1.0  0.05334  0.48529  0.98694  1.0000
  S   S176      1.0  0.16066  0.64662  0.83019  1.0000
  H   H783      1.0  0.19566  0.65216  0.84614  1.0000
  H   H784      1.0  0.19832  0.64683  0.87316  1.0000
  H   H785      1.0  0.41187  0.64471  0.74015  1.0000
  H   H786      1.0  0.38602  0.78067  0.01069  1.0000
  S   S177      1.0  0.21172  0.74645  0.21329  1.0000
  C   C657      1.0  0.40047  0.94292  0.00519  1.0000
  H   H787      1.0  0.28265  0.78857  0.22857  1.0000
  Fe  Fe91      1.0  0.18507  0.77172  0.20223  1.0000
  S   S178      1.0  0.18027  0.78150  0.16893  1.0000
  H   H788      1.0  0.17938  0.69201  0.21244  1.0000
  S   S179      1.0  0.24454  0.66186  0.10656  1.0000
  Fe  Fe92      1.0  0.34138  0.75809  0.08862  1.0000
  S   S180      1.0  0.35551  0.74369  0.11753  1.0000
  S   S181      1.0  0.35752  0.77644  0.05754  1.0000
  Fe  Fe93      1.0  0.32410  0.75882  0.13509  1.0000
  S   S182      1.0  0.32274  0.77727  0.15903  1.0000
  S   S183      1.0  0.31114  0.77545  0.10605  1.0000
  Fe  Fe94      1.0  0.29864  0.74588  0.11109  1.0000
  C   C658      1.0  0.34903  0.68824  0.17038  1.0000
  C   C659      1.0  0.26542  0.71761  0.18754  1.0000
  Fe  Fe95      1.0  0.46824  0.87009  0.02451  1.0000
  S   S184      1.0  0.44272  0.89788  0.01592  1.0000
  Fe  Fe96      1.0  0.43707  0.84118  0.04728  1.0000
  S   S185      1.0  0.40855  0.86658  0.04053  1.0000
  S   S186      1.0  0.43653  0.80764  0.06529  1.0000
  Fe  Fe97      1.0  0.42889  0.87446  0.00807  1.0000
  C   C660      1.0  0.25461  0.71939  0.17161  1.0000
  Fe  Fe98      1.0  0.42520  0.88755  0.04905  1.0000
  S   S187      1.0  0.40745  0.91289  0.06714  1.0000
  S   S188      1.0  0.45584  0.84728  0.01413  1.0000
  S   S189      1.0  0.45213  0.86142  0.05857  1.0000
  S   S190      1.0  0.35320  0.68209  0.13052  1.0000
  C   C661      1.0  0.14174  0.66856  0.20790  1.0000
  H   H789      1.0  0.28283  0.67843  0.09236  1.0000
  S   S191      1.0  0.14545  0.70976  0.15144  1.0000
  C   C662      1.0  0.27027  0.69028  0.09898  1.0000
  C   C663      1.0  0.42461  0.92607  0.07237  1.0000
  C   C664      1.0  0.41654  0.94590  0.07789  1.0000
  C   C665      1.0  0.43037  0.95754  0.08013  1.0000
  C   C666      1.0  0.45215  0.94889  0.07792  1.0000
  C   C667      1.0  0.46007  0.92861  0.07345  1.0000
  C   C668      1.0  0.44641  0.91746  0.07011  1.0000
  H   H790      1.0  0.39966  0.95255  0.07986  1.0000
  Fe  Fe99      1.0  0.21314  0.76917  0.23200  1.0000
  H   H791      1.0  0.25770  0.66460  0.15615  1.0000
  H   H792      1.0  0.45277  0.90216  0.06597  1.0000
  H   H793      1.0  0.12666  0.66392  0.21759  1.0000
  C   C669      1.0  0.27487  0.70926  0.10023  1.0000
  S   S192      1.0  0.46975  0.96344  0.08011  1.0000
  S   S193      1.0  0.24285  0.77713  0.23500  1.0000
  H   H794      1.0  0.32730  0.65864  0.12236  1.0000
  H   H795      1.0  0.28261  0.73265  0.21327  1.0000
  C   C670      1.0  0.35066  0.67371  0.15807  1.0000
  C   C671      1.0  0.38085  0.78370  0.05838  1.0000
  C   C672      1.0  0.38741  0.80143  0.04374  1.0000
  C   C673      1.0  0.40494  0.80855  0.04538  1.0000
  C   C674      1.0  0.41607  0.79778  0.06149  1.0000
  C   C675      1.0  0.41014  0.77948  0.07546  1.0000
  C   C676      1.0  0.39248  0.77255  0.07399  1.0000
  H   H796      1.0  0.37851  0.81017  0.03161  1.0000
  H   H797      1.0  0.40956  0.82258  0.03443  1.0000
  H   H798      1.0  0.41890  0.77093  0.08776  1.0000
  H   H799      1.0  0.38801  0.75846  0.08485  1.0000
  C   C677      1.0  0.28229  0.78392  0.21440  1.0000
  H   H800      1.0  0.22529  0.73300  0.12229  1.0000
  C   C678      1.0  0.23901  0.70759  0.17523  1.0000
  C   C679      1.0  0.17193  0.68316  0.20539  1.0000
  H   H801      1.0  0.35009  0.70458  0.16284  1.0000
  S   S194      1.0  0.30916  0.73062  0.14176  1.0000
  C   C680      1.0  0.17101  0.76170  0.16342  1.0000
  C   C681      1.0  0.18497  0.74281  0.15964  1.0000
  C   C682      1.0  0.17744  0.72698  0.15521  1.0000
  C   C683      1.0  0.15584  0.72986  0.15512  1.0000
  C   C684      1.0  0.14196  0.74880  0.15888  1.0000
  C   C685      1.0  0.14957  0.76479  0.16285  1.0000
  H   H802      1.0  0.20160  0.74059  0.15986  1.0000
  H   H803      1.0  0.18832  0.71263  0.15190  1.0000
  H   H804      1.0  0.12527  0.75108  0.15878  1.0000
  H   H805      1.0  0.13878  0.77944  0.16570  1.0000
  C   C686      1.0  0.26418  0.77784  0.21299  1.0000
  H   H806      1.0  0.13810  0.67940  0.19283  1.0000
  C   C687      1.0  0.30004  0.78384  0.19765  1.0000
  C   C688      1.0  0.29999  0.77731  0.17951  1.0000
  C   C689      1.0  0.28186  0.77127  0.17792  1.0000
  C   C690      1.0  0.26381  0.77178  0.19460  1.0000
  S   S195      1.0  0.19927  0.66787  0.15669  1.0000
  H   H807      1.0  0.31400  0.78853  0.19893  1.0000
  H   H808      1.0  0.28167  0.76656  0.16375  1.0000
  H   H809      1.0  0.24979  0.76722  0.19336  1.0000
  N   N45       1.0  0.35789  0.82261  0.10999  1.0000
  C   C691      1.0  0.37152  0.80217  0.11820  1.0000
  C   C692      1.0  0.33579  0.82231  0.12221  1.0000
  C   C693      1.0  0.35785  0.82379  0.08757  1.0000
  C   C694      1.0  0.36639  0.84060  0.11131  1.0000
  C   C695      1.0  0.38722  0.84322  0.10012  1.0000
  C   C696      1.0  0.35438  0.85614  0.12322  1.0000
  C   C697      1.0  0.39528  0.86053  0.10041  1.0000
  C   C698      1.0  0.36265  0.87341  0.12335  1.0000
  C   C699      1.0  0.38299  0.87567  0.11186  1.0000
  H   H810      1.0  0.37218  0.80079  0.13498  1.0000
  H   H811      1.0  0.36543  0.78824  0.11770  1.0000
  H   H812      1.0  0.38813  0.80033  0.10886  1.0000
  H   H813      1.0  0.33477  0.82022  0.13951  1.0000
  H   H814      1.0  0.32992  0.80874  0.12053  1.0000
  H   H815      1.0  0.32451  0.83702  0.11657  1.0000
  H   H816      1.0  0.37408  0.82261  0.07752  1.0000
  H   H817      1.0  0.35143  0.81058  0.08584  1.0000
  H   H818      1.0  0.34814  0.83912  0.08063  1.0000
  H   H819      1.0  0.39742  0.83200  0.09083  1.0000
  H   H820      1.0  0.33855  0.85539  0.13249  1.0000
  H   H821      1.0  0.41108  0.86242  0.09150  1.0000
  H   H822      1.0  0.35322  0.88526  0.13229  1.0000
  H   H823      1.0  0.38926  0.88926  0.11167  1.0000
  C   C700      1.0  0.24478  0.69217  0.21089  1.0000
  S   S196      1.0  0.18266  0.67260  0.11323  1.0000
  S   S197      1.0  0.26435  0.74812  0.11115  1.0000
  C   C701      1.0  0.23792  0.72104  0.11593  1.0000
  H   H824      1.0  0.21727  0.69930  0.12045  1.0000
  H   H825      1.0  0.29088  0.71204  0.09442  1.0000
  C   C702      1.0  0.25874  0.72460  0.10882  1.0000
  H   H826      1.0  0.42412  0.97305  0.08396  1.0000
  H   H827      1.0  0.27766  0.72678  0.18386  1.0000
  C   C703      1.0  0.26058  0.70421  0.20784  1.0000
  H   H828      1.0  0.44421  0.96601  0.99574  1.0000
  H   H829      1.0  0.36180  0.81188  0.99844  1.0000
  H   H830      1.0  0.17000  0.69238  0.18926  1.0000
  Fe  Fe100     1.0  0.33929  0.71686  0.12135  1.0000
  H   H831      1.0  0.47618  0.97747  0.00940  1.0000
  C   C704      1.0  0.23415  0.69395  0.19481  1.0000
  H   H832      1.0  0.30291  0.70043  0.20287  1.0000
  C   C705      1.0  0.12382  0.73731  0.21681  1.0000
  H   H833      1.0  0.42325  0.83848  0.99684  1.0000
  H   H834      1.0  0.48712  0.81327  0.05763  1.0000
  H   H835      1.0  0.34603  0.78257  0.01796  1.0000
  S   S198      1.0  0.32759  0.72988  0.09090  1.0000
  H   H836      1.0  0.34554  0.69273  0.20190  1.0000
  H   H837      1.0  0.25850  0.72980  0.15625  1.0000
  C   C706      1.0  0.23338  0.70191  0.11499  1.0000
  N   N46       1.0  0.41068  0.97671  0.00685  1.0000
  C   C707      1.0  0.48808  0.96456  0.00376  1.0000
  H   H838      1.0  0.22194  0.68482  0.19768  1.0000
  C   C708      1.0  0.38726  0.77434  0.99652  1.0000
  H   H839      1.0  0.25598  0.73371  0.22917  1.0000
  N   N47       1.0  0.23515  0.80182  0.13617  1.0000
  C   C709      1.0  0.23365  0.77968  0.14751  1.0000
  C   C710      1.0  0.21360  0.81416  0.13360  1.0000
  C   C711      1.0  0.24819  0.80109  0.11455  1.0000
  C   C712      1.0  0.24405  0.81139  0.14865  1.0000
  C   C713      1.0  0.26468  0.81637  0.14183  1.0000
  C   C714      1.0  0.23245  0.81484  0.16893  1.0000
  C   C715      1.0  0.27296  0.82438  0.15459  1.0000
  C   C716      1.0  0.24084  0.82292  0.18150  1.0000
  C   C717      1.0  0.26107  0.82763  0.17436  1.0000
  H   H840      1.0  0.22386  0.77881  0.16382  1.0000
  H   H841      1.0  0.22628  0.77200  0.13913  1.0000
  H   H842      1.0  0.24965  0.76974  0.14891  1.0000
  H   H843      1.0  0.20209  0.81437  0.14892  1.0000
  H   H844      1.0  0.20647  0.80713  0.12441  1.0000
  H   H845      1.0  0.21405  0.83097  0.12535  1.0000
  H   H846      1.0  0.26410  0.79058  0.11509  1.0000
  H   H847      1.0  0.24075  0.79416  0.10554  1.0000
  H   H848      1.0  0.25024  0.81721  0.10516  1.0000
  H   H849      1.0  0.27499  0.81364  0.12700  1.0000
  H   H850      1.0  0.21706  0.81059  0.17559  1.0000
  H   H851      1.0  0.28900  0.82729  0.14951  1.0000
  H   H852      1.0  0.23193  0.82469  0.19723  1.0000
  H   H853      1.0  0.26783  0.83313  0.18450  1.0000
  H   H854      1.0  0.39051  0.75675  0.00180  1.0000
  H   H855      1.0  0.48373  0.94300  0.03406  1.0000
  C   C718      1.0  0.40455  0.96368  0.99553  1.0000
  C   C719      1.0  0.41154  0.96636  0.02928  1.0000
  C   C720      1.0  0.29461  0.69154  0.21803  1.0000
  C   C721      1.0  0.34648  0.68152  0.19245  1.0000
  C   C722      1.0  0.34448  0.66055  0.20233  1.0000
  S   S199      1.0  0.18888  0.79548  0.21823  1.0000
  H   H856      1.0  0.29547  0.67540  0.21575  1.0000
  H   H857      1.0  0.23073  0.70895  0.16281  1.0000
  Fe  Fe101     1.0  0.16871  0.67999  0.14531  1.0000
  H   H858      1.0  0.30931  0.67785  0.14940  1.0000
  H   H859      1.0  0.39275  0.91488  0.00126  1.0000
  C   C723      1.0  0.34949  0.77553  0.00380  1.0000
  H   H860      1.0  0.40117  0.93555  0.02155  1.0000
  C   C724      1.0  0.39551  0.93079  0.99372  1.0000
  C   C725      1.0  0.13603  0.69846  0.22388  1.0000
  N   N48       1.0  0.15127  0.67894  0.21909  1.0000
  C   C726      1.0  0.24959  0.68645  0.10663  1.0000
  H   H861      1.0  0.27706  0.66223  0.18578  1.0000
  H   H862      1.0  0.47688  0.92172  0.07204  1.0000
  H   H863      1.0  0.28117  0.68728  0.15299  1.0000
  C   C727      1.0  0.43212  0.98104  0.99604  1.0000
  H   H864      1.0  0.42360  0.95123  0.03057  1.0000
  N   N49       1.0  0.27233  0.70249  0.22443  1.0000
  H   H865      1.0  0.30407  0.68965  0.23016  1.0000
  H   H866      1.0  0.35246  0.75801  0.00987  1.0000
  H   H867      1.0  0.29548  0.67958  0.12899  1.0000
  H   H868      1.0  0.18352  0.66814  0.20312  1.0000
  H   H869      1.0  0.48750  0.80483  0.02519  1.0000
  C   C728      1.0  0.29453  0.67543  0.14635  1.0000
  C   C729      1.0  0.27240  0.72392  0.22697  1.0000
  C   C730      1.0  0.13919  0.71925  0.21294  1.0000
  H   H870      1.0  0.12653  0.75295  0.20796  1.0000
  H   H871      1.0  0.24020  0.68134  0.22561  1.0000
  H   H872      1.0  0.41606  0.97665  0.03736  1.0000
  H   H873      1.0  0.15332  0.72205  0.20111  1.0000
  S   S200      1.0  0.15953  0.75980  0.22836  1.0000
  H   H874      1.0  0.39584  0.96287  0.03865  1.0000
  H   H875      1.0  0.33479  0.78018  0.99724  1.0000
  H   H876      1.0  0.09326  0.74944  0.23467  1.0000
  H   H877      1.0  0.41947  0.65959  0.22235  1.0000
  H   H878      1.0  0.43732  0.99089  0.00407  1.0000
  C   C731      1.0  0.10507  0.73534  0.23179  1.0000
  C   C732      1.0  0.11659  0.69703  0.23885  1.0000
  C   C733      1.0  0.15597  0.66380  0.23889  1.0000
  H   H879      1.0  0.49111  0.87569  0.05472  1.0000
  H   H880      1.0  0.11522  0.77490  0.25608  1.0000
  C   C734      1.0  0.20294  0.68374  0.26292  1.0000
  C   C735      1.0  0.03133  0.94925  0.38686  1.0000
  C   C736      1.0  0.07534  0.77625  0.30067  1.0000
  C   C737      1.0  0.01720  0.95727  0.40425  1.0000
  Fe  Fe102     1.0  0.07115  0.85073  0.40549  1.0000
  S   S201      1.0  0.10545  0.84080  0.39023  1.0000
  S   S202      1.0  0.05579  0.84776  0.44003  1.0000
  Fe  Fe103     1.0  0.05776  0.87126  0.36357  1.0000
  S   S203      1.0  0.09077  0.86375  0.34439  1.0000
  S   S204      1.0  0.02914  0.89074  0.35057  1.0000
  Fe  Fe104     1.0  0.09260  0.83178  0.36671  1.0000
  S   S205      1.0  0.10794  0.80072  0.35672  1.0000
  Fe  Fe105     1.0  0.10093  0.87329  0.36926  1.0000
  S   S206      1.0  0.12545  0.89361  0.35946  1.0000
  S   S207      1.0  0.05862  0.83845  0.38407  1.0000
  S   S208      1.0  0.06770  0.88400  0.38631  1.0000
  H   H881      1.0  0.10504  0.89025  0.40371  1.0000
  C   C738      1.0  0.01422  0.87395  0.34743  1.0000
  C   C739      1.0  0.02320  0.85253  0.34741  1.0000
  C   C740      1.0  0.21148  0.66388  0.25752  1.0000
  H   H882      1.0  0.14778  0.89128  0.48352  1.0000
  C   C741      1.0  0.13020  0.78471  0.32185  1.0000
  H   H883      1.0  0.07099  0.92620  0.38674  1.0000
  H   H884      1.0  0.03960  0.84630  0.34866  1.0000
  H   H885      1.0  0.12085  0.73642  0.27198  1.0000
  C   C742      1.0  0.11604  0.92062  0.46987  1.0000
  H   H886      1.0  0.16951  0.93105  0.38998  1.0000
  N   N50       1.0  0.05160  0.95646  0.37626  1.0000
  C   C743      1.0  0.06278  0.78842  0.33363  1.0000
  C   C744      1.0  0.07256  0.85107  0.45479  1.0000
  C   C745      1.0  0.09323  0.85395  0.44501  1.0000
  C   C746      1.0  0.10666  0.85630  0.45685  1.0000
  H   H887      1.0  0.17919  0.80306  0.27319  1.0000
  H   H888      1.0  0.10859  0.92725  0.48429  1.0000
  H   H889      1.0  0.09905  0.85402  0.42840  1.0000
  H   H890      1.0  0.12282  0.85786  0.44928  1.0000
  C   C747      1.0  0.12971  0.80392  0.28561  1.0000
  C   C748      1.0  0.10978  0.90548  0.39769  1.0000
  C   C749      1.0  0.10864  0.82010  0.31495  1.0000
  C   C750      1.0  0.11616  0.80203  0.32934  1.0000
  C   C751      1.0  0.12075  0.91075  0.37671  1.0000
  H   H891      1.0  0.09730  0.83321  0.32055  1.0000
  H   H892      1.0  0.13577  0.93439  0.35293  1.0000
  H   H893      1.0  0.05183  0.80048  0.34226  1.0000
  H   H894      1.0  0.20954  0.84135  0.30856  1.0000
  H   H895      1.0  0.03374  0.92880  0.36527  1.0000
  H   H896      1.0  0.01775  0.82252  0.34579  1.0000
  H   H897      1.0  0.06129  0.96222  0.44658  1.0000
  H   H898      1.0  0.03406  0.78681  0.29906  1.0000
  H   H899      1.0  0.13700  0.86879  0.32633  1.0000
  C   C752      1.0  0.99311  0.88192  0.34526  1.0000
  H   H900      1.0  0.20285  0.70395  0.28323  1.0000
  H   H901      1.0  0.99564  0.96919  0.32390  1.0000
  H   H902      1.0  0.06696  0.93032  0.36021  1.0000
  H   H903      1.0  0.01650  0.91162  0.29060  1.0000
  H   H904      1.0  0.07926  0.79015  0.33247  1.0000
  H   H905      1.0  0.09765  0.72292  0.30593  1.0000
  C   C753      1.0  0.10804  0.74734  0.27979  1.0000
  C   C754      1.0  0.04344  0.93710  0.45828  1.0000
  C   C755      1.0  0.99885  0.90596  0.48047  1.0000
  H   H906      1.0  0.21753  0.80392  0.26341  1.0000
  H   H907      1.0  0.00895  0.87834  0.39252  1.0000
  C   C756      1.0  0.17222  0.82172  0.29687  1.0000
  H   H908      1.0  0.13592  0.77059  0.33296  1.0000
  H   H909      1.0  0.14800  0.77233  0.29420  1.0000
  C   C757      1.0  0.14044  0.94406  0.46121  1.0000
  C   C758      1.0  0.22475  0.67388  0.28934  1.0000
  H   H910      1.0  0.18219  0.86865  0.32019  1.0000
  H   H911      1.0  0.05785  0.92497  0.45786  1.0000
  H   H912      1.0  0.02064  0.96875  0.41091  1.0000
  C   C759      1.0  0.17995  0.83306  0.30743  1.0000
  S   S209      1.0  0.13812  0.80616  0.25821  1.0000
  H   H913      1.0  0.15568  0.82071  0.30075  1.0000
  H   H914      1.0  0.11355  0.90404  0.47371  1.0000
  C   C760      1.0  0.11539  0.82104  0.29313  1.0000
  C   C761      1.0  0.02308  0.93157  0.46535  1.0000
  H   H915      1.0  0.15727  0.94605  0.45624  1.0000
  C   C762      1.0  0.15610  0.82789  0.34177  1.0000
  H   H916      1.0  0.02929  0.99113  0.44692  1.0000
  H   H917      1.0  0.08786  0.79997  0.27338  1.0000
  H   H918      1.0  0.05357  0.81688  0.28551  1.0000
  H   H919      1.0  0.07238  0.81887  0.29980  1.0000
  H   H920      1.0  0.04922  0.84869  0.48410  1.0000
  H   H921      1.0  0.14145  0.88241  0.45576  1.0000
  C   C763      1.0  0.01011  0.87211  0.40940  1.0000
  C   C764      1.0  0.09499  0.73981  0.29890  1.0000
  S   S210      1.0  0.18372  0.70181  0.24983  1.0000
  C   C765      1.0  0.20718  0.81198  0.27558  1.0000
  H   H922      1.0  0.04837  0.89694  0.44992  1.0000
  C   C766      1.0  0.06914  0.93825  0.37188  1.0000
  C   C767      1.0  0.14755  0.85918  0.31487  1.0000
  C   C768      1.0  0.20209  0.83327  0.30142  1.0000
  C   C769      1.0  0.16324  0.89975  0.40429  1.0000
  C   C770      1.0  0.16376  0.92042  0.40460  1.0000
  C   C771      1.0  0.04559  0.95836  0.45175  1.0000
  N   N51       1.0  0.16519  0.84389  0.32391  1.0000
  C   C772      1.0  0.20960  0.68875  0.27882  1.0000
  H   H923      1.0  0.15379  0.87047  0.30035  1.0000
  H   H924      1.0  0.04451  0.82436  0.31053  1.0000
  C   C773      1.0  0.02760  0.97467  0.45190  1.0000
  N   N52       1.0  0.05855  0.79094  0.31229  1.0000
  H   H925      1.0  0.06927  0.74740  0.32410  1.0000
  H   H926      1.0  0.00901  0.93639  0.31346  1.0000
  C   C774      1.0  0.15604  0.92781  0.42342  1.0000
  C   C775      1.0  0.00474  0.92897  0.38805  1.0000
  C   C776      1.0  0.03089  0.89781  0.45502  1.0000
  C   C777      1.0  0.09925  0.85655  0.47838  1.0000
  C   C778      1.0  0.00511  0.94859  0.46499  1.0000
  C   C779      1.0  0.02434  0.93505  0.37890  1.0000
  H   H927      1.0  0.24623  0.69819  0.25095  1.0000
  H   H928      1.0  0.99696  0.86301  0.45091  1.0000
  H   H929      1.0  0.15622  0.94424  0.42227  1.0000
  C   C780      1.0  0.06512  0.85121  0.47638  1.0000
  N   N53       1.0  0.13886  0.92180  0.46284  1.0000
  C   C781      1.0  0.03744  0.78587  0.31476  1.0000
  H   H930      1.0  0.18823  0.84527  0.34077  1.0000
  C   C782      1.0  0.10484  0.76902  0.27082  1.0000
  H   H931      1.0  0.13112  0.95549  0.44977  1.0000
  Fe  Fe106     1.0  0.16525  0.78161  0.24560  1.0000
  H   H932      1.0  0.04789  0.98304  0.39058  1.0000
  H   H933      1.0  0.16882  0.81579  0.34877  1.0000
  H   H934      1.0  0.23228  0.82305  0.28130  1.0000
  H   H935      1.0  0.00846  0.88585  0.41651  1.0000
  C   C783      1.0  0.11074  0.93983  0.40310  1.0000
  H   H936      1.0  0.09657  0.91576  0.42719  1.0000
  C   C784      1.0  0.08884  0.78337  0.28104  1.0000
  C   C785      1.0  0.05858  0.96745  0.38909  1.0000
  N   N54       1.0  0.02120  0.90897  0.47271  1.0000
  H   H937      1.0  0.10962  0.83513  0.28201  1.0000
  H   H938      1.0  0.15467  0.87023  0.42255  1.0000
  H   H939      1.0  0.02371  0.90589  0.44093  1.0000
  H   H940      1.0  0.03534  0.98491  0.35831  1.0000
  H   H941      1.0  0.04568  0.96349  0.34466  1.0000
  H   H942      1.0  0.08464  0.94336  0.36483  1.0000
  H   H943      1.0  0.06101  0.77261  0.34400  1.0000
  H   H944      1.0  0.16135  0.67166  0.24870  1.0000
  H   H945      1.0  0.14680  0.81912  0.33681  1.0000
  H   H946      1.0  0.07462  0.97117  0.38164  1.0000
  H   H947      1.0  0.02643  0.86265  0.40991  1.0000
  H   H948      1.0  0.02427  0.79712  0.32274  1.0000
  C   C786      1.0  0.21542  0.82281  0.28571  1.0000
  C   C787      1.0  0.17546  0.85594  0.33274  1.0000
  H   H949      1.0  0.10705  0.92976  0.45736  1.0000
  H   H950      1.0  0.16859  0.89434  0.38952  1.0000
  H   H951      1.0  0.20625  0.65985  0.24535  1.0000
  C   C788      1.0  0.12719  0.93032  0.36912  1.0000
  C   C789      1.0  0.15529  0.88624  0.42288  1.0000
  C   C790      1.0  0.07882  0.75398  0.30920  1.0000
  C   C791      1.0  0.05728  0.81371  0.30148  1.0000
  C   C792      1.0  0.10497  0.91994  0.41095  1.0000
  H   H952      1.0  0.22970  0.67769  0.30180  1.0000
  C   C793      1.0  0.04889  0.97136  0.35587  1.0000
  H   H953      1.0  0.02861  0.88107  0.45964  1.0000
  C   C794      1.0  0.18561  0.81146  0.28114  1.0000
  H   H954      1.0  0.14502  0.83538  0.35462  1.0000
  H   H955      1.0  0.08673  0.71372  0.25431  1.0000
  C   C795      1.0  0.99682  0.85052  0.44289  1.0000
  S   S211      1.0  0.18989  0.75693  0.26114  1.0000
  C   C796      1.0  0.12193  0.94497  0.38222  1.0000
  C   C797      1.0  0.13706  0.78567  0.29996  1.0000
  H   H956      1.0  0.12690  0.96007  0.37624  1.0000
  H   H957      1.0  0.13707  0.85114  0.31056  1.0000
  C   C798      1.0  0.14768  0.91446  0.44268  1.0000
  S   S212      1.0  0.10364  0.95820  0.41947  1.0000
  H   H958      1.0  0.16769  0.90736  0.47438  1.0000
  H   H959      1.0  0.99869  0.94594  0.34524  1.0000
  H   H960      1.0  0.16385  0.86403  0.34493  1.0000
  H   H961      1.0  0.27886  0.72324  0.24095  1.0000
  H   H962      1.0  0.03624  0.76967  0.32448  1.0000
  H   H963      1.0  0.01383  0.83028  0.41204  1.0000
  C   C799      1.0  0.14768  0.89340  0.44181  1.0000
  H   H964      1.0  0.27181  0.69001  0.25794  1.0000
  C   C800      1.0  0.01101  0.83915  0.34537  1.0000
  C   C801      1.0  0.00740  0.96976  0.45845  1.0000
  H   H965      1.0  0.05963  0.95744  0.40517  1.0000
  H   H966      1.0  0.13390  0.94899  0.47669  1.0000
  H   H967      1.0  0.11277  0.68178  0.24727  1.0000
  C   C802      1.0  0.99759  0.95115  0.41319  1.0000
  H   H968      1.0  0.99981  0.91816  0.38158  1.0000
  H   H969      1.0  0.01231  0.83914  0.44367  1.0000
  C   C803      1.0  0.00010  0.91787  0.29738  1.0000
  C   C804      1.0  0.07834  0.85431  0.48812  1.0000
  N   N55       1.0  0.99385  0.85916  0.42074  1.0000
  Fe  Fe107     1.0  0.18641  0.73621  0.24115  1.0000
  H   H970      1.0  0.26388  0.67374  0.24569  1.0000
  H   H971      1.0  0.99796  0.88885  0.48664  1.0000
  H   H972      1.0  0.99810  0.84589  0.39337  1.0000
  C   C805      1.0  0.99800  0.84073  0.41066  1.0000
  C   C806      1.0  0.99550  0.93222  0.31065  1.0000
  C   C807      1.0  0.15026  0.90792  0.47951  1.0000
  H   H973      1.0  0.99329  0.98237  0.45857  1.0000
  H   H974      1.0  0.05006  0.89725  0.48523  1.0000
  H   H975      1.0  0.06328  0.97832  0.34786  1.0000
  C   C808      1.0  0.26310  0.69059  0.24560  1.0000
  C   C809      1.0  0.10146  0.71523  0.24285  1.0000
  H   H976      1.0  0.12059  0.97300  0.61069  1.0000
  C   C810      1.0  0.99495  0.98664  0.57146  1.0000
  H   H977      1.0  0.30511  0.67828  0.71347  1.0000
  S   S213      1.0  0.17596  0.66494  0.72472  1.0000
  S   S214      1.0  0.37083  0.69381  0.62410  1.0000
  Fe  Fe108     1.0  0.21949  0.74805  0.63414  1.0000
  S   S215      1.0  0.20000  0.77552  0.64834  1.0000
  S   S216      1.0  0.20424  0.72179  0.63392  1.0000
  Fe  Fe109     1.0  0.25976  0.76617  0.62023  1.0000
  S   S217      1.0  0.24388  0.79505  0.63365  1.0000
  S   S218      1.0  0.29275  0.76498  0.60058  1.0000
  Fe  Fe110     1.0  0.22908  0.77200  0.66108  1.0000
  S   S219      1.0  0.22726  0.76968  0.69532  1.0000
  Fe  Fe111     1.0  0.21666  0.79570  0.61939  1.0000
  S   S220      1.0  0.20281  0.82515  0.59764  1.0000
  S   S221      1.0  0.24744  0.74289  0.64895  1.0000
  S   S222      1.0  0.23372  0.76838  0.60390  1.0000
  H   H978      1.0  0.19808  0.70052  0.71131  1.0000
  S   S223      1.0  0.07837  0.90577  0.51589  1.0000
  Fe  Fe112     1.0  0.09611  0.87156  0.56712  1.0000
  S   S224      1.0  0.07470  0.90382  0.56621  1.0000
  S   S225      1.0  0.10475  0.85322  0.59833  1.0000
  Fe  Fe113     1.0  0.05828  0.89313  0.54690  1.0000
  S   S226      1.0  0.02325  0.90469  0.54892  1.0000
  Fe  Fe114     1.0  0.09660  0.91381  0.53536  1.0000
  S   S227      1.0  0.10942  0.94392  0.52288  1.0000
  S   S228      1.0  0.07764  0.85985  0.55033  1.0000
  S   S229      1.0  0.11948  0.88260  0.53774  1.0000
  H   H979      1.0  0.07260  0.85426  0.50482  1.0000
  H   H980      1.0  0.19115  0.81306  0.71679  1.0000
  H   H981      1.0  0.18299  0.78923  0.59316  1.0000
  H   H982      1.0  0.13511  0.76629  0.62457  1.0000
  C   C811      1.0  0.10428  0.96054  0.54081  1.0000
  C   C812      1.0  0.09272  0.95511  0.56149  1.0000
  C   C813      1.0  0.08797  0.96898  0.57530  1.0000
  C   C814      1.0  0.03254  0.89874  0.49040  1.0000
  C   C815      1.0  0.28354  0.78588  0.70986  1.0000
  H   H983      1.0  0.08755  0.98344  0.49528  1.0000
  H   H984      1.0  0.08720  0.94037  0.56686  1.0000
  H   H985      1.0  0.07902  0.96470  0.59130  1.0000
  C   C816      1.0  0.11913  0.81009  0.57140  1.0000
  H   H986      1.0  0.39366  0.71800  0.69647  1.0000
  C   C817      1.0  0.01018  0.88613  0.54624  1.0000
  H   H987      1.0  0.04750  0.96463  0.56620  1.0000
  C   C818      1.0  0.31181  0.69622  0.59290  1.0000
  H   H988      1.0  0.28157  0.75897  0.73607  1.0000
  C   C819      1.0  0.00482  0.85003  0.55299  1.0000
  C   C820      1.0  0.01675  0.86430  0.55382  1.0000
  H   H989      1.0  0.21847  0.80359  0.71696  1.0000
  C   C821      1.0  0.12825  0.81098  0.55001  1.0000
  H   H990      1.0  0.00955  0.83317  0.55930  1.0000
  H   H991      1.0  0.03056  0.85845  0.56095  1.0000
  C   C822      1.0  0.17556  0.83018  0.59811  1.0000
  C   C823      1.0  0.16065  0.82754  0.61723  1.0000
  C   C824      1.0  0.13881  0.83402  0.61716  1.0000
  C   C825      1.0  0.13193  0.84279  0.59799  1.0000
  C   C826      1.0  0.14689  0.84418  0.57888  1.0000
  C   C827      1.0  0.16865  0.83825  0.57896  1.0000
  H   H992      1.0  0.16597  0.82133  0.63207  1.0000
  H   H993      1.0  0.12727  0.83276  0.63200  1.0000
  H   H994      1.0  0.14178  0.85003  0.56402  1.0000
  H   H995      1.0  0.18019  0.84003  0.56414  1.0000
  C   C828      1.0  0.19626  0.70665  0.65948  1.0000
  H   H996      1.0  0.38290  0.70493  0.67031  1.0000
  Fe  Fe115     1.0  0.36678  0.66337  0.64743  1.0000
  H   H997      1.0  0.24213  0.67233  0.66406  1.0000
  H   H998      1.0  0.25157  0.71247  0.61582  1.0000
  C   C829      1.0  0.34799  0.71156  0.61733  1.0000
  C   C830      1.0  0.35046  0.72697  0.59853  1.0000
  C   C831      1.0  0.33313  0.74283  0.59340  1.0000
  C   C832      1.0  0.31323  0.74354  0.60711  1.0000
  C   C833      1.0  0.31047  0.72787  0.62580  1.0000
  C   C834      1.0  0.32793  0.71175  0.63090  1.0000
  H   H999      1.0  0.36596  0.72689  0.58808  1.0000
  H   H1000     1.0  0.33529  0.75490  0.57895  1.0000
  H   H1001     1.0  0.29507  0.72838  0.63636  1.0000
  H   H1002     1.0  0.32605  0.69990  0.64551  1.0000
  C   C835      1.0  0.18574  0.69024  0.66181  1.0000
  C   C836      1.0  0.25864  0.79230  0.68688  1.0000
  C   C837      1.0  0.14208  0.97360  0.58055  1.0000
  H   H1003     1.0  0.06422  0.96356  0.51493  1.0000
  C   C838      1.0  0.28191  0.67774  0.65832  1.0000
  C   C839      1.0  0.18330  0.77235  0.59362  1.0000
  H   H1004     1.0  0.25192  0.80196  0.67350  1.0000
  H   H1005     1.0  0.12008  0.82172  0.53795  1.0000
  H   H1006     1.0  0.30688  0.75796  0.67961  1.0000
  H   H1007     1.0  0.35493  0.67634  0.71681  1.0000
  H   H1008     1.0  0.17220  0.74286  0.58071  1.0000
  N   N56       1.0  0.16147  0.76841  0.59765  1.0000
  H   H1009     1.0  0.32880  0.69243  0.58660  1.0000
  C   C840      1.0  0.03276  0.97597  0.56947  1.0000
  H   H1010     1.0  0.14691  0.74270  0.59877  1.0000
  C   C841      1.0  0.19475  0.69752  0.69753  1.0000
  C   C842      1.0  0.03457  0.95767  0.51404  1.0000
  H   H1011     1.0  0.17118  0.73452  0.60854  1.0000
  H   H1012     1.0  0.12184  0.79711  0.60323  1.0000
  C   C843      1.0  0.17955  0.67765  0.68191  1.0000
  H   H1013     1.0  0.17367  0.77442  0.55426  1.0000
  C   C844      1.0  0.31324  0.75820  0.66242  1.0000
  H   H1014     1.0  0.27676  0.68743  0.71671  1.0000
  C   C845      1.0  0.15856  0.78427  0.55963  1.0000
  C   C846      1.0  0.01430  0.96620  0.50985  1.0000
  N   N57       1.0  0.33269  0.76731  0.65461  1.0000
  C   C847      1.0  0.25005  0.77492  0.69965  1.0000
  C   C848      1.0  0.32689  0.78975  0.65694  1.0000
  C   C849      1.0  0.34016  0.76786  0.63156  1.0000
  C   C850      1.0  0.34921  0.75395  0.66643  1.0000
  C   C851      1.0  0.35932  0.73326  0.66290  1.0000
  C   C852      1.0  0.35501  0.76046  0.68237  1.0000
  C   C853      1.0  0.37529  0.72059  0.67347  1.0000
  C   C854      1.0  0.37091  0.74755  0.69298  1.0000
  C   C855      1.0  0.38132  0.72789  0.68821  1.0000
  C   C856      1.0  0.27523  0.79790  0.69212  1.0000
  H   H1015     1.0  0.15492  0.79876  0.52746  1.0000
  H   H1016     1.0  0.14969  0.78677  0.62190  1.0000
  H   H1017     1.0  0.31915  0.79106  0.67347  1.0000
  H   H1018     1.0  0.31517  0.79964  0.64716  1.0000
  H   H1019     1.0  0.34112  0.79717  0.65213  1.0000
  H   H1020     1.0  0.34280  0.75208  0.62785  1.0000
  H   H1021     1.0  0.32825  0.77831  0.62222  1.0000
  H   H1022     1.0  0.35540  0.77358  0.62526  1.0000
  H   H1023     1.0  0.35499  0.72653  0.65202  1.0000
  H   H1024     1.0  0.34740  0.77534  0.68713  1.0000
  C   C857      1.0  0.00831  0.98800  0.50227  1.0000
  C   C858      1.0  0.24843  0.68265  0.64875  1.0000
  H   H1025     1.0  0.37506  0.75266  0.70520  1.0000
  C   C859      1.0  0.13026  0.96362  0.59929  1.0000
  C   C860      1.0  0.14989  0.78323  0.58159  1.0000
  Fe  Fe116     1.0  0.09937  0.87359  0.52087  1.0000
  C   C861      1.0  0.12972  0.79654  0.58703  1.0000
  C   C862      1.0  0.26837  0.70716  0.61002  1.0000
  C   C863      1.0  0.18409  0.68116  0.69981  1.0000
  H   H1026     1.0  0.20872  0.72311  0.67576  1.0000
  H   H1027     1.0  0.31639  0.74157  0.66041  1.0000
  C   C864      1.0  0.36742  0.67654  0.72428  1.0000
  H   H1028     1.0  0.12019  0.98422  0.51807  1.0000
  H   H1029     1.0  0.16059  0.75938  0.63139  1.0000
  C   C865      1.0  0.14792  0.79806  0.54414  1.0000
  H   H1030     1.0  0.19338  0.76858  0.57850  1.0000
  H   H1031     1.0  0.27531  0.66860  0.67420  1.0000
  H   H1032     1.0  0.28144  0.81173  0.68256  1.0000
  C   C866      1.0  0.30278  0.68390  0.61197  1.0000
  C   C867      1.0  0.16299  0.74619  0.59632  1.0000
  H   H1033     1.0  0.14458  0.91362  0.49463  1.0000
  H   H1034     1.0  0.10387  0.82027  0.57597  1.0000
  H   H1035     1.0  0.27946  0.69462  0.65939  1.0000
  H   H1036     1.0  0.02706  0.90801  0.50309  1.0000
  H   H1037     1.0  0.26812  0.73367  0.58312  1.0000
  H   H1038     1.0  0.30039  0.76752  0.65377  1.0000
  H   H1039     1.0  0.03903  0.94074  0.52018  1.0000
  C   C868      1.0  0.15115  0.77040  0.61979  1.0000
  H   H1040     1.0  0.19186  0.76231  0.60622  1.0000
  N   N58       1.0  0.14192  0.90676  0.59088  1.0000
  C   C869      1.0  0.12800  0.89814  0.61104  1.0000
  C   C870      1.0  0.13426  0.90351  0.57331  1.0000
  C   C871      1.0  0.16382  0.89406  0.59088  1.0000
  C   C872      1.0  0.14198  0.92961  0.58781  1.0000
  C   C873      1.0  0.15402  0.94027  0.56897  1.0000
  C   C874      1.0  0.13011  0.94196  0.60298  1.0000
  C   C875      1.0  0.15394  0.96195  0.56542  1.0000
  H   H1041     1.0  0.00307  0.95594  0.51275  1.0000
  H   H1042     1.0  0.31336  0.67071  0.61979  1.0000
  H   H1043     1.0  0.11107  0.90645  0.61176  1.0000
  H   H1044     1.0  0.12821  0.88097  0.61275  1.0000
  H   H1045     1.0  0.13330  0.89925  0.62509  1.0000
  H   H1046     1.0  0.13267  0.88678  0.57578  1.0000
  H   H1047     1.0  0.14512  0.90716  0.55767  1.0000
  H   H1048     1.0  0.11836  0.91371  0.57201  1.0000
  H   H1049     1.0  0.17052  0.89673  0.60334  1.0000
  H   H1050     1.0  0.16427  0.87667  0.59398  1.0000
  H   H1051     1.0  0.17493  0.89797  0.57545  1.0000
  H   H1052     1.0  0.16336  0.93197  0.55669  1.0000
  H   H1053     1.0  0.12028  0.93544  0.61768  1.0000
  H   H1054     1.0  0.30647  0.72401  0.56816  1.0000
  H   H1055     1.0  0.14154  0.99055  0.57753  1.0000
  C   C876      1.0  0.20336  0.81130  0.72612  1.0000
  C   C877      1.0  0.29927  0.71400  0.58249  1.0000
  C   C878      1.0  0.25845  0.76282  0.71723  1.0000
  H   H1056     1.0  0.18233  0.68723  0.64807  1.0000
  C   C879      1.0  0.27526  0.76821  0.72233  1.0000
  H   H1057     1.0  0.18632  0.77808  0.73502  1.0000
  H   H1058     1.0  0.16281  0.96991  0.55069  1.0000
  H   H1059     1.0  0.24397  0.69909  0.65150  1.0000
  S   S230      1.0  0.30441  0.79315  0.71587  1.0000
  H   H1060     1.0  0.20478  0.82750  0.72635  1.0000
  C   C880      1.0  0.20071  0.71037  0.67737  1.0000
  C   C881      1.0  0.27763  0.71944  0.59102  1.0000
  C   C882      1.0  0.11116  0.97991  0.53402  1.0000
  H   H1061     1.0  0.25178  0.74932  0.72690  1.0000
  C   C883      1.0  0.28076  0.68897  0.62114  1.0000
  C   C884      1.0  0.04889  0.97091  0.51085  1.0000
  H   H1062     1.0  0.17134  0.66504  0.68357  1.0000
  C   C885      1.0  0.36716  0.69468  0.73139  1.0000
  C   C886      1.0  0.01402  0.97240  0.56674  1.0000
  H   H1063     1.0  0.29935  0.67132  0.65517  1.0000
  H   H1064     1.0  0.01426  0.95857  0.56099  1.0000
  N   N59       1.0  0.27180  0.67602  0.64171  1.0000
  H   H1065     1.0  0.23970  0.68184  0.63697  1.0000
  H   H1066     1.0  0.02981  0.88230  0.49785  1.0000
  H   H1067     1.0  0.28695  0.66165  0.73039  1.0000
  C   C887      1.0  0.09436  0.98858  0.56836  1.0000
  H   H1068     1.0  0.23838  0.80993  0.73577  1.0000
  H   H1069     1.0  0.35468  0.70857  0.72898  1.0000
  H   H1070     1.0  0.28001  0.71817  0.72448  1.0000
  C   C888      1.0  0.39951  0.65871  0.73744  1.0000
  C   C889      1.0  0.28973  0.67816  0.72517  1.0000
  H   H1071     1.0  0.30766  0.71099  0.72609  1.0000
  S   S231      1.0  0.34468  0.66045  0.67928  1.0000
  C   C890      1.0  0.29126  0.70955  0.73514  1.0000
  S   S232      1.0  0.11647  0.85950  0.49279  1.0000
  H   H1072     1.0  0.06746  0.99017  0.53058  1.0000
  C   C891      1.0  0.38349  0.65843  0.72759  1.0000
  H   H1073     1.0  0.99508  0.90297  0.60623  1.0000
  C   C892      1.0  0.99212  0.89357  0.53737  1.0000
  H   H1074     1.0  0.99270  0.89074  0.58675  1.0000
  Fe  Fe117     1.0  0.41770  0.81283  0.90838  1.0000
  S   S233      1.0  0.43809  0.83451  0.88581  1.0000
  S   S234      1.0  0.41733  0.80411  0.94329  1.0000
  Fe  Fe118     1.0  0.40385  0.80239  0.87351  1.0000
  S   S235      1.0  0.42347  0.82287  0.84734  1.0000
  S   S236      1.0  0.38469  0.77989  0.87131  1.0000
  Fe  Fe119     1.0  0.44884  0.80963  0.86643  1.0000
  H   H1075     1.0  0.19631  0.77844  0.78982  1.0000
  Fe  Fe120     1.0  0.41147  0.84653  0.86839  1.0000
  S   S237      1.0  0.40576  0.88147  0.85353  1.0000
  S   S238      1.0  0.43067  0.78673  0.89057  1.0000
  S   S239      1.0  0.38953  0.82730  0.89307  1.0000
  Fe  Fe121     1.0  0.33552  0.77593  0.78004  1.0000
  S   S240      1.0  0.34233  0.74062  0.79239  1.0000
  S   S241      1.0  0.34572  0.80120  0.78949  1.0000
  H   H1076     1.0  0.39016  0.79491  0.77321  1.0000
  S   S242      1.0  0.32188  0.73701  0.75351  1.0000
  H   H1077     1.0  0.37707  0.81271  0.97216  1.0000
  Fe  Fe122     1.0  0.31010  0.74196  0.78685  1.0000
  S   S243      1.0  0.28852  0.72143  0.81015  1.0000
  Fe  Fe123     1.0  0.35349  0.73861  0.75822  1.0000
  H   H1078     1.0  0.25517  0.78789  0.79619  1.0000
  S   S244      1.0  0.30207  0.77766  0.77752  1.0000
  C   C893      1.0  0.47904  0.84157  0.94634  1.0000
  C   C894      1.0  0.38465  0.97415  0.85797  1.0000
  N   N60       1.0  0.41041  0.76393  0.77422  1.0000
  C   C895      1.0  0.19655  0.77710  0.74615  1.0000
  S   S245      1.0  0.21030  0.72444  0.77199  1.0000
  H   H1079     1.0  0.47323  0.87919  0.84067  1.0000
  C   C896      1.0  0.42035  0.76707  0.79025  1.0000
  C   C897      1.0  0.45762  0.92846  0.96487  1.0000
  C   C898      1.0  0.44602  0.78267  0.79873  1.0000
  C   C899      1.0  0.42359  0.76250  0.82702  1.0000
  H   H1080     1.0  0.26294  0.66438  0.85626  1.0000
  H   H1081     1.0  0.47797  0.92210  0.98706  1.0000
  N   N61       1.0  0.46915  0.90789  0.91437  1.0000
  H   H1082     1.0  0.17036  0.79919  0.77365  1.0000
  C   C900      1.0  0.39319  0.75162  0.78347  1.0000
  C   C901      1.0  0.21393  0.79576  0.76082  1.0000
  H   H1083     1.0  0.44819  0.89311  0.90567  1.0000
  S   S246      1.0  0.44052  0.97720  0.86735  1.0000
  H   H1084     1.0  0.44228  0.78579  0.76738  1.0000
  C   C902      1.0  0.41407  0.84652  0.94009  1.0000
  S   S247      1.0  0.34938  0.77374  0.74621  1.0000
  H   H1085     1.0  0.28726  0.71845  0.74799  1.0000
  C   C903      1.0  0.45097  0.89699  0.91979  1.0000
  Fe  Fe124     1.0  0.31655  0.77261  0.74457  1.0000
  N   N62       1.0  0.36775  0.78266  0.98763  1.0000
  H   H1086     1.0  0.41224  0.87973  0.93780  1.0000
  H   H1087     1.0  0.39667  0.96559  0.94625  1.0000
  C   C904      1.0  0.17684  0.80901  0.75817  1.0000
  H   H1088     1.0  0.45933  0.81680  0.93357  1.0000
  C   C905      1.0  0.21023  0.78535  0.78255  1.0000
  H   H1089     1.0  0.18995  0.76740  0.76165  1.0000
  H   H1090     1.0  0.41951  0.74890  0.74746  1.0000
  C   C906      1.0  0.48303  0.85217  0.95986  1.0000
  H   H1091     1.0  0.46741  0.84836  0.90770  1.0000
  C   C907      1.0  0.26584  0.72316  0.80066  1.0000
  C   C908      1.0  0.25236  0.70873  0.81066  1.0000
  C   C909      1.0  0.23503  0.70912  0.80216  1.0000
  C   C910      1.0  0.23095  0.72427  0.78389  1.0000
  C   C911      1.0  0.24388  0.73928  0.77460  1.0000
  C   C912      1.0  0.26153  0.73849  0.78269  1.0000
  H   H1092     1.0  0.25547  0.69714  0.82481  1.0000
  C   C913      1.0  0.46449  0.92815  0.89887  1.0000
  H   H1093     1.0  0.24031  0.75154  0.76108  1.0000
  H   H1094     1.0  0.27167  0.74991  0.77514  1.0000
  S   S248      1.0  0.40389  0.94165  0.91276  1.0000
  H   H1095     1.0  0.26750  0.69203  0.77247  1.0000
  H   H1096     1.0  0.37988  0.75995  0.79420  1.0000
  H   H1097     1.0  0.46988  0.86156  0.96907  1.0000
  C   C914      1.0  0.37152  0.77951  0.93040  1.0000
  C   C915      1.0  0.47652  0.91983  0.97210  1.0000
  H   H1098     1.0  0.46326  0.84573  0.84140  1.0000
  C   C916      1.0  0.40681  0.89709  0.87039  1.0000
  C   C917      1.0  0.41725  0.91426  0.86225  1.0000
  C   C918      1.0  0.41722  0.92755  0.87536  1.0000
  C   C919      1.0  0.40603  0.92420  0.89641  1.0000
  C   C920      1.0  0.39560  0.90705  0.90449  1.0000
  C   C921      1.0  0.39632  0.89326  0.89164  1.0000
  H   H1099     1.0  0.42544  0.91718  0.84581  1.0000
  H   H1100     1.0  0.42546  0.94059  0.86899  1.0000
  H   H1101     1.0  0.38660  0.90461  0.92065  1.0000
  H   H1102     1.0  0.38807  0.88013  0.89793  1.0000
  C   C922      1.0  0.37350  0.78616  0.84877  1.0000
  C   C923      1.0  0.37574  0.80478  0.83337  1.0000
  C   C924      1.0  0.36690  0.80931  0.81538  1.0000
  C   C925      1.0  0.35595  0.79519  0.81261  1.0000
  C   C926      1.0  0.35376  0.77651  0.82798  1.0000
  C   C927      1.0  0.36250  0.77204  0.84605  1.0000
  H   H1103     1.0  0.38417  0.81575  0.83536  1.0000
  H   H1104     1.0  0.36859  0.82380  0.80355  1.0000
  H   H1105     1.0  0.34519  0.76563  0.82604  1.0000
  H   H1106     1.0  0.36070  0.75763  0.85796  1.0000
  H   H1107     1.0  0.29987  0.69739  0.77597  1.0000
  H   H1108     1.0  0.45347  0.88212  0.93201  1.0000
  H   H1109     1.0  0.41124  0.84892  0.92435  1.0000
  H   H1110     1.0  0.42256  0.80743  0.98346  1.0000
  C   C928      1.0  0.41453  0.86397  0.94770  1.0000
  H   H1111     1.0  0.12337  0.66221  0.78365  1.0000
  Fe  Fe125     1.0  0.20520  0.69199  0.77349  1.0000
  Fe  Fe126     1.0  0.19046  0.66629  0.75103  1.0000
  C   C929      1.0  0.42026  0.82322  0.97347  1.0000
  H   H1112     1.0  0.32895  0.67973  0.79416  1.0000
  C   C930      1.0  0.37538  0.75763  0.93221  1.0000
  C   C931      1.0  0.31003  0.68317  0.77137  1.0000
  N   N63       1.0  0.36196  0.97245  0.86362  1.0000
  Fe  Fe127     1.0  0.41845  0.97059  0.89874  1.0000
  H   H1113     1.0  0.39448  0.96370  0.84706  1.0000
  C   C932      1.0  0.43940  0.77448  0.82027  1.0000
  H   H1114     1.0  0.48482  0.89083  0.88950  1.0000
  C   C933      1.0  0.37430  0.75218  0.96969  1.0000
  C   C934      1.0  0.42669  0.75222  0.75925  1.0000
  H   H1115     1.0  0.44635  0.77761  0.83181  1.0000
  Fe  Fe128     1.0  0.45830  0.98946  0.88419  1.0000
  H   H1116     1.0  0.37049  0.78996  0.91503  1.0000
  C   C935      1.0  0.24371  0.79026  0.78643  1.0000
  C   C936      1.0  0.40103  0.78494  0.76221  1.0000
  H   H1117     1.0  0.46260  0.84305  0.94579  1.0000
  S   S249      1.0  0.17317  0.68544  0.77559  1.0000
  H   H1118     1.0  0.36528  0.94440  0.88879  1.0000
  H   H1119     1.0  0.47998  0.83270  0.88835  1.0000
  C   C937      1.0  0.39436  0.93886  0.97250  1.0000
  C   C938      1.0  0.41700  0.82613  0.95296  1.0000
  C   C939      1.0  0.22485  0.78284  0.79515  1.0000
  H   H1120     1.0  0.47720  0.93749  0.89528  1.0000
  C   C940      1.0  0.48453  0.86429  0.84333  1.0000
  C   C941      1.0  0.37047  0.77444  0.96839  1.0000
  C   C942      1.0  0.41404  0.75888  0.81236  1.0000
  C   C943      1.0  0.39785  0.95927  0.96270  1.0000
  H   H1121     1.0  0.37550  0.74096  0.98455  1.0000
  H   H1122     1.0  0.26635  0.66915  0.76413  1.0000
  H   H1123     1.0  0.39149  0.78340  0.75148  1.0000
  N   N64       1.0  0.19806  0.79835  0.74790  1.0000
  H   H1124     1.0  0.16484  0.81212  0.74824  1.0000
  C   C944      1.0  0.43675  0.77897  0.78388  1.0000
  S   S250      1.0  0.43789  0.97990  0.91623  1.0000
  H   H1125     1.0  0.39177  0.96957  0.87223  1.0000
  H   H1126     1.0  0.34385  0.94763  0.87580  1.0000
  H   H1127     1.0  0.41256  0.67733  0.75072  1.0000
  C   C945      1.0  0.48797  0.89417  0.90369  1.0000
  H   H1128     1.0  0.38616  0.74947  0.77101  1.0000
  H   H1129     1.0  0.45821  0.79215  0.79360  1.0000
  H   H1130     1.0  0.43576  0.90683  0.92652  1.0000
  H   H1131     1.0  0.33378  0.98433  0.88523  1.0000
  C   C946      1.0  0.35339  0.97573  0.80871  1.0000
  H   H1132     1.0  0.39911  0.73534  0.79229  1.0000
  H   H1133     1.0  0.22191  0.77444  0.81160  1.0000
  S   S251      1.0  0.22171  0.67545  0.74670  1.0000
  C   C947      1.0  0.26876  0.68584  0.75829  1.0000
  H   H1134     1.0  0.17764  0.82447  0.76103  1.0000
  S   S252      1.0  0.38506  0.71809  0.74793  1.0000
  C   C948      1.0  0.36362  0.80626  0.98370  1.0000
  H   H1135     1.0  0.44022  0.93132  0.94142  1.0000
  H   H1136     1.0  0.43448  0.73661  0.76787  1.0000
  H   H1137     1.0  0.39085  0.92921  0.96359  1.0000
  H   H1138     1.0  0.37097  0.93878  0.86322  1.0000
  H   H1139     1.0  0.46309  0.92543  0.88362  1.0000
  C   C949      1.0  0.41797  0.86113  0.96807  1.0000
  H   H1140     1.0  0.35793  0.97874  0.89466  1.0000
  C   C950      1.0  0.35099  0.98493  0.88018  1.0000
  C   C951      1.0  0.47886  0.84531  0.84380  1.0000
  H   H1141     1.0  0.41324  0.79410  0.75220  1.0000
  H   H1142     1.0  0.35992  0.96709  0.79608  1.0000
  C   C952      1.0  0.36043  0.94990  0.87319  1.0000
  H   H1143     1.0  0.37739  0.75137  0.91826  1.0000
  S   S253      1.0  0.48405  0.80211  0.85311  1.0000
  H   H1144     1.0  0.22475  0.69789  0.80987  1.0000
  H   H1145     1.0  0.36684  0.80502  0.94531  1.0000
  C   C953      1.0  0.47312  0.96286  0.81526  1.0000
  C   C954      1.0  0.37678  0.74397  0.95182  1.0000
  C   C955      1.0  0.47221  0.91233  0.93378  1.0000
  H   H1146     1.0  0.41824  0.75644  0.84384  1.0000
  H   H1147     1.0  0.47223  0.79962  0.91610  1.0000
  C   C956      1.0  0.36921  0.78792  0.94810  1.0000
  H   H1148     1.0  0.40570  0.98721  0.96548  1.0000
  H   H1149     1.0  0.43935  0.76120  0.75010  1.0000
  C   C957      1.0  0.36119  0.96883  0.82741  1.0000
  C   C958      1.0  0.45541  0.92475  0.94606  1.0000
  H   H1150     1.0  0.37985  0.72693  0.95312  1.0000
  H   H1151     1.0  0.44921  0.93831  0.90479  1.0000
  H   H1152     1.0  0.40142  0.75004  0.81887  1.0000
  C   C959      1.0  0.46520  0.98430  0.81555  1.0000
  S   S254      1.0  0.21375  0.66391  0.79895  1.0000
  H   H1153     1.0  0.37381  0.95485  0.82856  1.0000
  C   C960      1.0  0.30683  0.67536  0.75492  1.0000
  C   C961      1.0  0.38360  0.69508  0.74072  1.0000
  S   S255      1.0  0.41936  0.88321  0.97669  1.0000
  H   H1154     1.0  0.21249  0.76779  0.74019  1.0000
  C   C962      1.0  0.47515  0.80752  0.92752  1.0000
  C   C963      1.0  0.35304  0.97985  0.84422  1.0000
  C   C964      1.0  0.32656  0.67300  0.78208  1.0000
  C   C965      1.0  0.48285  0.83871  0.90107  1.0000
  H   H1155     1.0  0.40146  0.77878  0.98454  1.0000
  C   C966      1.0  0.24817  0.79996  0.76501  1.0000
  H   H1156     1.0  0.48010  0.79492  0.94102  1.0000
  C   C967      1.0  0.40294  0.97152  0.97394  1.0000
  N   N65       1.0  0.28954  0.68690  0.74344  1.0000
  H   H1157     1.0  0.34876  0.81363  0.97761  1.0000
  H   H1158     1.0  0.46276  0.95327  0.81398  1.0000
  H   H1159     1.0  0.26323  0.80506  0.75808  1.0000
  H   H1160     1.0  0.44432  0.93749  0.97420  1.0000
  H   H1161     1.0  0.38649  0.99073  0.84998  1.0000
  C   C968      1.0  0.39983  0.67712  0.74354  1.0000
  H   H1162     1.0  0.25524  0.69549  0.75078  1.0000
  C   C969      1.0  0.23359  0.80270  0.75229  1.0000
  C   C970      1.0  0.42077  0.84074  0.98102  1.0000
  H   H1163     1.0  0.43260  0.98992  0.97939  1.0000
  N   N66       1.0  0.49131  0.82099  0.91738  1.0000
  H   H1164     1.0  0.14835  0.65845  0.76579  1.0000
  H   H1165     1.0  0.28566  0.65832  0.82187  1.0000
  C   C971      1.0  0.84280  0.12812  0.13545  1.0000
  S   S256      1.0  0.70169  0.29265  0.23599  1.0000
  C   C972      1.0  0.70212  0.07429  0.18886  1.0000
  C   C973      1.0  0.81240  0.12366  0.12327  1.0000
  H   H1166     1.0  0.65691  0.10673  0.15714  1.0000
  H   H1167     1.0  0.78588  0.32136  0.14228  1.0000
  H   H1168     1.0  0.71214  0.06679  0.21848  1.0000
  H   H1169     1.0  0.85702  0.26978  0.02493  1.0000
  C   C974      1.0  0.68401  0.11307  0.04777  1.0000
  H   H1170     1.0  0.87398  0.13598  0.15969  1.0000
  H   H1171     1.0  0.85031  0.12452  0.14933  1.0000
  Fe  Fe129     1.0  0.81455  0.25568  0.12500  1.0000
  S   S257      1.0  0.84712  0.25615  0.12814  1.0000
  S   S258      1.0  0.78639  0.28121  0.13291  1.0000
  Fe  Fe130     1.0  0.82827  0.21372  0.11156  1.0000
  S   S259      1.0  0.86232  0.21031  0.11302  1.0000
  S   S260      1.0  0.81672  0.18703  0.10655  1.0000
  Fe  Fe131     1.0  0.84875  0.22168  0.14323  1.0000
  S   S261      1.0  0.86156  0.20728  0.17270  1.0000
  Fe  Fe132     1.0  0.85789  0.24508  0.09755  1.0000
  S   S262      1.0  0.88427  0.25718  0.07194  1.0000
  S   S263      1.0  0.81506  0.22218  0.14322  1.0000
  S   S264      1.0  0.82498  0.24749  0.09297  1.0000
  H   H1172     1.0  0.68159  0.15121  0.07398  1.0000
  C   C975      1.0  0.79338  0.11630  0.12624  1.0000
  C   C976      1.0  0.69083  0.12549  0.05753  1.0000
  H   H1173     1.0  0.52810  0.09667  0.08355  1.0000
  S   S265      1.0  0.67802  0.26395  0.20746  1.0000
  C   C977      1.0  0.82018  0.13510  0.10260  1.0000
  H   H1174     1.0  0.64402  0.15861  0.07149  1.0000
  C   C978      1.0  0.50983  0.08611  0.11447  1.0000
  H   H1175     1.0  0.81496  0.12990  0.17141  1.0000
  C   C979      1.0  0.91483  0.30494  0.06337  1.0000
  Fe  Fe133     1.0  0.70312  0.18210  0.13140  1.0000
  S   S266      1.0  0.66805  0.18466  0.14429  1.0000
  S   S267      1.0  0.71741  0.21028  0.11242  1.0000
  Fe  Fe134     1.0  0.71365  0.13600  0.15326  1.0000
  S   S268      1.0  0.67965  0.13427  0.16839  1.0000
  S   S269      1.0  0.74145  0.10939  0.15877  1.0000
  Fe  Fe135     1.0  0.67316  0.15264  0.13648  1.0000
  S   S270      1.0  0.64854  0.14604  0.12258  1.0000
  Fe  Fe136     1.0  0.67755  0.16619  0.17480  1.0000
  S   S271      1.0  0.66325  0.17422  0.20669  1.0000
  S   S272      1.0  0.70758  0.15177  0.12068  1.0000
  S   S273      1.0  0.71217  0.16617  0.16263  1.0000
  Fe  Fe137     1.0  0.63964  0.04421  0.09212  1.0000
  S   S274      1.0  0.62085  0.02030  0.11382  1.0000
  S   S275      1.0  0.66410  0.05520  0.10241  1.0000
  Fe  Fe138     1.0  0.62489  0.04272  0.05331  1.0000
  S   S276      1.0  0.60520  0.01842  0.07140  1.0000
  C   C980      1.0  0.79047  0.13196  0.08983  1.0000
  Fe  Fe139     1.0  0.59486  0.03777  0.09626  1.0000
  S   S277      1.0  0.56049  0.04083  0.11273  1.0000
  H   H1176     1.0  0.90194  0.25522  0.16421  1.0000
  S   S278      1.0  0.61227  0.06373  0.07701  1.0000
  S   S279      1.0  0.65349  0.02490  0.06705  1.0000
  H   H1177     1.0  0.91001  0.27768  0.11313  1.0000
  C   C981      1.0  0.55262  0.05334  0.07278  1.0000
  C   C982      1.0  0.54507  0.04444  0.09401  1.0000
  H   H1178     1.0  0.56791  0.05801  0.06794  1.0000
  C   C983      1.0  0.65341  0.12143  0.11540  1.0000
  C   C984      1.0  0.63670  0.11486  0.11138  1.0000
  C   C985      1.0  0.63989  0.09475  0.10678  1.0000
  C   C986      1.0  0.65986  0.08121  0.10612  1.0000
  C   C987      1.0  0.67671  0.08802  0.10958  1.0000
  C   C988      1.0  0.67348  0.10803  0.11435  1.0000
  H   H1179     1.0  0.62115  0.12521  0.11219  1.0000
  H   H1180     1.0  0.62681  0.08957  0.10421  1.0000
  H   H1181     1.0  0.69221  0.07759  0.10901  1.0000
  H   H1182     1.0  0.68646  0.11304  0.11734  1.0000
  C   C989      1.0  0.67387  0.23898  0.20752  1.0000
  H   H1183     1.0  0.73640  0.19656  0.22694  1.0000
  C   C990      1.0  0.74941  0.09799  0.22673  1.0000
  C   C991      1.0  0.66728  0.19916  0.20698  1.0000
  C   C992      1.0  0.67237  0.21370  0.18796  1.0000
  C   C993      1.0  0.67526  0.23373  0.18825  1.0000
  C   C994      1.0  0.62637  0.07506  0.19410  1.0000
  S   S280      1.0  0.79745  0.12743  0.23573  1.0000
  H   H1184     1.0  0.67362  0.20972  0.17300  1.0000
  H   H1185     1.0  0.67867  0.24509  0.17349  1.0000
  C   C995      1.0  0.78928  0.19365  0.10712  1.0000
  C   C996      1.0  0.77708  0.17797  0.11606  1.0000
  C   C997      1.0  0.75510  0.18297  0.11725  1.0000
  C   C998      1.0  0.74513  0.20377  0.10954  1.0000
  C   C999      1.0  0.75730  0.21950  0.10027  1.0000
  C   C1000     1.0  0.77939  0.21447  0.09915  1.0000
  H   H1186     1.0  0.78448  0.16196  0.12235  1.0000
  H   H1187     1.0  0.74591  0.17065  0.12413  1.0000
  H   H1188     1.0  0.74962  0.23561  0.09419  1.0000
  H   H1189     1.0  0.78872  0.22667  0.09212  1.0000
  C   C1001     1.0  0.77964  0.27829  0.16049  1.0000
  C   C1002     1.0  0.75998  0.28902  0.17008  1.0000
  C   C1003     1.0  0.75488  0.28720  0.19211  1.0000
  C   C1004     1.0  0.76975  0.27528  0.20441  1.0000
  C   C1005     1.0  0.78946  0.26474  0.19476  1.0000
  C   C1006     1.0  0.79423  0.26588  0.17289  1.0000
  H   H1190     1.0  0.74864  0.29861  0.16052  1.0000
  H   H1191     1.0  0.54058  0.00191  0.05849  1.0000
  H   H1192     1.0  0.80089  0.25531  0.20429  1.0000
  H   H1193     1.0  0.80941  0.25745  0.16566  1.0000
  H   H1194     1.0  0.88307  0.24154  0.16161  1.0000
  C   C1007     1.0  0.84817  0.17225  0.20000  1.0000
  C   C1008     1.0  0.85939  0.18049  0.17990  1.0000
  C   C1009     1.0  0.86842  0.16743  0.16529  1.0000
  H   H1195     1.0  0.83411  0.14198  0.09886  1.0000
  H   H1196     1.0  0.84129  0.18229  0.21140  1.0000
  H   H1197     1.0  0.87095  0.32215  0.09863  1.0000
  H   H1198     1.0  0.71777  0.07621  0.17945  1.0000
  H   H1199     1.0  0.62266  0.10715  0.05249  1.0000
  C   C1010     1.0  0.65522  0.14617  0.06435  1.0000
  H   H1200     1.0  0.69571  0.10027  0.04186  1.0000
  C   C1011     1.0  0.87667  0.29333  0.08744  1.0000
  C   C1012     1.0  0.89077  0.28017  0.07451  1.0000
  H   H1201     1.0  0.52330  0.08219  0.12209  1.0000
  H   H1202     1.0  0.95699  0.22594  0.14000  1.0000
  H   H1203     1.0  0.84207  0.30149  0.14807  1.0000
  H   H1204     1.0  0.86157  0.28943  0.09615  1.0000
  C   C1013     1.0  0.95192  0.24156  0.13071  1.0000
  C   C1014     1.0  0.66027  0.08061  0.04761  1.0000
  H   H1205     1.0  0.73105  0.14828  0.21517  1.0000
  Fe  Fe140     1.0  0.69069  0.26382  0.23545  1.0000
  H   H1206     1.0  0.65227  0.07897  0.06458  1.0000
  H   H1207     1.0  0.77778  0.09134  0.17796  1.0000
  H   H1208     1.0  0.87739  0.17364  0.14986  1.0000
  H   H1209     1.0  0.61359  0.07783  0.18514  1.0000
  H   H1210     1.0  0.84009  0.29581  0.02390  1.0000
  H   H1211     1.0  0.81506  0.14865  0.07084  1.0000
  N   N67       1.0  0.74456  0.22669  0.16693  1.0000
  C   C1015     1.0  0.73201  0.21206  0.16498  1.0000
  C   C1016     1.0  0.72910  0.24531  0.17379  1.0000
  C   C1017     1.0  0.75722  0.23436  0.14574  1.0000
  C   C1018     1.0  0.75926  0.21560  0.18154  1.0000
  C   C1019     1.0  0.76110  0.22441  0.19798  1.0000
  C   C1020     1.0  0.77324  0.19597  0.17880  1.0000
  C   C1021     1.0  0.77522  0.21366  0.21144  1.0000
  C   C1022     1.0  0.78740  0.18540  0.19230  1.0000
  C   C1023     1.0  0.78823  0.19414  0.20872  1.0000
  H   H1212     1.0  0.72258  0.20549  0.18065  1.0000
  H   H1213     1.0  0.72052  0.22029  0.15439  1.0000
  H   H1214     1.0  0.74203  0.19867  0.15772  1.0000
  H   H1215     1.0  0.71982  0.24072  0.19017  1.0000
  H   H1216     1.0  0.71736  0.25252  0.16335  1.0000
  H   H1217     1.0  0.73705  0.25828  0.17321  1.0000
  H   H1218     1.0  0.76677  0.24551  0.14643  1.0000
  H   H1219     1.0  0.76858  0.22108  0.13926  1.0000
  H   H1220     1.0  0.74693  0.24282  0.13408  1.0000
  H   H1221     1.0  0.75201  0.23974  0.20065  1.0000
  H   H1222     1.0  0.77380  0.18897  0.16578  1.0000
  C   C1024     1.0  0.72921  0.10593  0.22191  1.0000
  H   H1223     1.0  0.79820  0.17060  0.18976  1.0000
  C   C1025     1.0  0.69896  0.06897  0.21086  1.0000
  Fe  Fe141     1.0  0.63249  0.00259  0.08765  1.0000
  C   C1026     1.0  0.80927  0.13918  0.08622  1.0000
  H   H1224     1.0  0.78623  0.10790  0.14154  1.0000
  C   C1027     1.0  0.91003  0.28582  0.06278  1.0000
  H   H1225     1.0  0.81969  0.29515  0.14275  1.0000
  Fe  Fe142     1.0  0.82877  0.10526  0.22876  1.0000
  H   H1226     1.0  0.76769  0.11522  0.11281  1.0000
  H   H1227     1.0  0.84024  0.14573  0.12955  1.0000
  H   H1228     1.0  0.67751  0.07425  0.04714  1.0000
  H   H1229     1.0  0.61691  0.30215  0.21924  1.0000
  C   C1028     1.0  0.64817  0.13381  0.05469  1.0000
  C   C1029     1.0  0.96269  0.27373  0.10810  1.0000
  N   N68       1.0  0.64665  0.07956  0.17972  1.0000
  C   C1030     1.0  0.63242  0.10871  0.03606  1.0000
  H   H1230     1.0  0.64723  0.32411  0.22743  1.0000
  C   C1031     1.0  0.66565  0.20451  0.22630  1.0000
  C   C1032     1.0  0.62318  0.02119  0.01087  1.0000
  H   H1231     1.0  0.79933  0.18600  0.21907  1.0000
  C   C1033     1.0  0.49548  0.09853  0.08257  1.0000
  N   N69       1.0  0.65555  0.10306  0.03609  1.0000
  H   H1232     1.0  0.56045  0.00977  0.06648  1.0000
  H   H1233     1.0  0.93224  0.20602  0.14409  1.0000
  C   C1034     1.0  0.66242  0.11677  0.04612  1.0000
  H   H1234     1.0  0.63914  0.06880  0.15521  1.0000
  C   C1035     1.0  0.54008  0.05693  0.05785  1.0000
  C   C1036     1.0  0.90444  0.23352  0.12293  1.0000
  H   H1235     1.0  0.56065  0.03825  0.00191  1.0000
  C   C1037     1.0  0.66931  0.22428  0.22655  1.0000
  H   H1236     1.0  0.89696  0.24834  0.11299  1.0000
  H   H1237     1.0  0.78176  0.13565  0.07727  1.0000
  H   H1238     1.0  0.89678  0.28124  0.02666  1.0000
  H   H1239     1.0  0.89630  0.26664  0.00837  1.0000
  C   C1038     1.0  0.72226  0.19057  0.23741  1.0000
  H   H1240     1.0  0.63141  0.13769  0.05459  1.0000
  H   H1241     1.0  0.97501  0.28285  0.10016  1.0000
  H   H1242     1.0  0.90666  0.20867  0.16117  1.0000
  H   H1243     1.0  0.93790  0.29810  0.09613  1.0000
  C   C1039     1.0  0.92015  0.21705  0.15322  1.0000
  H   H1244     1.0  0.63177  0.26980  0.23511  1.0000
  H   H1245     1.0  0.50902  0.02932  0.99721  1.0000
  C   C1040     1.0  0.94179  0.28227  0.10581  1.0000
  C   C1041     1.0  0.64265  0.10227  0.16880  1.0000
  H   H1246     1.0  0.54577  0.06437  0.04153  1.0000
  H   H1247     1.0  0.62406  0.01419  0.02723  1.0000
  H   H1248     1.0  0.71404  0.17397  0.20852  1.0000
  C   C1042     1.0  0.92588  0.27049  0.11578  1.0000
  H   H1249     1.0  0.53761  0.05642  0.99448  1.0000
  S   S281      1.0  0.62692  0.05847  0.01862  1.0000
  H   H1250     1.0  0.85879  0.28631  0.04108  1.0000
  C   C1043     1.0  0.88179  0.31212  0.08850  1.0000
  N   N70       1.0  0.91315  0.23784  0.13925  1.0000
  C   C1044     1.0  0.61006  0.31281  0.23064  1.0000
  C   C1045     1.0  0.89578  0.25058  0.15252  1.0000
  C   C1046     1.0  0.76433  0.09590  0.19005  1.0000
  C   C1047     1.0  0.74432  0.10477  0.18500  1.0000
  H   H1251     1.0  0.71556  0.10940  0.23435  1.0000
  H   H1252     1.0  0.70797  0.20046  0.23147  1.0000
  H   H1253     1.0  0.90687  0.29056  0.99895  1.0000
  H   H1254     1.0  0.65476  0.06988  0.04090  1.0000
  C   C1048     1.0  0.78259  0.12046  0.10980  1.0000
  C   C1049     1.0  0.62144  0.00863  0.99786  1.0000
  N   N71       1.0  0.82253  0.12042  0.14144  1.0000
  C   C1050     1.0  0.86620  0.14616  0.17076  1.0000
  H   H1255     1.0  0.63825  0.11294  0.18020  1.0000
  H   H1256     1.0  0.80422  0.14945  0.15052  1.0000
  H   H1257     1.0  0.83556  0.09453  0.16484  1.0000
  H   H1258     1.0  0.85454  0.12031  0.12320  1.0000
  C   C1051     1.0  0.80787  0.13206  0.15741  1.0000
  C   C1052     1.0  0.82731  0.09745  0.15148  1.0000
  H   H1259     1.0  0.83630  0.14507  0.22062  1.0000
  H   H1260     1.0  0.79251  0.12659  0.16352  1.0000
  H   H1261     1.0  0.65187  0.29653  0.22722  1.0000
  H   H1262     1.0  0.83771  0.08807  0.13978  1.0000
  H   H1263     1.0  0.81277  0.09072  0.15841  1.0000
  C   C1053     1.0  0.93038  0.24984  0.12872  1.0000
  H   H1264     1.0  0.71120  0.11661  0.19720  1.0000
  C   C1054     1.0  0.52021  0.05113  0.06399  1.0000
  C   C1055     1.0  0.96775  0.25342  0.12049  1.0000
  C   C1056     1.0  0.52518  0.03857  0.10020  1.0000
  H   H1265     1.0  0.51927  0.03180  0.11668  1.0000
  S   S282      1.0  0.84934  0.11218  0.19622  1.0000
  C   C1057     1.0  0.72675  0.10994  0.20093  1.0000
  N   N72       1.0  0.72395  0.16776  0.23816  1.0000
  H   H1266     1.0  0.91710  0.22475  0.11199  1.0000
  H   H1267     1.0  0.92117  0.27556  0.05298  1.0000
  C   C1058     1.0  0.87109  0.31823  0.00885  1.0000
  C   C1059     1.0  0.76701  0.09309  0.21077  1.0000
  C   C1060     1.0  0.85407  0.13815  0.19047  1.0000
  C   C1061     1.0  0.66723  0.10461  0.01375  1.0000
  C   C1062     1.0  0.67646  0.14199  0.06581  1.0000
  C   C1063     1.0  0.84529  0.15117  0.20520  1.0000
  H   H1268     1.0  0.78468  0.32211  0.16887  1.0000
  C   C1064     1.0  0.66444  0.07541  0.19072  1.0000
  C   C1065     1.0  0.51285  0.04160  0.08510  1.0000
  C   C1066     1.0  0.67883  0.06679  0.22300  1.0000
  S   S283      1.0  0.50468  0.05701  0.04496  1.0000
  H   H1269     1.0  0.66189  0.09489  0.00565  1.0000
  C   C1067     1.0  0.51250  0.09432  0.09272  1.0000
  C   C1068     1.0  0.82440  0.30404  0.15205  1.0000
  H   H1270     1.0  0.62968  0.10623  0.15985  1.0000
  H   H1271     1.0  0.62027  0.08569  0.20560  1.0000
  C   C1069     1.0  0.68517  0.07764  0.17888  1.0000
  H   H1272     1.0  0.68842  0.08244  0.16177  1.0000
  C   C1070     1.0  0.54411  0.03929  0.00045  1.0000
  C   C1071     1.0  0.65223  0.06618  0.16375  1.0000
  H   H1273     1.0  0.66628  0.06967  0.15121  1.0000
  H   H1274     1.0  0.62830  0.05818  0.20294  1.0000
  H   H1275     1.0  0.65590  0.04896  0.17124  1.0000
  H   H1276     1.0  0.64657  0.06813  0.22358  1.0000
  H   H1277     1.0  0.53467  0.03450  0.01670  1.0000
  C   C1072     1.0  0.66173  0.06991  0.21319  1.0000
  H   H1278     1.0  0.78260  0.08668  0.21451  1.0000
  C   C1073     1.0  0.72789  0.16530  0.21597  1.0000
  H   H1279     1.0  0.88768  0.26530  0.14295  1.0000
  H   H1280     1.0  0.54522  0.99506  0.10509  1.0000
  H   H1281     1.0  0.89197  0.22380  0.13027  1.0000
  H   H1282     1.0  0.92664  0.21909  0.16611  1.0000
  H   H1283     1.0  0.74213  0.17147  0.20597  1.0000
  H   H1284     1.0  0.81944  0.29630  0.16903  1.0000
  H   H1285     1.0  0.77631  0.22075  0.22388  1.0000
  H   H1286     1.0  0.92978  0.30908  0.05437  1.0000
  C   C1074     1.0  0.62419  0.04259  0.00257  1.0000
  H   H1287     1.0  0.73964  0.29542  0.19952  1.0000
  H   H1288     1.0  0.69610  0.14736  0.22903  1.0000
  H   H1289     1.0  0.88014  0.31022  0.03947  1.0000
  H   H1290     1.0  0.70726  0.12204  0.05911  1.0000
  H   H1291     1.0  0.98410  0.24681  0.12212  1.0000
  H   H1292     1.0  0.66469  0.12138  0.00466  1.0000
  C   C1075     1.0  0.87582  0.32278  0.02645  1.0000
  C   C1076     1.0  0.85642  0.28660  0.02514  1.0000
  C   C1077     1.0  0.90057  0.31830  0.07599  1.0000
  N   N73       1.0  0.87267  0.29591  0.00782  1.0000
  C   C1078     1.0  0.89405  0.28313  0.01053  1.0000
  C   C1079     1.0  0.64497  0.30826  0.23750  1.0000
  C   C1080     1.0  0.57001  0.99523  0.00133  1.0000
  H   H1293     1.0  0.49895  0.10403  0.06558  1.0000
  H   H1294     1.0  0.49744  0.03723  0.08994  1.0000
  H   H1295     1.0  0.68464  0.09867  0.01247  1.0000
  C   C1081     1.0  0.54946  0.00309  0.99658  1.0000
  H   H1296     1.0  0.58110  0.00562  0.99773  1.0000
  H   H1297     1.0  0.51969  0.99293  0.99958  1.0000
  H   H1298     1.0  0.80989  0.31631  0.11236  1.0000
  C   C1082     1.0  0.55659  0.99616  0.06253  1.0000
  S   S284      1.0  0.76397  0.27351  0.23177  1.0000
  H   H1299     1.0  0.62778  0.12515  0.02688  1.0000
  H   H1300     1.0  0.62773  0.09794  0.02866  1.0000
  H   H1301     1.0  0.59326  0.31113  0.23756  1.0000
  H   H1302     1.0  0.75765  0.16055  0.23741  1.0000
  H   H1303     1.0  0.62045  0.99217  0.00434  1.0000
  H   H1304     1.0  0.56828  0.99260  0.04801  1.0000
  C   C1083     1.0  0.85636  0.08213  0.34612  1.0000
  H   H1305     1.0  0.51668  0.30020  0.46272  1.0000
  H   H1306     1.0  0.74471  0.13815  0.24782  1.0000
  C   C1084     1.0  0.98188  0.06645  0.40164  1.0000
  Fe  Fe143     1.0  0.80702  0.12571  0.26588  1.0000
  S   S285      1.0  0.83951  0.10559  0.25774  1.0000
  S   S286      1.0  0.80324  0.15529  0.27759  1.0000
  C   C1085     1.0  0.62062  0.28666  0.26115  1.0000
  H   H1307     1.0  0.66419  0.13709  0.25190  1.0000
  Fe  Fe144     1.0  0.82341  0.07790  0.27329  1.0000
  S   S287      1.0  0.83311  0.04876  0.29787  1.0000
  H   H1308     1.0  0.62406  0.32372  0.27116  1.0000
  S   S288      1.0  0.79176  0.09820  0.28405  1.0000
  S   S289      1.0  0.70816  0.20584  0.29659  1.0000
  H   H1309     1.0  0.65278  0.14282  0.28863  1.0000
  Fe  Fe145     1.0  0.88703  0.02878  0.41253  1.0000
  C   C1086     1.0  0.62595  0.26854  0.25200  1.0000
  Fe  Fe146     1.0  0.91083  0.02026  0.36942  1.0000
  H   H1310     1.0  0.97169  0.01142  0.37528  1.0000
  S   S290      1.0  0.91636  0.03209  0.33391  1.0000
  C   C1087     1.0  0.98531  0.06938  0.42069  1.0000
  H   H1311     1.0  0.62153  0.27808  0.34266  1.0000
  Fe  Fe147     1.0  0.93235  0.00545  0.40717  1.0000
  H   H1312     1.0  0.64476  0.29676  0.37274  1.0000
  S   S291      1.0  0.87922  0.01450  0.38954  1.0000
  S   S292      1.0  0.91692  0.03762  0.39110  1.0000
  S   S293      1.0  0.67331  0.25881  0.26937  1.0000
  H   H1313     1.0  0.61041  0.29566  0.29215  1.0000
  H   H1314     1.0  0.88334  0.06217  0.35857  1.0000
  C   C1088     1.0  0.96775  0.06941  0.43822  1.0000
  C   C1089     1.0  0.98233  0.00956  0.40361  1.0000
  H   H1315     1.0  0.60889  0.26023  0.31315  1.0000
  C   C1090     1.0  0.83671  0.11013  0.31082  1.0000
  C   C1091     1.0  0.62460  0.24823  0.26451  1.0000
  C   C1092     1.0  0.98424  0.01342  0.38165  1.0000
  C   C1093     1.0  0.94804  0.06680  0.43675  1.0000
  C   C1094     1.0  0.96210  0.06365  0.40044  1.0000
  C   C1095     1.0  0.85647  0.04486  0.30719  1.0000
  C   C1096     1.0  0.85822  0.03074  0.32661  1.0000
  C   C1097     1.0  0.87677  0.02638  0.33447  1.0000
  C   C1098     1.0  0.89355  0.03662  0.32333  1.0000
  C   C1099     1.0  0.89189  0.05080  0.30381  1.0000
  C   C1100     1.0  0.87332  0.05497  0.29573  1.0000
  H   H1316     1.0  0.84508  0.02323  0.33571  1.0000
  H   H1317     1.0  0.87815  0.01484  0.34902  1.0000
  H   H1318     1.0  0.90488  0.05872  0.29502  1.0000
  H   H1319     1.0  0.87214  0.06582  0.28063  1.0000
  H   H1320     1.0  0.87747  0.99163  0.28800  1.0000
  H   H1321     1.0  0.80445  0.08380  0.35215  1.0000
  S   S294      1.0  0.72076  0.24156  0.24193  1.0000
  C   C1101     1.0  0.83868  0.09931  0.34805  1.0000
  H   H1322     1.0  0.91216  0.04200  0.47628  1.0000
  H   H1323     1.0  0.61787  0.22942  0.29615  1.0000
  H   H1324     1.0  0.70645  0.17053  0.27963  1.0000
  N   N74       1.0  0.82429  0.10574  0.33289  1.0000
  H   H1325     1.0  0.79770  0.12999  0.32356  1.0000
  C   C1102     1.0  0.61841  0.24526  0.28648  1.0000
  C   C1103     1.0  0.77679  0.16915  0.28295  1.0000
  C   C1104     1.0  0.76054  0.15845  0.29501  1.0000
  C   C1105     1.0  0.73958  0.16990  0.29981  1.0000
  C   C1106     1.0  0.73473  0.19194  0.29201  1.0000
  C   C1107     1.0  0.75101  0.20258  0.27992  1.0000
  C   C1108     1.0  0.77204  0.19124  0.27564  1.0000
  H   H1326     1.0  0.76415  0.14141  0.30085  1.0000
  H   H1327     1.0  0.72707  0.16161  0.30929  1.0000
  H   H1328     1.0  0.74752  0.21962  0.27414  1.0000
  H   H1329     1.0  0.78461  0.19961  0.26653  1.0000
  H   H1330     1.0  0.67428  0.15963  0.30212  1.0000
  H   H1331     1.0  0.65128  0.27979  0.31110  1.0000
  H   H1332     1.0  0.69672  0.30589  0.31994  1.0000
  H   H1333     1.0  0.85971  0.07365  0.33360  1.0000
  C   C1109     1.0  0.88247  0.06314  0.48533  1.0000
  S   S295      1.0  0.59248  0.31037  0.36282  1.0000
  C   C1110     1.0  0.74274  0.15538  0.24704  1.0000
  H   H1334     1.0  0.51855  0.31349  0.43534  1.0000
  H   H1335     1.0  0.83880  0.00236  0.28885  1.0000
  S   S296      1.0  0.71639  0.26570  0.28064  1.0000
  C   C1111     1.0  0.64174  0.29428  0.31570  1.0000
  C   C1112     1.0  0.89110  0.04667  0.45501  1.0000
  S   S297      1.0  0.81560  0.07548  0.24342  1.0000
  H   H1336     1.0  0.82614  0.11646  0.29920  1.0000
  H   H1337     1.0  0.66848  0.22818  0.24146  1.0000
  Fe  Fe148     1.0  0.78512  0.09784  0.25311  1.0000
  H   H1338     1.0  0.84750  0.09567  0.30603  1.0000
  H   H1339     1.0  0.80177  0.09248  0.32496  1.0000
  H   H1340     1.0  0.53408  0.31876  0.45060  1.0000
  H   H1341     1.0  0.95992  0.06092  0.38594  1.0000
  H   H1342     1.0  0.81502  0.13901  0.33397  1.0000
  C   C1113     1.0  0.69216  0.15036  0.24480  1.0000
  C   C1114     1.0  0.61334  0.26262  0.29601  1.0000
  Fe  Fe149     1.0  0.70468  0.23881  0.27608  1.0000
  H   H1343     1.0  0.66182  0.19326  0.24105  1.0000
  N   N75       1.0  0.62234  0.30798  0.24754  1.0000
  C   C1115     1.0  0.86251  0.07305  0.48058  1.0000
  H   H1344     1.0  0.72124  0.19369  0.25317  1.0000
  H   H1345     1.0  0.82463  0.07353  0.33168  1.0000
  C   C1116     1.0  0.83523  0.10904  0.36548  1.0000
  H   H1346     1.0  0.84581  0.10928  0.39330  1.0000
  C   C1117     1.0  0.94524  0.06381  0.41794  1.0000
  C   C1118     1.0  0.66718  0.14754  0.27855  1.0000
  C   C1119     1.0  0.61432  0.28305  0.28363  1.0000
  H   H1347     1.0  0.83452  0.00301  0.31590  1.0000
  C   C1120     1.0  0.62490  0.29335  0.33352  1.0000
  H   H1348     1.0  0.93000  0.06144  0.41703  1.0000
  H   H1349     1.0  0.74136  0.15712  0.26337  1.0000
  C   C1121     1.0  0.86613  0.08517  0.37735  1.0000
  H   H1350     1.0  0.67514  0.28209  0.34675  1.0000
  S   S298      1.0  0.96068  0.00018  0.42136  1.0000
  C   C1122     1.0  0.84881  0.10194  0.37989  1.0000
  C   C1123     1.0  0.86992  0.07532  0.36046  1.0000
  H   H1351     1.0  0.82209  0.12204  0.36846  1.0000
  H   H1352     1.0  0.49518  0.31020  0.38047  1.0000
  C   C1124     1.0  0.89682  0.04991  0.47255  1.0000
  C   C1125     1.0  0.85675  0.06967  0.46327  1.0000
  Fe  Fe150     1.0  0.68652  0.28619  0.27066  1.0000
  C   C1126     1.0  0.67367  0.14418  0.25796  1.0000
  S   S299      1.0  0.66751  0.31593  0.28199  1.0000
  H   H1353     1.0  0.96920  0.07110  0.45338  1.0000
  S   S300      1.0  0.90278  0.99773  0.43010  1.0000
  C   C1127     1.0  0.67922  0.15702  0.28609  1.0000
  H   H1354     1.0  0.90215  0.03637  0.44524  1.0000
  H   H1355     1.0  0.85450  0.99848  0.47102  1.0000
  H   H1356     1.0  0.87649  0.07963  0.38866  1.0000
  C   C1128     1.0  0.67187  0.29884  0.34697  1.0000
  Fe  Fe151     1.0  0.73028  0.26988  0.24578  1.0000
  C   C1129     1.0  0.80773  0.12516  0.33575  1.0000
  C   C1130     1.0  0.70457  0.16050  0.25183  1.0000
  C   C1131     1.0  0.69766  0.16333  0.27300  1.0000
  C   C1132     1.0  0.64639  0.31397  0.30415  1.0000
  H   H1357     1.0  0.84646  0.12219  0.30855  1.0000
  C   C1133     1.0  0.61274  0.31205  0.33984  1.0000
  C   C1134     1.0  0.87093  0.05642  0.45053  1.0000
  H   H1358     1.0  0.84118  0.07722  0.45986  1.0000
  C   C1135     1.0  0.65484  0.30712  0.36164  1.0000
  C   C1136     1.0  0.51817  0.31562  0.45134  1.0000
  S   S301      1.0  0.86261  0.05170  0.42971  1.0000
  C   C1137     1.0  0.81332  0.08815  0.33554  1.0000
  H   H1359     1.0  0.79657  0.12266  0.35139  1.0000
  H   H1360     1.0  0.93488  0.06687  0.45035  1.0000
  H   H1361     1.0  0.62885  0.23465  0.25714  1.0000
  C   C1138     1.0  0.68406  0.31230  0.33192  1.0000
  H   H1362     1.0  0.65472  0.30433  0.24973  1.0000
  S   S302      1.0  0.75250  0.09464  0.25264  1.0000
  C   C1139     1.0  0.83629  0.99225  0.30518  1.0000
  H   H1363     1.0  0.67646  0.06281  0.24015  1.0000
  H   H1364     1.0  0.86296  0.02254  0.48741  1.0000
  C   C1140     1.0  0.86558  0.99164  0.48148  1.0000
  H   H1365     1.0  0.95170  0.16678  0.63915  1.0000
  S   S303      1.0  0.75401  0.11208  0.72928  1.0000
  C   C1141     1.0  0.81568  0.11309  0.72442  1.0000
  C   C1142     1.0  0.88503  0.99872  0.50393  1.0000
  Fe  Fe152     1.0  0.96693  0.05276  0.50768  1.0000
  C   C1143     1.0  0.78319  0.29815  0.71691  1.0000
  S   S304      1.0  0.94938  0.03425  0.49697  1.0000
  H   H1366     1.0  0.74084  0.20285  0.68070  1.0000
  Fe  Fe153     1.0  0.70282  0.25882  0.68594  1.0000
  S   S305      1.0  0.70437  0.28210  0.65475  1.0000
  S   S306      1.0  0.69488  0.22688  0.69071  1.0000
  Fe  Fe154     1.0  0.71681  0.28675  0.70668  1.0000
  C   C1144     1.0  0.80039  0.17625  0.71128  1.0000
  H   H1367     1.0  0.82599  0.11102  0.73514  1.0000
  C   C1145     1.0  0.62129  0.29074  0.62327  1.0000
  C   C1146     1.0  0.64034  0.28381  0.63130  1.0000
  Fe  Fe155     1.0  0.73466  0.28615  0.66039  1.0000
  S   S307      1.0  0.76503  0.28488  0.63596  1.0000
  S   S308      1.0  0.68476  0.28285  0.70524  1.0000
  S   S309      1.0  0.73460  0.26063  0.68990  1.0000
  S   S310      1.0  0.84570  0.14313  0.63100  1.0000
  C   C1147     1.0  0.88066  0.20385  0.67591  1.0000
  Fe  Fe156     1.0  0.83124  0.17776  0.62943  1.0000
  S   S311      1.0  0.79865  0.19078  0.62240  1.0000
  S   S312      1.0  0.86068  0.18947  0.61050  1.0000
  C   C1148     1.0  0.82640  0.12109  0.56951  1.0000
  H   H1368     1.0  0.98788  0.04922  0.57204  1.0000
  H   H1369     1.0  0.82035  0.24859  0.70724  1.0000
  H   H1370     1.0  0.88905  0.00995  0.51062  1.0000
  H   H1371     1.0  0.81561  0.12484  0.67179  1.0000
  H   H1372     1.0  0.78676  0.26160  0.66832  1.0000
  C   C1149     1.0  0.95003  0.19938  0.60536  1.0000
  C   C1150     1.0  0.81514  0.28886  0.64320  1.0000
  H   H1373     1.0  0.86664  0.07161  0.54940  1.0000
  H   H1374     1.0  0.65764  0.24275  0.64221  1.0000
  H   H1375     1.0  0.87276  0.13555  0.56731  1.0000
  H   H1376     1.0  0.87126  0.16317  0.71796  1.0000
  C   C1151     1.0  0.85857  0.27799  0.62632  1.0000
  C   C1152     1.0  0.91228  0.12097  0.58695  1.0000
  C   C1153     1.0  0.90825  0.10546  0.60547  1.0000
  C   C1154     1.0  0.91708  0.08392  0.60535  1.0000
  H   H1377     1.0  0.89787  0.10999  0.61965  1.0000
  C   C1155     1.0  0.97701  0.16508  0.58699  1.0000
  C   C1156     1.0  0.64470  0.28499  0.66560  1.0000
  Fe  Fe157     1.0  0.68881  0.30664  0.67438  1.0000
  Fe  Fe158     1.0  0.94137  0.04686  0.55260  1.0000
  H   H1378     1.0  0.79827  0.29401  0.64869  1.0000
  H   H1379     1.0  0.82434  0.27484  0.69349  1.0000
  C   C1157     1.0  0.87630  0.08917  0.57592  1.0000
  C   C1158     1.0  0.69276  0.21383  0.71747  1.0000
  C   C1159     1.0  0.87692  0.18382  0.68732  1.0000
  C   C1160     1.0  0.87364  0.19408  0.72024  1.0000
  H   H1380     1.0  0.61719  0.25376  0.65565  1.0000
  C   C1161     1.0  0.77425  0.25907  0.63119  1.0000
  C   C1162     1.0  0.79596  0.25187  0.62360  1.0000
  C   C1163     1.0  0.80360  0.23082  0.62105  1.0000
  C   C1164     1.0  0.78939  0.21722  0.62522  1.0000
  C   C1165     1.0  0.76764  0.22456  0.63237  1.0000
  C   C1166     1.0  0.76014  0.24531  0.63576  1.0000
  H   H1381     1.0  0.80693  0.26247  0.61991  1.0000
  H   H1382     1.0  0.82041  0.22525  0.61544  1.0000
  H   H1383     1.0  0.75660  0.21409  0.63560  1.0000
  H   H1384     1.0  0.74336  0.25075  0.64157  1.0000
  C   C1167     1.0  0.75037  0.28668  0.73663  1.0000
  C   C1168     1.0  0.87972  0.10806  0.53943  1.0000
  H   H1385     1.0  0.91017  0.19941  0.60843  1.0000
  C   C1169     1.0  0.84882  0.11924  0.56581  1.0000
  C   C1170     1.0  0.82434  0.30096  0.62406  1.0000
  H   H1386     1.0  0.87543  0.27370  0.61976  1.0000
  C   C1171     1.0  0.65869  0.25245  0.65295  1.0000
  H   H1387     1.0  0.74572  0.17540  0.72438  1.0000
  H   H1388     1.0  0.67756  0.24215  0.72945  1.0000
  H   H1389     1.0  0.80446  0.16138  0.70616  1.0000
  H   H1390     1.0  0.75825  0.21966  0.67981  1.0000
  H   H1391     1.0  0.74634  0.16550  0.70171  1.0000
  C   C1172     1.0  0.78868  0.11814  0.69695  1.0000
  C   C1173     1.0  0.80984  0.19830  0.72938  1.0000
  H   H1392     1.0  0.92424  0.19088  0.58418  1.0000
  H   H1393     1.0  0.97925  0.01522  0.58165  1.0000
  S   S313      1.0  0.97182  0.02855  0.53713  1.0000
  S   S314      1.0  0.71946  0.31291  0.67744  1.0000
  H   H1394     1.0  0.62251  0.25371  0.68058  1.0000
  C   C1174     1.0  0.62111  0.26369  0.66452  1.0000
  Fe  Fe159     1.0  0.87595  0.15489  0.61462  1.0000
  C   C1175     1.0  0.79122  0.21326  0.72669  1.0000
  C   C1176     1.0  0.92133  0.18602  0.60179  1.0000
  S   S315      1.0  0.89991  0.14765  0.58570  1.0000
  C   C1177     1.0  0.75627  0.17025  0.71003  1.0000
  C   C1178     1.0  0.93452  0.09367  0.56859  1.0000
  S   S316      1.0  0.88850  0.06754  0.50760  1.0000
  H   H1395     1.0  0.98330  0.17912  0.58470  1.0000
  H   H1396     1.0  0.91343  0.07182  0.61944  1.0000
  H   H1397     1.0  0.73938  0.21135  0.70395  1.0000
  S   S317      1.0  0.93827  0.05110  0.58555  1.0000
  H   H1398     1.0  0.85989  0.25237  0.65313  1.0000
  H   H1399     1.0  0.80898  0.16773  0.58648  1.0000
  S   S318      1.0  0.93775  0.07265  0.52360  1.0000
  H   H1400     1.0  0.84476  0.25210  0.68905  1.0000
  C   C1179     1.0  0.82335  0.11826  0.70252  1.0000
  H   H1401     1.0  0.95340  0.20672  0.58812  1.0000
  C   C1180     1.0  0.78095  0.11337  0.71892  1.0000
  C   C1181     1.0  0.87384  0.17881  0.70938  1.0000
  Fe  Fe160     1.0  0.86849  0.18639  0.64177  1.0000
  H   H1402     1.0  0.97790  0.07591  0.52971  1.0000
  H   H1403     1.0  0.64587  0.27630  0.68211  1.0000
  H   H1404     1.0  0.96477  0.19614  0.61161  1.0000
  S   S319      1.0  0.84962  0.12215  0.69284  1.0000
  H   H1405     1.0  0.98088  0.03843  0.60017  1.0000
  C   C1182     1.0  0.79463  0.26305  0.68046  1.0000
  Fe  Fe161     1.0  0.85394  0.14461  0.66100  1.0000
  Fe  Fe162     1.0  0.95142  0.01177  0.52841  1.0000
  H   H1406     1.0  0.84776  0.16557  0.57982  1.0000
  H   H1407     1.0  0.63179  0.29941  0.66637  1.0000
  C   C1183     1.0  0.63985  0.30826  0.58947  1.0000
  H   H1408     1.0  0.91254  0.17288  0.60644  1.0000
  H   H1409     1.0  0.92949  0.15740  0.63733  1.0000
  C   C1184     1.0  0.87040  0.00582  0.49075  1.0000
  H   H1410     1.0  0.88451  0.23437  0.67787  1.0000
  S   S320      1.0  0.88587  0.15256  0.64469  1.0000
  C   C1185     1.0  0.92972  0.07801  0.58669  1.0000
  C   C1186     1.0  0.84178  0.15319  0.57683  1.0000
  C   C1187     1.0  0.95004  0.14356  0.60091  1.0000
  S   S321      1.0  0.92109  0.02806  0.54641  1.0000
  N   N76       1.0  0.94155  0.17977  0.60947  1.0000
  C   C1188     1.0  0.85601  0.13590  0.56963  1.0000
  N   N77       1.0  0.76727  0.18728  0.69622  1.0000
  H   H1411     1.0  0.78811  0.25290  0.69567  1.0000
  C   C1189     1.0  0.77964  0.18026  0.67649  1.0000
  C   C1190     1.0  0.78161  0.19140  0.70764  1.0000
  C   C1191     1.0  0.77718  0.20994  0.71605  1.0000
  H   H1412     1.0  0.85300  0.30484  0.60066  1.0000
  C   C1192     1.0  0.96351  0.12749  0.59111  1.0000
  H   H1413     1.0  0.65970  0.29086  0.65837  1.0000
  H   H1414     1.0  0.84048  0.22755  0.66985  1.0000
  H   H1415     1.0  0.76769  0.15567  0.71556  1.0000
  H   H1416     1.0  0.78989  0.16421  0.67950  1.0000
  H   H1417     1.0  0.76921  0.17916  0.66639  1.0000
  H   H1418     1.0  0.78995  0.19161  0.66675  1.0000
  H   H1419     1.0  0.76304  0.22210  0.71455  1.0000
  H   H1420     1.0  0.67466  0.25667  0.64781  1.0000
  C   C1193     1.0  0.82323  0.23448  0.67188  1.0000
  C   C1194     1.0  0.75084  0.20618  0.68998  1.0000
  C   C1195     1.0  0.79248  0.28891  0.73461  1.0000
  H   H1421     1.0  0.81935  0.10933  0.56699  1.0000
  H   H1422     1.0  0.92560  0.18366  0.64118  1.0000
  H   H1423     1.0  0.87762  0.22591  0.71722  1.0000
  H   H1424     1.0  0.60743  0.27711  0.66714  1.0000
  H   H1425     1.0  0.82893  0.16832  0.72356  1.0000
  H   H1426     1.0  0.89100  0.09444  0.53336  1.0000
  H   H1427     1.0  0.88516  0.09941  0.57934  1.0000
  H   H1428     1.0  0.84580  0.09275  0.54127  1.0000
  C   C1196     1.0  0.80980  0.12088  0.68875  1.0000
  H   H1429     1.0  0.77822  0.12017  0.68630  1.0000
  C   C1197     1.0  0.87741  0.21418  0.70889  1.0000
  C   C1198     1.0  0.88136  0.21893  0.68665  1.0000
  H   H1430     1.0  0.87636  0.17206  0.67927  1.0000
  C   C1199     1.0  0.81995  0.15441  0.58056  1.0000
  H   H1431     1.0  0.75521  0.30348  0.70399  1.0000
  C   C1200     1.0  0.85446  0.08528  0.55445  1.0000
  H   H1432     1.0  0.60621  0.28725  0.63261  1.0000
  N   N78       1.0  0.64103  0.27141  0.65319  1.0000
  C   C1201     1.0  0.70069  0.19192  0.72288  1.0000
  H   H1433     1.0  0.86542  0.08355  0.59102  1.0000
  H   H1434     1.0  0.87134  0.11772  0.52653  1.0000
  C   C1202     1.0  0.81227  0.13846  0.57682  1.0000
  H   H1435     1.0  0.92920  0.12714  0.55446  1.0000
  N   N79       1.0  0.86437  0.10073  0.55898  1.0000
  C   C1203     1.0  0.62116  0.30282  0.60264  1.0000
  H   H1436     1.0  0.94502  0.08931  0.55448  1.0000
  H   H1437     1.0  0.88834  0.07513  0.57145  1.0000
  C   C1204     1.0  0.82740  0.27055  0.65429  1.0000
  C   C1205     1.0  0.82729  0.25811  0.69173  1.0000
  C   C1206     1.0  0.65871  0.30183  0.59688  1.0000
  H   H1438     1.0  0.70699  0.18287  0.71061  1.0000
  C   C1207     1.0  0.79448  0.11104  0.73259  1.0000
  N   N80       1.0  0.81814  0.25689  0.67423  1.0000
  H   H1439     1.0  0.88981  0.11771  0.54200  1.0000
  C   C1208     1.0  0.92576  0.11511  0.56868  1.0000
  H   H1440     1.0  0.93452  0.14076  0.60977  1.0000
  S   S322      1.0  0.88271  0.21031  0.64843  1.0000
  H   H1441     1.0  0.79227  0.30617  0.70244  1.0000
  H   H1442     1.0  0.79523  0.13954  0.57977  1.0000
  C   C1209     1.0  0.65896  0.29007  0.61755  1.0000
  H   H1443     1.0  0.95821  0.11298  0.59253  1.0000
  S   S323      1.0  0.83730  0.17845  0.66055  1.0000
  H   H1444     1.0  0.84345  0.07827  0.56874  1.0000
  C   C1210     1.0  0.84949  0.26576  0.64542  1.0000
  Fe  Fe163     1.0  0.92035  0.05204  0.51575  1.0000
  H   H1445     1.0  0.65866  0.24195  0.66903  1.0000
  C   C1211     1.0  0.95628  0.16294  0.59905  1.0000
  C   C1212     1.0  0.93691  0.17155  0.63275  1.0000
  C   C1213     1.0  0.76227  0.29664  0.71778  1.0000
  C   C1214     1.0  0.84599  0.29550  0.61558  1.0000
  H   H1446     1.0  0.93839  0.21166  0.61335  1.0000
  H   H1447     1.0  0.67305  0.30671  0.58673  1.0000
  H   H1448     1.0  0.78951  0.27962  0.68281  1.0000
  H   H1449     1.0  0.81545  0.22391  0.68598  1.0000
  S   S324      1.0  0.81918  0.28903  0.73301  1.0000
  H   H1450     1.0  0.81801  0.23320  0.65785  1.0000
  S   S325      1.0  0.72431  0.28429  0.73817  1.0000
  H   H1451     1.0  0.67381  0.28636  0.62279  1.0000
  H   H1452     1.0  0.60644  0.30824  0.59685  1.0000
  H   H1453     1.0  0.78778  0.22762  0.73271  1.0000
  H   H1454     1.0  0.63969  0.31793  0.57362  1.0000
  C   C1215     1.0  0.81440  0.17989  0.72163  1.0000
  H   H1455     1.0  0.50259  0.32151  0.49095  1.0000
  H   H1456     1.0  0.81446  0.31449  0.61566  1.0000
  C   C1216     1.0  0.98361  0.13015  0.57929  1.0000
  C   C1217     1.0  0.68418  0.22537  0.73343  1.0000
  C   C1218     1.0  0.99038  0.14884  0.57729  1.0000
  H   H1457     1.0  0.82083  0.20088  0.73748  1.0000
  H   H1458     1.0  0.85040  0.13062  0.73765  1.0000
  H   H1459     1.0  0.85137  0.08328  0.49040  1.0000
  H   H1460     1.0  0.87908  0.30071  0.74348  1.0000
  S   S326      1.0  0.91846  0.30941  0.87160  1.0000
  C   C1219     1.0  0.70424  0.06822  0.77607  1.0000
  H   H1461     1.0  0.67717  0.22418  0.76696  1.0000
  H   H1462     1.0  0.88889  0.12653  0.75053  1.0000
  H   H1463     1.0  0.64185  0.12536  0.86333  1.0000
  Fe  Fe164     1.0  0.61109  0.04671  0.88695  1.0000
  S   S327      1.0  0.63554  0.01825  0.89742  1.0000
  S   S328      1.0  0.61903  0.07719  0.86544  1.0000
  Fe  Fe165     1.0  0.57459  0.02348  0.90751  1.0000
  S   S329      1.0  0.69582  0.18183  0.78621  1.0000
  C   C1220     1.0  0.86356  0.30008  0.75482  1.0000
  H   H1464     1.0  0.67604  0.03060  0.85160  1.0000
  C   C1221     1.0  0.86939  0.29377  0.98741  1.0000
  C   C1222     1.0  0.64869  0.16356  0.84729  1.0000
  S   S330      1.0  0.58920  0.04403  0.91891  1.0000
  S   S331      1.0  0.59423  0.02905  0.87450  1.0000
  Fe  Fe166     1.0  0.82101  0.22951  0.79842  1.0000
  S   S332      1.0  0.85506  0.21272  0.79703  1.0000
  S   S333      1.0  0.79491  0.21568  0.82294  1.0000
  Fe  Fe167     1.0  0.83166  0.26173  0.75758  1.0000
  H   H1465     1.0  0.89298  0.30631  0.76863  1.0000
  H   H1466     1.0  0.71286  0.07923  0.76393  1.0000
  H   H1467     1.0  0.71668  0.20124  0.80664  1.0000
  Fe  Fe168     1.0  0.86228  0.24548  0.78721  1.0000
  S   S334      1.0  0.88905  0.25272  0.79717  1.0000
  H   H1468     1.0  0.66542  0.00909  0.80119  1.0000
  S   S335      1.0  0.82790  0.26231  0.79173  1.0000
  H   H1469     1.0  0.91795  0.31516  0.96736  1.0000
  C   C1223     1.0  0.76224  0.21771  0.77845  1.0000
  H   H1470     1.0  0.73656  0.20896  0.75908  1.0000
  C   C1224     1.0  0.71381  0.25523  0.79079  1.0000
  C   C1225     1.0  0.70015  0.04455  0.81073  1.0000
  H   H1471     1.0  0.77056  0.21468  0.79157  1.0000
  C   C1226     1.0  0.52724  0.01512  0.90444  1.0000
  Fe  Fe169     1.0  0.71894  0.15057  0.78742  1.0000
  S   S336      1.0  0.75082  0.14820  0.76555  1.0000
  Fe  Fe170     1.0  0.72738  0.10433  0.80953  1.0000
  S   S337      1.0  0.75993  0.09745  0.78918  1.0000
  S   S338      1.0  0.71691  0.07889  0.83744  1.0000
  Fe  Fe171     1.0  0.76343  0.12826  0.79389  1.0000
  S   S339      1.0  0.79499  0.13119  0.79736  1.0000
  Fe  Fe172     1.0  0.74484  0.11780  0.76232  1.0000
  H   H1472     1.0  0.78750  0.27216  0.76729  1.0000
  S   S340      1.0  0.73221  0.13376  0.81641  1.0000
  S   S341      1.0  0.71159  0.12164  0.78209  1.0000
  C   C1227     1.0  0.73818  0.23824  0.81449  1.0000
  H   H1473     1.0  0.68046  0.14988  0.81731  1.0000
  H   H1474     1.0  0.65361  0.17581  0.83300  1.0000
  H   H1475     1.0  0.74016  0.18612  0.79297  1.0000
  C   C1228     1.0  0.83121  0.31893  0.77293  1.0000
  C   C1229     1.0  0.85069  0.09711  0.77110  1.0000
  C   C1230     1.0  0.71529  0.27237  0.81788  1.0000
  S   S342      1.0  0.82136  0.23079  0.76454  1.0000
  H   H1476     1.0  0.70996  0.28577  0.82556  1.0000
  H   H1477     1.0  0.70852  0.18961  0.85393  1.0000
  C   C1231     1.0  0.79552  0.19101  0.81782  1.0000
  C   C1232     1.0  0.81165  0.18335  0.80200  1.0000
  C   C1233     1.0  0.81116  0.16513  0.79584  1.0000
  C   C1234     1.0  0.79455  0.15428  0.80540  1.0000
  C   C1235     1.0  0.77833  0.16168  0.82146  1.0000
  C   C1236     1.0  0.77898  0.17996  0.82786  1.0000
  H   H1478     1.0  0.82463  0.19142  0.79432  1.0000
  H   H1479     1.0  0.82370  0.15965  0.78345  1.0000
  H   H1480     1.0  0.76557  0.15316  0.82910  1.0000
  H   H1481     1.0  0.76652  0.18576  0.84024  1.0000
  C   C1237     1.0  0.75943  0.27827  0.75454  1.0000
  C   C1238     1.0  0.55784  0.03092  0.96589  1.0000
  C   C1239     1.0  0.68618  0.06361  0.77287  1.0000
  H   H1482     1.0  0.74147  0.19616  0.81466  1.0000
  C   C1240     1.0  0.67231  0.00519  0.81554  1.0000
  C   C1241     1.0  0.73413  0.20002  0.80068  1.0000
  H   H1483     1.0  0.68940  0.99765  0.81118  1.0000
  S   S343      1.0  0.86644  0.24714  0.75244  1.0000
  H   H1484     1.0  0.75019  0.27109  0.76930  1.0000
  N   N81       1.0  0.85942  0.11643  0.76787  1.0000
  C   C1242     1.0  0.64633  0.07696  0.85755  1.0000
  C   C1243     1.0  0.66008  0.06604  0.87129  1.0000
  C   C1244     1.0  0.68185  0.06641  0.86481  1.0000
  C   C1245     1.0  0.68990  0.07757  0.84456  1.0000
  C   C1246     1.0  0.67623  0.08785  0.83057  1.0000
  C   C1247     1.0  0.65441  0.08786  0.83719  1.0000
  H   H1485     1.0  0.65388  0.05774  0.88710  1.0000
  H   H1486     1.0  0.69242  0.05832  0.87564  1.0000
  H   H1487     1.0  0.68244  0.09592  0.81469  1.0000
  H   H1488     1.0  0.64381  0.09607  0.82642  1.0000
  S   S344      1.0  0.61887  0.00038  0.96107  1.0000
  H   H1489     1.0  0.69477  0.28569  0.79552  1.0000
  H   H1490     1.0  0.73778  0.25542  0.83766  1.0000
  S   S345      1.0  0.53917  0.02684  0.91767  1.0000
  C   C1248     1.0  0.67743  0.01695  0.84438  1.0000
  N   N82       1.0  0.54308  0.02578  0.98651  1.0000
  Fe  Fe173     1.0  0.61724  0.00036  0.88703  1.0000
  C   C1249     1.0  0.50687  0.99400  0.88687  1.0000
  H   H1491     1.0  0.70809  0.16507  0.74809  1.0000
  H   H1492     1.0  0.72515  0.06245  0.79748  1.0000
  C   C1250     1.0  0.65654  0.12763  0.86680  1.0000
  C   C1251     1.0  0.62129  0.03876  0.96819  1.0000
  C   C1252     1.0  0.50507  0.01989  0.90707  1.0000
  C   C1253     1.0  0.72035  0.15660  0.86616  1.0000
  H   H1493     1.0  0.62064  0.04558  0.95171  1.0000
  H   H1494     1.0  0.69419  0.00804  0.84220  1.0000
  H   H1495     1.0  0.68084  0.07106  0.75813  1.0000
  H   H1496     1.0  0.70669  0.25648  0.77762  1.0000
  C   C1254     1.0  0.86251  0.28466  0.81600  1.0000
  C   C1255     1.0  0.88326  0.27317  0.81107  1.0000
  C   C1256     1.0  0.89986  0.27861  0.81648  1.0000
  C   C1257     1.0  0.89578  0.29577  0.82640  1.0000
  N   N83       1.0  0.85209  0.32142  0.75866  1.0000
  H   H1497     1.0  0.84960  0.28013  0.81250  1.0000
  H   H1498     1.0  0.91593  0.26966  0.81282  1.0000
  H   H1499     1.0  0.85323  0.09195  0.75596  1.0000
  H   H1500     1.0  0.72894  0.12264  0.87628  1.0000
  N   N84       1.0  0.73886  0.21998  0.78585  1.0000
  C   C1258     1.0  0.71121  0.05866  0.79492  1.0000
  C   C1259     1.0  0.73020  0.23786  0.79691  1.0000
  H   H1501     1.0  0.85428  0.29310  0.74779  1.0000
  H   H1502     1.0  0.83312  0.10008  0.77722  1.0000
  C   C1260     1.0  0.85849  0.30210  0.82546  1.0000
  C   C1261     1.0  0.68157  0.03959  0.80805  1.0000
  H   H1503     1.0  0.69867  0.11559  0.86736  1.0000
  H   H1504     1.0  0.67786  0.18366  0.84485  1.0000
  H   H1505     1.0  0.70635  0.03811  0.82503  1.0000
  C   C1262     1.0  0.70583  0.17355  0.85728  1.0000
  C   C1263     1.0  0.88470  0.32170  0.77185  1.0000
  C   C1264     1.0  0.87513  0.30776  0.83056  1.0000
  N   N85       1.0  0.66983  0.02421  0.82413  1.0000
  H   H1506     1.0  0.88118  0.30056  0.97369  1.0000
  C   C1265     1.0  0.68413  0.14899  0.85657  1.0000
  Fe  Fe174     1.0  0.61202  0.01377  0.92837  1.0000
  H   H1507     1.0  0.85831  0.08356  0.78233  1.0000
  H   H1508     1.0  0.76930  0.20409  0.77046  1.0000
  H   H1509     1.0  0.75040  0.22548  0.82032  1.0000
  N   N86       1.0  0.66607  0.14458  0.85046  1.0000
  Fe  Fe175     1.0  0.85584  0.21606  0.76269  1.0000
  C   C1266     1.0  0.70127  0.18186  0.74409  1.0000
  H   H1510     1.0  0.64428  0.04901  0.83436  1.0000
  H   H1511     1.0  0.57444  0.02914  0.96761  1.0000
  H   H1512     1.0  0.62382  0.06798  0.97471  1.0000
  C   C1267     1.0  0.85754  0.12304  0.78786  1.0000
  C   C1268     1.0  0.84467  0.11465  0.80741  1.0000
  C   C1269     1.0  0.86766  0.13939  0.78789  1.0000
  C   C1270     1.0  0.84191  0.12248  0.82557  1.0000
  C   C1271     1.0  0.86476  0.14714  0.80610  1.0000
  C   C1272     1.0  0.85183  0.13876  0.82489  1.0000
  H   H1513     1.0  0.88412  0.10510  0.74279  1.0000
  C   C1273     1.0  0.67414  0.13733  0.83028  1.0000
  C   C1274     1.0  0.52121  0.03161  0.98230  1.0000
  H   H1514     1.0  0.82256  0.31023  0.76694  1.0000
  H   H1515     1.0  0.66790  0.00589  0.85635  1.0000
  H   H1516     1.0  0.51703  0.04866  0.97438  1.0000
  S   S346      1.0  0.90397  0.31789  0.92985  1.0000
  C   C1275     1.0  0.62071  0.01724  0.97650  1.0000
  H   H1517     1.0  0.66134  0.04615  0.78515  1.0000
  H   H1518     1.0  0.83573  0.10272  0.80889  1.0000
  H   H1519     1.0  0.87723  0.14700  0.77360  1.0000
  H   H1520     1.0  0.83135  0.11642  0.84005  1.0000
  H   H1521     1.0  0.87205  0.16020  0.80539  1.0000
  H   H1522     1.0  0.84911  0.14526  0.83880  1.0000
  C   C1276     1.0  0.49493  0.00947  0.89816  1.0000
  H   H1523     1.0  0.90868  0.30005  0.83032  1.0000
  C   C1277     1.0  0.71724  0.13590  0.87005  1.0000
  H   H1524     1.0  0.83327  0.30990  0.78909  1.0000
  H   H1525     1.0  0.73310  0.23735  0.75496  1.0000
  H   H1526     1.0  0.76637  0.23249  0.76736  1.0000
  H   H1527     1.0  0.73429  0.15945  0.86964  1.0000
  S   S347      1.0  0.97802  0.31861  0.84321  1.0000
  H   H1528     1.0  0.78867  0.10756  0.74952  1.0000
  H   H1529     1.0  0.84247  0.31123  0.82888  1.0000
  C   C1278     1.0  0.78057  0.27897  0.75343  1.0000
  C   C1279     1.0  0.73093  0.25532  0.82467  1.0000
  H   H1530     1.0  0.86644  0.28870  0.76984  1.0000
  C   C1280     1.0  0.64681  0.03383  0.82925  1.0000
  S   S348      1.0  0.59604  0.99292  0.91893  1.0000
  H   H1531     1.0  0.55651  0.99648  0.89032  1.0000
  C   C1281     1.0  0.67505  0.04944  0.78852  1.0000
  H   H1532     1.0  0.71243  0.22364  0.77152  1.0000
  C   C1282     1.0  0.69316  0.19357  0.75998  1.0000
  C   C1283     1.0  0.88210  0.11191  0.75686  1.0000
  C   C1284     1.0  0.69955  0.13205  0.86517  1.0000
  H   H1533     1.0  0.64325  0.17085  0.86142  1.0000
  H   H1534     1.0  0.63460  0.15947  0.84444  1.0000
  H   H1535     1.0  0.68750  0.12335  0.83155  1.0000
  C   C1285     1.0  0.68392  0.21515  0.75469  1.0000
  H   H1536     1.0  0.63888  0.03718  0.81572  1.0000
  C   C1286     1.0  0.84764  0.13392  0.75372  1.0000
  H   H1537     1.0  0.63788  0.02310  0.84236  1.0000
  H   H1538     1.0  0.65235  0.13134  0.88281  1.0000
  C   C1287     1.0  0.70670  0.27226  0.80106  1.0000
  H   H1539     1.0  0.66723  0.11171  0.86761  1.0000
  H   H1540     1.0  0.85237  0.14930  0.75166  1.0000
  H   H1541     1.0  0.66148  0.13294  0.82522  1.0000
  C   C1288     1.0  0.68806  0.16990  0.85236  1.0000
  C   C1289     1.0  0.53936  0.00019  0.89246  1.0000
  C   C1290     1.0  0.72988  0.22269  0.76698  1.0000
  H   H1542     1.0  0.91074  0.32346  0.78446  1.0000
  H   H1543     1.0  0.55298  0.04763  0.95735  1.0000
  H   H1544     1.0  0.83017  0.13641  0.76029  1.0000
  C   C1291     1.0  0.62311  0.05140  0.98121  1.0000
  H   H1545     1.0  0.55823  0.02038  0.95534  1.0000
  S   S349      1.0  0.86829  0.18765  0.74793  1.0000
  H   H1546     1.0  0.51936  0.02237  0.97150  1.0000
  H   H1547     1.0  0.89201  0.10046  0.76771  1.0000
  H   H1548     1.0  0.96268  0.32101  0.94066  1.0000
  H   H1549     1.0  0.50867  0.99755  0.82162  1.0000
  H   H1550     1.0  0.49569  0.03167  0.91606  1.0000
  H   H1551     1.0  0.66411  0.99297  0.82731  1.0000
  H   H1552     1.0  0.85308  0.30172  0.98485  1.0000
  H   H1553     1.0  0.87131  0.27682  0.98680  1.0000
  H   H1554     1.0  0.97133  0.32166  0.91276  1.0000
  C   C1292     1.0  0.83744  0.35370  0.08152  1.0000
  Fe  Fe176     1.0  0.94878  0.55721  0.05685  1.0000
  H   H1555     1.0  0.97382  0.59806  0.99520  1.0000
  S   S350      1.0  0.93323  0.59090  0.05922  1.0000
  Fe  Fe177     1.0  0.94115  0.51282  0.06341  1.0000
  S   S351      1.0  0.97455  0.50133  0.04723  1.0000
  S   S352      1.0  0.91981  0.48895  0.07497  1.0000
  Fe  Fe178     1.0  0.92742  0.37529  0.99982  1.0000
  H   H1556     1.0  0.85790  0.57254  0.20693  1.0000
  Fe  Fe179     1.0  0.96990  0.53152  0.02312  1.0000
  C   C1293     1.0  0.88899  0.46645  0.03133  1.0000
  S   S353      1.0  0.95084  0.52871  0.08401  1.0000
  S   S354      1.0  0.93574  0.54217  0.03810  1.0000
  C   C1294     1.0  0.98927  0.59584  0.99878  1.0000
  H   H1557     1.0  0.86995  0.37658  0.01171  1.0000
  H   H1558     1.0  0.88173  0.57312  0.17247  1.0000
  Fe  Fe180     1.0  0.88063  0.62444  0.16431  1.0000
  S   S355      1.0  0.84811  0.61828  0.16757  1.0000
  S   S356      1.0  0.91096  0.60200  0.15357  1.0000
  H   H1559     1.0  0.87977  0.43634  0.03799  1.0000
  Fe  Fe181     1.0  0.84203  0.62350  0.20044  1.0000
  H   H1560     1.0  0.77767  0.65623  0.18485  1.0000
  Fe  Fe182     1.0  0.95016  0.39294  0.02296  1.0000
  S   S357      1.0  0.87526  0.62673  0.19826  1.0000
  S   S358      1.0  0.91634  0.38975  0.02834  1.0000
  S   S359      1.0  0.93611  0.34174  0.01784  1.0000
  Fe  Fe183     1.0  0.96818  0.34903  0.01402  1.0000
  C   C1295     1.0  0.92849  0.59542  0.08484  1.0000
  C   C1296     1.0  0.91262  0.61248  0.09074  1.0000
  C   C1297     1.0  0.90760  0.61524  0.11169  1.0000
  C   C1298     1.0  0.91872  0.60111  0.12662  1.0000
  C   C1299     1.0  0.93528  0.58472  0.12041  1.0000
  C   C1300     1.0  0.94000  0.58171  0.09962  1.0000
  H   H1561     1.0  0.90379  0.62320  0.07926  1.0000
  H   H1562     1.0  0.89485  0.62799  0.11639  1.0000
  H   H1563     1.0  0.94406  0.57392  0.13188  1.0000
  H   H1564     1.0  0.95258  0.56883  0.09504  1.0000
  H   H1565     1.0  0.96795  0.43748  0.07029  1.0000
  C   C1301     1.0  0.87653  0.54217  0.12742  1.0000
  S   S360      1.0  0.96023  0.36138  0.04377  1.0000
  H   H1566     1.0  0.81321  0.32928  0.17955  1.0000
  C   C1302     1.0  0.98935  0.59916  0.01853  1.0000
  N   N87       1.0  0.88028  0.55537  0.14029  1.0000
  S   S361      1.0  0.90568  0.34288  0.07609  1.0000
  C   C1303     1.0  0.86963  0.36052  0.01127  1.0000
  C   C1304     1.0  0.71863  0.65586  0.22506  1.0000
  H   H1567     1.0  0.88207  0.46920  0.04718  1.0000
  C   C1305     1.0  0.94783  0.44102  0.03275  1.0000
  C   C1306     1.0  0.95090  0.46194  0.02546  1.0000
  C   C1307     1.0  0.94099  0.47696  0.03792  1.0000
  C   C1308     1.0  0.92856  0.47102  0.05802  1.0000
  C   C1309     1.0  0.92463  0.45030  0.06497  1.0000
  C   C1310     1.0  0.93420  0.43527  0.05223  1.0000
  H   H1568     1.0  0.96111  0.46656  0.01023  1.0000
  H   H1569     1.0  0.94306  0.49320  0.03194  1.0000
  H   H1570     1.0  0.91489  0.44569  0.08048  1.0000
  H   H1571     1.0  0.93181  0.41907  0.05790  1.0000
  C   C1311     1.0  0.82236  0.33654  0.12506  1.0000
  C   C1312     1.0  0.83859  0.55369  0.20202  1.0000
  C   C1313     1.0  0.89950  0.48129  0.01623  1.0000
  H   H1572     1.0  0.90063  0.49557  0.02041  1.0000
  C   C1314     1.0  0.88779  0.44796  0.02614  1.0000
  H   H1573     1.0  0.88709  0.57995  0.11241  1.0000
  S   S362      1.0  0.96036  0.38092  0.99306  1.0000
  H   H1574     1.0  0.97438  0.60365  0.02927  1.0000
  C   C1315     1.0  0.90921  0.47756  0.99599  1.0000
  H   H1575     1.0  0.75330  0.59913  0.23411  1.0000
  H   H1576     1.0  0.97791  0.43653  0.09302  1.0000
  H   H1577     1.0  0.82194  0.53524  0.19268  1.0000
  H   H1578     1.0  0.91385  0.54884  0.12616  1.0000
  H   H1579     1.0  0.88781  0.54328  0.11172  1.0000
  H   H1580     1.0  0.98278  0.40733  0.05701  1.0000
  C   C1316     1.0  0.75303  0.63221  0.21958  1.0000
  H   H1581     1.0  0.88012  0.34644  0.04064  1.0000
  H   H1582     1.0  0.87886  0.52505  0.13551  1.0000
  H   H1583     1.0  0.85978  0.58360  0.12662  1.0000
  S   S363      1.0  0.96316  0.42208  0.01821  1.0000
  Fe  Fe184     1.0  0.92731  0.35653  0.04617  1.0000
  C   C1317     1.0  0.86925  0.56417  0.17639  1.0000
  H   H1584     1.0  0.93869  0.52715  0.00366  1.0000
  S   S364      1.0  0.82268  0.60332  0.22714  1.0000
  Fe  Fe185     1.0  0.98398  0.51953  0.06551  1.0000
  S   S365      1.0  0.98272  0.54902  0.03973  1.0000
  C   C1318     1.0  0.90854  0.45872  0.99023  1.0000
  H   H1585     1.0  0.84344  0.36005  0.06494  1.0000
  C   C1319     1.0  0.89723  0.44420  0.00584  1.0000
  H   H1586     1.0  0.97484  0.46045  0.07307  1.0000
  H   H1587     1.0  0.86031  0.54754  0.12388  1.0000
  H   H1588     1.0  0.82779  0.55416  0.21724  1.0000
  C   C1320     1.0  0.87658  0.57780  0.12850  1.0000
  H   H1589     1.0  0.87973  0.58866  0.13684  1.0000
  H   H1590     1.0  0.90616  0.53205  0.15172  1.0000
  C   C1321     1.0  0.90297  0.54848  0.14202  1.0000
  C   C1322     1.0  0.86631  0.55383  0.16168  1.0000
  C   C1323     1.0  0.84891  0.54318  0.16817  1.0000
  H   H1591     1.0  0.84527  0.53501  0.15807  1.0000
  C   C1324     1.0  0.82596  0.33752  0.08731  1.0000
  H   H1592     1.0  0.90794  0.55902  0.14935  1.0000
  C   C1325     1.0  0.83531  0.54317  0.18809  1.0000
  C   C1326     1.0  0.85561  0.56403  0.19621  1.0000
  H   H1593     1.0  0.78305  0.34641  0.14880  1.0000
  C   C1327     1.0  0.74358  0.61500  0.23141  1.0000
  H   H1594     1.0  0.77002  0.62859  0.21360  1.0000
  H   H1595     1.0  0.89590  0.42965  0.00251  1.0000
  C   C1328     1.0  0.87546  0.34356  0.02744  1.0000
  C   C1329     1.0  0.86472  0.33596  0.99284  1.0000
  C   C1330     1.0  0.74077  0.65329  0.21621  1.0000
  H   H1596     1.0  0.81231  0.35401  0.16062  1.0000
  H   H1597     1.0  0.82668  0.64167  0.23592  1.0000
  Fe  Fe186     1.0  0.83834  0.65374  0.15830  1.0000
  C   C1331     1.0  0.70936  0.63859  0.23688  1.0000
  C   C1332     1.0  0.84161  0.36138  0.09711  1.0000
  C   C1333     1.0  0.81957  0.33674  0.16279  1.0000
  H   H1598     1.0  0.85111  0.37355  0.09250  1.0000
  H   H1599     1.0  0.83827  0.35959  0.12977  1.0000
  H   H1600     1.0  0.82297  0.33134  0.07517  1.0000
  C   C1334     1.0  0.97975  0.44287  0.07561  1.0000
  C   C1335     1.0  0.83422  0.35302  0.11860  1.0000
  H   H1601     1.0  0.85877  0.65399  0.23075  1.0000
  C   C1336     1.0  0.81854  0.32901  0.10871  1.0000
  C   C1337     1.0  0.86392  0.35676  0.99422  1.0000
  H   H1602     1.0  0.60995  0.32927  0.22095  1.0000
  N   N88       1.0  0.81456  0.32699  0.14761  1.0000
  H   H1603     1.0  0.83706  0.33459  0.16114  1.0000
  H   H1604     1.0  0.99136  0.36855  0.06693  1.0000
  C   C1338     1.0  0.79109  0.32937  0.15206  1.0000
  C   C1339     1.0  0.61713  0.33174  0.32800  1.0000
  Fe  Fe187     1.0  0.60313  0.52130  0.44017  1.0000
  S   S366      1.0  0.62708  0.51574  0.41061  1.0000
  S   S367      1.0  0.61353  0.51598  0.47090  1.0000
  Fe  Fe188     1.0  0.56529  0.52377  0.42092  1.0000
  S   S368      1.0  0.58613  0.51823  0.38978  1.0000
  S   S369      1.0  0.52964  0.52613  0.43105  1.0000
  Fe  Fe189     1.0  0.60746  0.49350  0.40915  1.0000
  S   S370      1.0  0.62120  0.45911  0.40814  1.0000
  Fe  Fe190     1.0  0.60376  0.54108  0.39391  1.0000
  S   S371      1.0  0.61078  0.56887  0.36722  1.0000
  S   S372      1.0  0.58531  0.49720  0.43994  1.0000
  S   S373      1.0  0.58121  0.54847  0.42385  1.0000
  Fe  Fe191     1.0  0.53403  0.37123  0.38263  1.0000
  S   S374      1.0  0.56122  0.37068  0.35447  1.0000
  H   H1605     1.0  0.65432  0.46651  0.45282  1.0000
  Fe  Fe192     1.0  0.56282  0.35857  0.41417  1.0000
  S   S375      1.0  0.59292  0.35656  0.38928  1.0000
  H   H1606     1.0  0.64341  0.62038  0.44335  1.0000
  Fe  Fe193     1.0  0.57556  0.38664  0.37132  1.0000
  S   S376      1.0  0.58999  0.41478  0.35275  1.0000
  H   H1607     1.0  0.50313  0.35139  0.42558  1.0000
  H   H1608     1.0  0.49711  0.42925  0.37313  1.0000
  S   S377      1.0  0.54693  0.39011  0.39758  1.0000
  H   H1609     1.0  0.57610  0.42999  0.46313  1.0000
  H   H1610     1.0  0.56410  0.51360  0.48454  1.0000
  H   H1611     1.0  0.62308  0.59823  0.44032  1.0000
  H   H1612     1.0  0.61343  0.39159  0.44271  1.0000
  H   H1613     1.0  0.59742  0.32591  0.26767  1.0000
  H   H1614     1.0  0.62122  0.61059  0.40220  1.0000
  C   C1340     1.0  0.57508  0.36187  0.45909  1.0000
  C   C1341     1.0  0.65328  0.36980  0.36802  1.0000
  H   H1615     1.0  0.66737  0.36160  0.37521  1.0000
  C   C1342     1.0  0.60224  0.38230  0.45333  1.0000
  C   C1343     1.0  0.58925  0.37422  0.44523  1.0000
  H   H1616     1.0  0.67479  0.37807  0.31543  1.0000
  H   H1617     1.0  0.79479  0.63483  0.30451  1.0000
  C   C1344     1.0  0.81083  0.64710  0.33062  1.0000
  N   N89       1.0  0.78830  0.65322  0.32847  1.0000
  C   C1345     1.0  0.80556  0.61992  0.24345  1.0000
  C   C1346     1.0  0.65001  0.32887  0.36140  1.0000
  C   C1347     1.0  0.60383  0.55782  0.47509  1.0000
  H   H1618     1.0  0.66119  0.61469  0.32827  1.0000
  H   H1619     1.0  0.63829  0.37267  0.32237  1.0000
  H   H1620     1.0  0.64331  0.60185  0.38253  1.0000
  C   C1348     1.0  0.61245  0.44729  0.39240  1.0000
  C   C1349     1.0  0.60386  0.45938  0.37491  1.0000
  C   C1350     1.0  0.59732  0.44925  0.36250  1.0000
  C   C1351     1.0  0.59859  0.42718  0.36810  1.0000
  C   C1352     1.0  0.60688  0.41516  0.38576  1.0000
  C   C1353     1.0  0.61427  0.42517  0.39757  1.0000
  H   H1621     1.0  0.60269  0.47644  0.37068  1.0000
  H   H1622     1.0  0.59100  0.45858  0.34876  1.0000
  H   H1623     1.0  0.60797  0.39813  0.39012  1.0000
  H   H1624     1.0  0.62120  0.41582  0.41090  1.0000
  H   H1625     1.0  0.68882  0.37115  0.33697  1.0000
  C   C1354     1.0  0.65387  0.56057  0.36644  1.0000
  H   H1626     1.0  0.65185  0.54554  0.37710  1.0000
  H   H1627     1.0  0.61242  0.43536  0.45425  1.0000
  H   H1628     1.0  0.51450  0.48225  0.48815  1.0000
  H   H1629     1.0  0.62313  0.36810  0.34891  1.0000
  C   C1355     1.0  0.58666  0.36602  0.48904  1.0000
  H   H1630     1.0  0.49521  0.41295  0.34491  1.0000
  C   C1356     1.0  0.52297  0.46550  0.33584  1.0000
  C   C1357     1.0  0.60248  0.57354  0.48615  1.0000
  C   C1358     1.0  0.58116  0.43719  0.47318  1.0000
  H   H1631     1.0  0.59806  0.56209  0.46052  1.0000
  H   H1632     1.0  0.67204  0.61655  0.37766  1.0000
  H   H1633     1.0  0.51212  0.47858  0.34201  1.0000
  N   N90       1.0  0.50070  0.33305  0.45790  1.0000
  H   H1634     1.0  0.62935  0.58290  0.40119  1.0000
  H   H1635     1.0  0.60765  0.34620  0.33266  1.0000
  C   C1359     1.0  0.53155  0.43069  0.32747  1.0000
  C   C1360     1.0  0.49621  0.51747  0.42039  1.0000
  C   C1361     1.0  0.51723  0.52052  0.41354  1.0000
  C   C1362     1.0  0.52813  0.51866  0.39302  1.0000
  H   H1636     1.0  0.65033  0.38706  0.36800  1.0000
  N   N91       1.0  0.54113  0.45172  0.42728  1.0000
  C   C1363     1.0  0.54998  0.46933  0.42903  1.0000
  C   C1364     1.0  0.55847  0.43826  0.41474  1.0000
  C   C1365     1.0  0.52397  0.46075  0.41510  1.0000
  C   C1366     1.0  0.53239  0.44005  0.44869  1.0000
  C   C1367     1.0  0.51588  0.45083  0.46273  1.0000
  C   C1368     1.0  0.53963  0.41790  0.45617  1.0000
  H   H1637     1.0  0.55656  0.47859  0.41316  1.0000
  H   H1638     1.0  0.78156  0.60081  0.25465  1.0000
  H   H1639     1.0  0.53697  0.39057  0.48183  1.0000
  H   H1640     1.0  0.56462  0.44759  0.39881  1.0000
  H   H1641     1.0  0.51955  0.33967  0.47645  1.0000
  H   H1642     1.0  0.51114  0.47258  0.42246  1.0000
  H   H1643     1.0  0.53006  0.46926  0.39869  1.0000
  H   H1644     1.0  0.51657  0.44808  0.41381  1.0000
  C   C1369     1.0  0.57380  0.35779  0.48098  1.0000
  H   H1645     1.0  0.55202  0.40821  0.44672  1.0000
  H   H1646     1.0  0.57613  0.45098  0.31729  1.0000
  C   C1370     1.0  0.53106  0.40745  0.47652  1.0000
  C   C1371     1.0  0.65891  0.64516  0.42414  1.0000
  C   C1372     1.0  0.74411  0.64894  0.37840  1.0000
  C   C1373     1.0  0.63531  0.59761  0.39941  1.0000
  C   C1374     1.0  0.77428  0.65629  0.34908  1.0000
  S   S378      1.0  0.54794  0.33975  0.40107  1.0000
  H   H1647     1.0  0.52783  0.41602  0.32695  1.0000
  C   C1375     1.0  0.50364  0.33605  0.47811  1.0000
  C   C1376     1.0  0.67309  0.37800  0.33244  1.0000
  C   C1377     1.0  0.55300  0.43215  0.32103  1.0000
  C   C1378     1.0  0.81112  0.63855  0.24402  1.0000
  C   C1379     1.0  0.65927  0.59963  0.33892  1.0000
  C   C1380     1.0  0.51808  0.51389  0.37938  1.0000
  S   S379      1.0  0.70867  0.63841  0.28959  1.0000
  H   H1648     1.0  0.50939  0.46764  0.45807  1.0000
  C   C1381     1.0  0.49702  0.51105  0.38615  1.0000
  C   C1382     1.0  0.63661  0.37530  0.33850  1.0000
  C   C1383     1.0  0.51577  0.44760  0.33473  1.0000
  C   C1384     1.0  0.49738  0.34184  0.38095  1.0000
  H   H1649     1.0  0.75555  0.63199  0.35379  1.0000
  C   C1385     1.0  0.54444  0.46678  0.32938  1.0000
  H   H1650     1.0  0.66891  0.39506  0.33347  1.0000
  C   C1386     1.0  0.78406  0.63651  0.32011  1.0000
  H   H1651     1.0  0.64806  0.58381  0.44778  1.0000
  C   C1387     1.0  0.67634  0.58635  0.34750  1.0000
  H   H1652     1.0  0.54417  0.52129  0.38743  1.0000
  C   C1388     1.0  0.77107  0.63015  0.26574  1.0000
  H   H1653     1.0  0.63350  0.57145  0.43733  1.0000
  H   H1654     1.0  0.65547  0.45864  0.48896  1.0000
  C   C1389     1.0  0.63656  0.57433  0.35856  1.0000
  H   H1655     1.0  0.54954  0.48056  0.33055  1.0000
  H   H1656     1.0  0.63609  0.33450  0.37253  1.0000
  S   S380      1.0  0.70024  0.59507  0.34351  1.0000
  H   H1657     1.0  0.54469  0.49888  0.46750  1.0000
  C   C1390     1.0  0.65220  0.62599  0.42764  1.0000
  H   H1658     1.0  0.66357  0.42801  0.47374  1.0000
  H   H1659     1.0  0.65518  0.65360  0.43685  1.0000
  H   H1660     1.0  0.62619  0.60421  0.33806  1.0000
  C   C1391     1.0  0.66853  0.57767  0.40910  1.0000
  C   C1392     1.0  0.67379  0.56650  0.36071  1.0000
  H   H1661     1.0  0.63179  0.39275  0.33768  1.0000
  S   S381      1.0  0.55843  0.35177  0.44953  1.0000
  H   H1662     1.0  0.68707  0.55597  0.36705  1.0000
  H   H1663     1.0  0.52660  0.51262  0.36346  1.0000
  C   C1393     1.0  0.55940  0.45020  0.32183  1.0000
  H   H1664     1.0  0.51435  0.33777  0.38011  1.0000
  N   N92       1.0  0.64971  0.59460  0.41402  1.0000
  H   H1665     1.0  0.51778  0.35813  0.44078  1.0000
  S   S382      1.0  0.72085  0.64778  0.33027  1.0000
  H   H1666     1.0  0.53785  0.48094  0.43729  1.0000
  C   C1394     1.0  0.60211  0.44009  0.46836  1.0000
  S   S383      1.0  0.61738  0.38825  0.48510  1.0000
  C   C1395     1.0  0.65669  0.61478  0.41113  1.0000
  C   C1396     1.0  0.63810  0.58682  0.43584  1.0000
  H   H1667     1.0  0.59030  0.37742  0.42832  1.0000
  S   S384      1.0  0.49907  0.38224  0.38261  1.0000
  Fe  Fe194     1.0  0.57653  0.34061  0.37432  1.0000
  H   H1668     1.0  0.56316  0.46322  0.43780  1.0000
  H   H1669     1.0  0.67789  0.58182  0.39273  1.0000
  H   H1670     1.0  0.66385  0.56240  0.41037  1.0000
  N   N93       1.0  0.63274  0.44913  0.47728  1.0000
  C   C1397     1.0  0.67946  0.33408  0.33160  1.0000
  H   H1671     1.0  0.67956  0.57470  0.42000  1.0000
  C   C1398     1.0  0.79661  0.65315  0.25505  1.0000
  H   H1672     1.0  0.76762  0.64055  0.31721  1.0000
  H   H1673     1.0  0.49986  0.54889  0.46227  1.0000
  N   N94       1.0  0.65661  0.36611  0.34633  1.0000
  H   H1674     1.0  0.81350  0.63239  0.34308  1.0000
  C   C1399     1.0  0.63947  0.59361  0.34439  1.0000
  C   C1400     1.0  0.53979  0.49834  0.48432  1.0000
  H   H1675     1.0  0.63735  0.45644  0.44312  1.0000
  H   H1676     1.0  0.75553  0.62695  0.27392  1.0000
  C   C1401     1.0  0.63800  0.46333  0.45623  1.0000
  H   H1677     1.0  0.78654  0.62064  0.33100  1.0000
  H   H1678     1.0  0.49378  0.41383  0.45052  1.0000
  C   C1402     1.0  0.77639  0.64923  0.26542  1.0000
  C   C1403     1.0  0.78578  0.61536  0.25487  1.0000
  H   H1679     1.0  0.55295  0.42509  0.41191  1.0000
  C   C1404     1.0  0.64638  0.42773  0.47668  1.0000
  H   H1680     1.0  0.71465  0.60489  0.24966  1.0000
  C   C1405     1.0  0.67024  0.65364  0.40429  1.0000
  C   C1406     1.0  0.60096  0.37818  0.47523  1.0000
  Fe  Fe195     1.0  0.69981  0.62893  0.32510  1.0000
  H   H1681     1.0  0.62670  0.47889  0.45513  1.0000
  C   C1407     1.0  0.66822  0.62395  0.39111  1.0000
  H   H1682     1.0  0.57230  0.43143  0.42263  1.0000
  H   H1683     1.0  0.56491  0.41893  0.31601  1.0000
  H   H1684     1.0  0.68366  0.64964  0.37241  1.0000
  H   H1685     1.0  0.63913  0.36417  0.37892  1.0000
  H   H1686     1.0  0.84452  0.65289  0.26909  1.0000
  C   C1408     1.0  0.50743  0.44019  0.48307  1.0000
  H   H1687     1.0  0.63735  0.34791  0.30105  1.0000
  N   N95       1.0  0.49294  0.44656  0.34195  1.0000
  C   C1409     1.0  0.50284  0.35299  0.44177  1.0000
  C   C1410     1.0  0.75808  0.64447  0.35975  1.0000
  C   C1411     1.0  0.67495  0.64298  0.38787  1.0000
  H   H1688     1.0  0.59565  0.58996  0.48011  1.0000
  S   S385      1.0  0.67055  0.65456  0.32862  1.0000
  H   H1689     1.0  0.73137  0.64027  0.38583  1.0000
  C   C1412     1.0  0.61002  0.44768  0.48207  1.0000
  H   H1690     1.0  0.61533  0.34129  0.24864  1.0000
  C   C1413     1.0  0.61231  0.53654  0.48322  1.0000
  H   H1691     1.0  0.68925  0.34355  0.31913  1.0000
  H   H1692     1.0  0.64438  0.42097  0.46399  1.0000
  H   H1693     1.0  0.69245  0.64116  0.24390  1.0000
  H   H1694     1.0  0.82178  0.64420  0.31545  1.0000
  C   C1414     1.0  0.63391  0.33268  0.31017  1.0000
  C   C1415     1.0  0.72184  0.61819  0.24014  1.0000
  C   C1416     1.0  0.66238  0.34302  0.34660  1.0000
  H   H1695     1.0  0.49221  0.42941  0.31910  1.0000
  C   C1417     1.0  0.61433  0.32543  0.25933  1.0000
  H   H1696     1.0  0.49179  0.34959  0.48364  1.0000
  Fe  Fe196     1.0  0.60804  0.52786  0.58541  1.0000
  S   S386      1.0  0.62548  0.55492  0.57417  1.0000
  S   S387      1.0  0.62637  0.49444  0.58510  1.0000
  Fe  Fe197     1.0  0.56446  0.55671  0.59073  1.0000
  S   S388      1.0  0.57819  0.58608  0.57971  1.0000
  S   S389      1.0  0.52875  0.56172  0.59766  1.0000
  Fe  Fe198     1.0  0.60054  0.57005  0.55471  1.0000
  Fe  Fe199     1.0  0.60162  0.56846  0.60039  1.0000
  S   S390      1.0  0.60567  0.58773  0.62169  1.0000
  S   S391      1.0  0.58487  0.54205  0.56393  1.0000
  S   S392      1.0  0.58611  0.53999  0.61343  1.0000
  S   S393      1.0  0.57479  0.39587  0.53718  1.0000
  S   S394      1.0  0.62253  0.40232  0.53552  1.0000
  Fe  Fe200     1.0  0.58971  0.41047  0.55460  1.0000
  S   S395      1.0  0.57226  0.44197  0.56224  1.0000
  C   C1418     1.0  0.62247  0.64513  0.59613  1.0000
  C   C1419     1.0  0.63909  0.34415  0.63416  1.0000
  H   H1697     1.0  0.57565  0.48659  0.53505  1.0000
  C   C1420     1.0  0.63069  0.65184  0.60991  1.0000
  H   H1698     1.0  0.58589  0.36255  0.50591  1.0000
  H   H1699     1.0  0.51476  0.33675  0.59188  1.0000
  Fe  Fe201     1.0  0.69812  0.61685  0.64918  1.0000
  C   C1421     1.0  0.57675  0.50328  0.52690  1.0000
  S   S396      1.0  0.69635  0.59360  0.63090  1.0000
  Fe  Fe202     1.0  0.70272  0.62327  0.69114  1.0000
  H   H1700     1.0  0.50527  0.59453  0.63986  1.0000
  N   N96       1.0  0.62807  0.62868  0.56427  1.0000
  H   H1701     1.0  0.54374  0.50263  0.55897  1.0000
  Fe  Fe203     1.0  0.72891  0.64323  0.65006  1.0000
  S   S397      1.0  0.76199  0.64939  0.63929  1.0000
  C   C1422     1.0  0.84831  0.33518  0.73801  1.0000
  S   S398      1.0  0.72585  0.60954  0.66497  1.0000
  C   C1423     1.0  0.53378  0.40121  0.58298  1.0000
  C   C1424     1.0  0.63844  0.35064  0.61255  1.0000
  H   H1702     1.0  0.77317  0.60742  0.66351  1.0000
  S   S399      1.0  0.55607  0.34765  0.58005  1.0000
  C   C1425     1.0  0.67760  0.33698  0.62522  1.0000
  H   H1703     1.0  0.62319  0.54208  0.52817  1.0000
  H   H1704     1.0  0.81263  0.56062  0.64589  1.0000
  H   H1705     1.0  0.56298  0.34810  0.49174  1.0000
  C   C1426     1.0  0.65868  0.33748  0.64049  1.0000
  C   C1427     1.0  0.55048  0.50712  0.49421  1.0000
  H   H1706     1.0  0.52932  0.44062  0.56122  1.0000
  H   H1707     1.0  0.59832  0.62253  0.58468  1.0000
  C   C1428     1.0  0.51790  0.34341  0.57502  1.0000
  C   C1429     1.0  0.61152  0.48010  0.57818  1.0000
  C   C1430     1.0  0.58931  0.48525  0.58303  1.0000
  C   C1431     1.0  0.57749  0.47300  0.57855  1.0000
  C   C1432     1.0  0.58775  0.45587  0.56888  1.0000
  C   C1433     1.0  0.60997  0.45081  0.56377  1.0000
  C   C1434     1.0  0.62186  0.46297  0.56843  1.0000
  H   H1708     1.0  0.58125  0.49823  0.59089  1.0000
  H   H1709     1.0  0.56038  0.47656  0.58286  1.0000
  H   H1710     1.0  0.61797  0.43771  0.55612  1.0000
  H   H1711     1.0  0.63904  0.45929  0.56432  1.0000
  C   C1435     1.0  0.67106  0.59094  0.62958  1.0000
  C   C1436     1.0  0.65246  0.60221  0.64031  1.0000
  C   C1437     1.0  0.63250  0.60069  0.63809  1.0000
  C   C1438     1.0  0.63099  0.58781  0.62528  1.0000
  C   C1439     1.0  0.64957  0.57600  0.61507  1.0000
  C   C1440     1.0  0.66955  0.57768  0.61713  1.0000
  H   H1712     1.0  0.65345  0.61240  0.64998  1.0000
  H   H1713     1.0  0.61819  0.60979  0.64609  1.0000
  H   H1714     1.0  0.64857  0.56568  0.60551  1.0000
  H   H1715     1.0  0.68390  0.56875  0.60899  1.0000
  C   C1441     1.0  0.81865  0.60405  0.67498  1.0000
  H   H1716     1.0  0.52938  0.36644  0.51452  1.0000
  C   C1442     1.0  0.63500  0.64138  0.54279  1.0000
  H   H1717     1.0  0.50673  0.44163  0.60734  1.0000
  C   C1443     1.0  0.65838  0.63194  0.57847  1.0000
  N   N97       1.0  0.55531  0.51675  0.52630  1.0000
  H   H1718     1.0  0.62443  0.34437  0.64598  1.0000
  C   C1444     1.0  0.51918  0.54013  0.59615  1.0000
  C   C1445     1.0  0.52957  0.51918  0.60293  1.0000
  C   C1446     1.0  0.52151  0.50214  0.60163  1.0000
  S   S400      1.0  0.61362  0.35376  0.54381  1.0000
  H   H1719     1.0  0.65263  0.63843  0.53763  1.0000
  H   H1720     1.0  0.54363  0.51615  0.60941  1.0000
  H   H1721     1.0  0.52929  0.48595  0.60720  1.0000
  H   H1722     1.0  0.56048  0.44073  0.62920  1.0000
  H   H1723     1.0  0.60537  0.64767  0.59889  1.0000
  C   C1447     1.0  0.51410  0.43486  0.56787  1.0000
  C   C1448     1.0  0.81887  0.57214  0.65082  1.0000
  H   H1724     1.0  0.81536  0.58990  0.68666  1.0000
  H   H1725     1.0  0.59972  0.45899  0.51189  1.0000
  N   N98       1.0  0.51515  0.41840  0.58772  1.0000
  N   N99       1.0  0.80456  0.59341  0.64873  1.0000
  C   C1449     1.0  0.55763  0.53854  0.51417  1.0000
  H   H1726     1.0  0.58655  0.50284  0.51074  1.0000
  C   C1450     1.0  0.81860  0.62764  0.64044  1.0000
  C   C1451     1.0  0.82748  0.61792  0.68091  1.0000
  H   H1727     1.0  0.56331  0.45476  0.51901  1.0000
  C   C1452     1.0  0.54145  0.35781  0.54317  1.0000
  H   H1728     1.0  0.66981  0.62425  0.56668  1.0000
  C   C1453     1.0  0.52670  0.49693  0.52772  1.0000
  C   C1454     1.0  0.57416  0.45076  0.50478  1.0000
  H   H1729     1.0  0.53450  0.43355  0.59807  1.0000
  H   H1730     1.0  0.56563  0.54617  0.52202  1.0000
  C   C1455     1.0  0.54433  0.51850  0.54831  1.0000
  C   C1456     1.0  0.65737  0.35078  0.59729  1.0000
  C   C1457     1.0  0.50080  0.54400  0.58810  1.0000
  C   C1458     1.0  0.67693  0.34383  0.60366  1.0000
  H   H1731     1.0  0.78961  0.61544  0.62413  1.0000
  H   H1732     1.0  0.55665  0.36194  0.53525  1.0000
  S   S401      1.0  0.60618  0.58688  0.52038  1.0000
  H   H1733     1.0  0.53583  0.38825  0.59724  1.0000
  H   H1734     1.0  0.62333  0.35553  0.60773  1.0000
  H   H1735     1.0  0.54885  0.40726  0.57743  1.0000
  C   C1459     1.0  0.49473  0.41101  0.59570  1.0000
  H   H1736     1.0  0.52009  0.41579  0.61888  1.0000
  C   C1460     1.0  0.60923  0.56784  0.50547  1.0000
  C   C1461     1.0  0.66639  0.63844  0.59253  1.0000
  H   H1737     1.0  0.62909  0.47389  0.49387  1.0000
  C   C1462     1.0  0.50226  0.34630  0.56333  1.0000
  H   H1738     1.0  0.52083  0.49563  0.54457  1.0000
  H   H1739     1.0  0.78132  0.60246  0.70658  1.0000
  H   H1740     1.0  0.63234  0.63760  0.73217  1.0000
  H   H1741     1.0  0.50314  0.48041  0.52669  1.0000
  S   S402      1.0  0.59392  0.38186  0.58093  1.0000
  C   C1463     1.0  0.80109  0.60002  0.62664  1.0000
  H   H1742     1.0  0.50858  0.41023  0.50578  1.0000
  H   H1743     1.0  0.58573  0.50909  0.53538  1.0000
  H   H1744     1.0  0.49488  0.44884  0.49351  1.0000
  H   H1745     1.0  0.50018  0.57472  0.66385  1.0000
  H   H1746     1.0  0.69162  0.34379  0.59187  1.0000
  H   H1747     1.0  0.82076  0.56498  0.66741  1.0000
  C   C1464     1.0  0.51926  0.42770  0.60372  1.0000
  C   C1465     1.0  0.63667  0.60584  0.56412  1.0000
  Fe  Fe204     1.0  0.60811  0.38477  0.52043  1.0000
  H   H1748     1.0  0.52781  0.52795  0.54894  1.0000
  H   H1749     1.0  0.77508  0.58192  0.65823  1.0000
  C   C1466     1.0  0.83228  0.63634  0.66654  1.0000
  H   H1750     1.0  0.51072  0.42850  0.55559  1.0000
  C   C1467     1.0  0.60449  0.63183  0.56867  1.0000
  H   H1751     1.0  0.74589  0.60588  0.69907  1.0000
  C   C1468     1.0  0.50366  0.50608  0.59270  1.0000
  S   S403      1.0  0.70347  0.64951  0.63169  1.0000
  C   C1469     1.0  0.61934  0.53102  0.50229  1.0000
  H   H1752     1.0  0.78466  0.64195  0.71770  1.0000
  C   C1470     1.0  0.52277  0.48885  0.49598  1.0000
  H   H1753     1.0  0.81623  0.60152  0.61486  1.0000
  H   H1754     1.0  0.59896  0.62629  0.55710  1.0000
  S   S404      1.0  0.70377  0.61023  0.72568  1.0000
  C   C1471     1.0  0.50631  0.35481  0.54150  1.0000
  C   C1472     1.0  0.53737  0.34951  0.56500  1.0000
  C   C1473     1.0  0.76739  0.60339  0.71911  1.0000
  Fe  Fe205     1.0  0.62563  0.37208  0.56035  1.0000
  C   C1474     1.0  0.52601  0.36031  0.53143  1.0000
  H   H1755     1.0  0.54186  0.54896  0.51255  1.0000
  S   S405      1.0  0.65720  0.36004  0.57019  1.0000
  H   H1756     1.0  0.67611  0.64837  0.72652  1.0000
  C   C1475     1.0  0.63614  0.63504  0.57983  1.0000
  C   C1476     1.0  0.74731  0.60543  0.71485  1.0000
  C   C1477     1.0  0.78368  0.59147  0.66318  1.0000
  H   H1757     1.0  0.86362  0.33770  0.72692  1.0000
  N   N100      1.0  0.64614  0.41582  0.61267  1.0000
  C   C1478     1.0  0.65248  0.39767  0.62977  1.0000
  C   C1479     1.0  0.65330  0.40875  0.59224  1.0000
  C   C1480     1.0  0.65777  0.43269  0.61101  1.0000
  C   C1481     1.0  0.62268  0.42290  0.61741  1.0000
  C   C1482     1.0  0.60930  0.40941  0.61731  1.0000
  C   C1483     1.0  0.61242  0.44284  0.62283  1.0000
  C   C1484     1.0  0.58714  0.41582  0.62147  1.0000
  C   C1485     1.0  0.59024  0.44897  0.62725  1.0000
  C   C1486     1.0  0.57763  0.43562  0.62633  1.0000
  H   H1758     1.0  0.64513  0.38401  0.63127  1.0000
  H   H1759     1.0  0.67001  0.39156  0.62684  1.0000
  H   H1760     1.0  0.64747  0.40221  0.64545  1.0000
  H   H1761     1.0  0.64709  0.39471  0.59260  1.0000
  H   H1762     1.0  0.67093  0.40386  0.58793  1.0000
  H   H1763     1.0  0.64801  0.42155  0.57908  1.0000
  H   H1764     1.0  0.65466  0.43759  0.62636  1.0000
  H   H1765     1.0  0.67532  0.42722  0.60655  1.0000
  H   H1766     1.0  0.65323  0.44708  0.59872  1.0000
  H   H1767     1.0  0.61586  0.39378  0.61396  1.0000
  H   H1768     1.0  0.62111  0.45433  0.62324  1.0000
  H   H1769     1.0  0.57734  0.40542  0.62075  1.0000
  H   H1770     1.0  0.58283  0.46452  0.63074  1.0000
  H   H1771     1.0  0.55262  0.52643  0.55544  1.0000
  H   H1772     1.0  0.53245  0.39410  0.57022  1.0000
  C   C1487     1.0  0.65258  0.64853  0.60809  1.0000
  C   C1488     1.0  0.54386  0.50726  0.51614  1.0000
  H   H1773     1.0  0.65428  0.60191  0.55962  1.0000
  H   H1774     1.0  0.79414  0.58838  0.62271  1.0000
  Fe  Fe206     1.0  0.58141  0.36636  0.56212  1.0000
  H   H1775     1.0  0.63568  0.44703  0.50916  1.0000
  H   H1776     1.0  0.83930  0.64706  0.67097  1.0000
  H   H1777     1.0  0.83503  0.57312  0.64085  1.0000
  H   H1778     1.0  0.81498  0.63278  0.62481  1.0000
  C   C1489     1.0  0.81394  0.60843  0.65453  1.0000
  H   H1779     1.0  0.76661  0.64324  0.69030  1.0000
  C   C1490     1.0  0.51640  0.48790  0.51766  1.0000
  S   S406      1.0  0.67433  0.62765  0.67691  1.0000
  H   H1780     1.0  0.65883  0.65323  0.61919  1.0000
  H   H1781     1.0  0.62876  0.63745  0.53068  1.0000
  S   S407      1.0  0.65930  0.33051  0.66751  1.0000
  H   H1782     1.0  0.50844  0.56773  0.63844  1.0000
  H   H1783     1.0  0.50156  0.44913  0.57039  1.0000
  C   C1491     1.0  0.82784  0.64119  0.64641  1.0000
  H   H1784     1.0  0.50690  0.37741  0.59404  1.0000
  H   H1785     1.0  0.56765  0.53871  0.49804  1.0000
  H   H1786     1.0  0.62591  0.51459  0.50867  1.0000
  H   H1787     1.0  0.68341  0.63515  0.59176  1.0000
  C   C1492     1.0  0.76942  0.60330  0.73940  1.0000
  C   C1493     1.0  0.61771  0.54658  0.51342  1.0000
  C   C1494     1.0  0.49826  0.58013  0.64710  1.0000
  H   H1788     1.0  0.63059  0.60057  0.55275  1.0000
  H   H1789     1.0  0.63192  0.59584  0.58006  1.0000
  C   C1495     1.0  0.59528  0.45317  0.50042  1.0000
  H   H1790     1.0  0.83978  0.32796  0.73030  1.0000
  H   H1791     1.0  0.83057  0.61435  0.69678  1.0000
  H   H1792     1.0  0.78519  0.58361  0.67974  1.0000
  H   H1793     1.0  0.73445  0.64983  0.71031  1.0000
  H   H1794     1.0  0.49271  0.56017  0.58286  1.0000
  S   S408      1.0  0.49500  0.48498  0.58877  1.0000
  H   H1795     1.0  0.55103  0.44003  0.49514  1.0000
  H   H1796     1.0  0.69277  0.33181  0.63004  1.0000
  H   H1797     1.0  0.64237  0.41620  0.49182  1.0000
  H   H1798     1.0  0.83136  0.65577  0.63546  1.0000
  C   C1496     1.0  0.49330  0.52700  0.58604  1.0000
  C   C1497     1.0  0.56717  0.44258  0.49131  1.0000
  C   C1498     1.0  0.72914  0.60685  0.73105  1.0000
  H   H1799     1.0  0.59674  0.64888  0.56768  1.0000
  C   C1499     1.0  0.63839  0.45753  0.49308  1.0000
  C   C1500     1.0  0.49319  0.38959  0.59787  1.0000
  S   S409      1.0  0.70766  0.65664  0.67733  1.0000
  H   H1800     1.0  0.80207  0.65756  0.69812  1.0000
  C   C1501     1.0  0.51508  0.41853  0.48999  1.0000
  H   H1801     1.0  0.83839  0.35107  0.73970  1.0000
  Fe  Fe207     1.0  0.91237  0.37071  0.86028  1.0000
  S   S410      1.0  0.93522  0.34858  0.87938  1.0000
  S   S411      1.0  0.91145  0.40575  0.85136  1.0000
  C   C1502     1.0  0.67795  0.63586  0.78864  1.0000
  S   S412      1.0  0.92160  0.35304  0.83409  1.0000
  Fe  Fe208     1.0  0.92355  0.51943  0.91135  1.0000
  S   S413      1.0  0.92339  0.54099  0.87928  1.0000
  Fe  Fe209     1.0  0.94019  0.47929  0.89445  1.0000
  S   S414      1.0  0.94172  0.49701  0.86071  1.0000
  S   S415      1.0  0.94875  0.44393  0.90635  1.0000
  Fe  Fe210     1.0  0.95498  0.51998  0.87002  1.0000
  H   H1802     1.0  0.97785  0.60326  0.95943  1.0000
  Fe  Fe211     1.0  0.90994  0.51638  0.87264  1.0000
  S   S416      1.0  0.88428  0.52187  0.85426  1.0000
  S   S417      1.0  0.95641  0.50050  0.90275  1.0000
  S   S418      1.0  0.90718  0.49655  0.90572  1.0000
  S   S419      1.0  0.88506  0.35496  0.87822  1.0000
  Fe  Fe212     1.0  0.81352  0.62433  0.80245  1.0000
  C   C1503     1.0  0.96359  0.33171  0.92464  1.0000
  S   S420      1.0  0.83729  0.61645  0.82338  1.0000
  Fe  Fe213     1.0  0.76581  0.63695  0.80618  1.0000
  H   H1803     1.0  0.81503  0.61046  0.92873  1.0000
  H   H1804     1.0  0.84326  0.57932  0.92148  1.0000
  C   C1504     1.0  0.75124  0.60503  0.75559  1.0000
  C   C1505     1.0  0.63959  0.63609  0.74588  1.0000
  C   C1506     1.0  0.88540  0.35070  0.78688  1.0000
  C   C1507     1.0  0.96297  0.36207  0.93787  1.0000
  S   S421      1.0  0.78894  0.60600  0.80402  1.0000
  S   S422      1.0  0.90943  0.38853  0.97348  1.0000
  H   H1805     1.0  0.93808  0.46666  0.93913  1.0000
  C   C1508     1.0  0.66977  0.63762  0.77087  1.0000
  H   H1806     1.0  0.89034  0.46563  0.95721  1.0000
  C   C1509     1.0  0.96868  0.52994  0.95384  1.0000
  C   C1510     1.0  0.91273  0.33178  0.96060  1.0000
  C   C1511     1.0  0.73118  0.60641  0.75149  1.0000
  H   H1807     1.0  0.67713  0.62585  0.76136  1.0000
  H   H1808     1.0  0.84405  0.56249  0.89250  1.0000
  S   S423      1.0  0.79001  0.65443  0.80683  1.0000
  H   H1809     1.0  0.77240  0.63993  0.85298  1.0000
  C   C1512     1.0  0.99023  0.33829  0.84504  1.0000
  H   H1810     1.0  0.97967  0.39130  0.84413  1.0000
  H   H1811     1.0  0.69739  0.64991  0.85994  1.0000
  H   H1812     1.0  0.93430  0.54019  0.81006  1.0000
  H   H1813     1.0  0.77129  0.60541  0.84930  1.0000
  C   C1513     1.0  0.89882  0.35917  0.93283  1.0000
  C   C1514     1.0  0.99053  0.55983  0.89236  1.0000
  H   H1814     1.0  0.89510  0.39147  0.93569  1.0000
  C   C1515     1.0  0.89999  0.37483  0.94268  1.0000
  N   N101      1.0  0.64497  0.65640  0.74586  1.0000
  H   H1815     1.0  0.98619  0.37403  0.89733  1.0000
  H   H1816     1.0  0.82037  0.33439  0.77462  1.0000
  C   C1516     1.0  0.87119  0.54819  0.84576  1.0000
  C   C1517     1.0  0.85693  0.55237  0.83228  1.0000
  C   C1518     1.0  0.84640  0.57330  0.82520  1.0000
  C   C1519     1.0  0.85012  0.59006  0.83166  1.0000
  C   C1520     1.0  0.86424  0.58585  0.84525  1.0000
  C   C1521     1.0  0.87475  0.56498  0.85229  1.0000
  H   H1817     1.0  0.85414  0.53942  0.82715  1.0000
  H   H1818     1.0  0.83554  0.57647  0.81467  1.0000
  H   H1819     1.0  0.86697  0.59880  0.85043  1.0000
  H   H1820     1.0  0.88538  0.56192  0.86295  1.0000
  H   H1821     1.0  0.91071  0.44836  0.94237  1.0000
  H   H1822     1.0  0.94562  0.53938  0.83149  1.0000
  N   N102      1.0  0.78273  0.61071  0.87444  1.0000
  H   H1823     1.0  0.94358  0.42968  0.95616  1.0000
  H   H1824     1.0  0.92298  0.58054  0.84338  1.0000
  H   H1825     1.0  0.94703  0.33845  0.92227  1.0000
  C   C1522     1.0  0.85456  0.35121  0.77382  1.0000
  C   C1523     1.0  0.86389  0.33129  0.76810  1.0000
  H   H1826     1.0  0.94282  0.47328  0.96138  1.0000
  C   C1524     1.0  0.92550  0.41344  0.86581  1.0000
  C   C1525     1.0  0.93472  0.43128  0.85661  1.0000
  C   C1526     1.0  0.94280  0.44002  0.86889  1.0000
  C   C1527     1.0  0.94156  0.43106  0.89046  1.0000
  C   C1528     1.0  0.93320  0.41263  0.89955  1.0000
  C   C1529     1.0  0.92525  0.40373  0.88717  1.0000
  H   H1827     1.0  0.93522  0.43861  0.84001  1.0000
  H   H1828     1.0  0.94997  0.45370  0.86161  1.0000
  H   H1829     1.0  0.93197  0.40585  0.91632  1.0000
  H   H1830     1.0  0.91780  0.39014  0.89441  1.0000
  N   N103      1.0  0.86880  0.46200  0.87336  1.0000
  C   C1530     1.0  0.88572  0.46788  0.85480  1.0000
  C   C1531     1.0  0.85471  0.48172  0.87926  1.0000
  C   C1532     1.0  0.87904  0.45029  0.89157  1.0000
  C   C1533     1.0  0.85665  0.44938  0.86761  1.0000
  C   C1534     1.0  0.84306  0.45924  0.85300  1.0000
  C   C1535     1.0  0.85911  0.42693  0.87491  1.0000
  C   C1536     1.0  0.83210  0.44748  0.84667  1.0000
  C   C1537     1.0  0.84821  0.41532  0.86834  1.0000
  C   C1538     1.0  0.83467  0.42556  0.85435  1.0000
  H   H1831     1.0  0.89674  0.47561  0.85874  1.0000
  H   H1832     1.0  0.89539  0.45357  0.84875  1.0000
  H   H1833     1.0  0.87910  0.47916  0.84142  1.0000
  H   H1834     1.0  0.84039  0.47808  0.89147  1.0000
  H   H1835     1.0  0.84939  0.49353  0.86547  1.0000
  H   H1836     1.0  0.86306  0.49031  0.88569  1.0000
  H   H1837     1.0  0.89157  0.43656  0.88756  1.0000
  H   H1838     1.0  0.84123  0.47603  0.84593  1.0000
  H   H1839     1.0  0.86996  0.41777  0.88510  1.0000
  H   H1840     1.0  0.82190  0.45533  0.83541  1.0000
  H   H1841     1.0  0.85075  0.39815  0.87373  1.0000
  H   H1842     1.0  0.82651  0.41638  0.84913  1.0000
  H   H1843     1.0  0.91743  0.54855  0.83320  1.0000
  H   H1844     1.0  0.75267  0.60500  0.77133  1.0000
  H   H1845     1.0  0.95973  0.58707  0.79057  1.0000
  H   H1846     1.0  0.69106  0.62299  0.79252  1.0000
  H   H1847     1.0  0.81762  0.57606  0.87077  1.0000
  C   C1539     1.0  0.95691  0.57067  0.79794  1.0000
  C   C1540     1.0  0.89524  0.33144  0.78097  1.0000
  C   C1541     1.0  0.93326  0.54892  0.82239  1.0000
  S   S424      1.0  0.98329  0.53208  0.84853  1.0000
  N   N104      1.0  0.97518  0.34870  0.92239  1.0000
  C   C1542     1.0  0.88474  0.60666  0.78223  1.0000
  H   H1848     1.0  0.95684  0.53129  0.92634  1.0000
  C   C1543     1.0  0.95288  0.53027  0.94323  1.0000
  C   C1544     1.0  0.93190  0.53012  0.95443  1.0000
  H   H1849     1.0  0.75771  0.62178  0.89953  1.0000
  C   C1545     1.0  0.93528  0.43387  0.97171  1.0000
  Fe  Fe214     1.0  0.94284  0.32957  0.85447  1.0000
  H   H1850     1.0  0.87973  0.62907  0.80167  1.0000
  N   N105      1.0  0.91916  0.45390  0.96917  1.0000
  C   C1546     1.0  0.93803  0.57972  0.83115  1.0000
  H   H1851     1.0  0.94203  0.59579  0.82545  1.0000
  S   S425      1.0  0.82047  0.63420  0.76698  1.0000
  H   H1852     1.0  0.86721  0.44445  0.90572  1.0000
  H   H1853     1.0  0.88737  0.46035  0.89616  1.0000
  C   C1547     1.0  0.89694  0.58775  0.77686  1.0000
  S   S426      1.0  0.98312  0.52941  0.98893  1.0000
  C   C1548     1.0  0.88958  0.61451  0.79731  1.0000
  C   C1549     1.0  0.83146  0.57597  0.89580  1.0000
  H   H1854     1.0  0.91068  0.52929  0.98493  1.0000
  Fe  Fe215     1.0  0.79336  0.61889  0.76887  1.0000
  H   H1855     1.0  0.91731  0.48961  0.98525  1.0000
  H   H1856     1.0  0.79950  0.59876  0.84641  1.0000
  C   C1550     1.0  0.90328  0.45122  0.95861  1.0000
  H   H1857     1.0  0.89299  0.36372  0.91829  1.0000
  H   H1858     1.0  0.98477  0.53059  0.94506  1.0000
  H   H1859     1.0  0.96384  0.36397  0.83860  1.0000
  H   H1860     1.0  0.97055  0.56163  0.80564  1.0000
  H   H1861     1.0  0.98893  0.58341  0.94406  1.0000
  H   H1862     1.0  0.95970  0.35243  0.95431  1.0000
  S   S427      1.0  0.79483  0.60139  0.74393  1.0000
  H   H1863     1.0  0.80047  0.63332  0.85262  1.0000
  S   S428      1.0  0.91166  0.53045  0.94186  1.0000
  S   S429      1.0  0.73689  0.63735  0.83264  1.0000
  N   N106      1.0  0.93637  0.57110  0.81345  1.0000
  H   H1864     1.0  0.95945  0.37176  0.89878  1.0000
  C   C1551     1.0  0.76127  0.61103  0.88839  1.0000
  H   H1865     1.0  0.83883  0.35947  0.77144  1.0000
  H   H1866     1.0  0.95090  0.56956  0.83939  1.0000
  H   H1867     1.0  0.95753  0.56293  0.78495  1.0000
  H   H1868     1.0  0.92289  0.56197  0.78196  1.0000
  H   H1869     1.0  0.78770  0.62485  0.90748  1.0000
  C   C1552     1.0  0.91880  0.58369  0.80272  1.0000
  C   C1553     1.0  0.90629  0.60328  0.80750  1.0000
  C   C1554     1.0  0.91386  0.57650  0.78675  1.0000
  S   S430      1.0  0.76806  0.64826  0.77117  1.0000
  C   C1555     1.0  0.97938  0.35950  0.84258  1.0000
  H   H1870     1.0  0.85982  0.36998  0.98144  1.0000
  H   H1871     1.0  0.96524  0.54925  0.88609  1.0000
  C   C1556     1.0  0.92686  0.52939  0.97618  1.0000
  C   C1557     1.0  0.90772  0.36892  0.96140  1.0000
  C   C1558     1.0  0.78428  0.59851  0.85833  1.0000
  C   C1559     1.0  0.79939  0.60174  0.88722  1.0000
  C   C1560     1.0  0.86513  0.36062  0.78325  1.0000
  C   C1561     1.0  0.79954  0.61107  0.90391  1.0000
  C   C1562     1.0  0.83107  0.58546  0.91209  1.0000
  H   H1872     1.0  0.98083  0.56524  0.90638  1.0000
  H   H1873     1.0  0.85741  0.37538  0.78831  1.0000
  C   C1563     1.0  0.93020  0.47075  0.95473  1.0000
  H   H1874     1.0  0.94743  0.43508  0.97978  1.0000
  C   C1564     1.0  0.81598  0.58394  0.88343  1.0000
  H   H1875     1.0  0.62820  0.63077  0.76069  1.0000
  H   H1876     1.0  0.86094  0.33423  0.97873  1.0000
  C   C1565     1.0  0.65279  0.65445  0.76524  1.0000
  H   H1877     1.0  0.97142  0.37460  0.93753  1.0000
  C   C1566     1.0  0.98171  0.55076  0.88087  1.0000
  H   H1878     1.0  0.97925  0.57530  0.97189  1.0000
  H   H1879     1.0  0.78294  0.58171  0.86572  1.0000
  C   C1567     1.0  0.91423  0.34740  0.97020  1.0000
  H   H1880     1.0  0.75963  0.59482  0.89790  1.0000
  C   C1568     1.0  0.97553  0.36252  0.90085  1.0000
  H   H1881     1.0  0.71722  0.60748  0.76410  1.0000
  H   H1882     1.0  0.74849  0.61687  0.87898  1.0000
  H   H1883     1.0  0.97761  0.44994  0.93068  1.0000
  C   C1569     1.0  0.78445  0.63281  0.86311  1.0000
  C   C1570     1.0  0.81516  0.60299  0.91614  1.0000
  H   H1884     1.0  0.90871  0.61014  0.81935  1.0000
  H   H1885     1.0  0.89323  0.35758  0.79496  1.0000
  H   H1886     1.0  0.98402  0.45783  0.96234  1.0000
  S   S431      1.0  0.86985  0.33052  0.84104  1.0000
  H   H1887     1.0  0.94708  0.37034  0.93435  1.0000
  C   C1571     1.0  0.98844  0.37503  0.84551  1.0000
  Fe  Fe216     1.0  0.90900  0.33072  0.89475  1.0000
  C   C1572     1.0  0.98721  0.43791  0.94073  1.0000
  H   H1888     1.0  0.98076  0.35325  0.88824  1.0000
  H   H1889     1.0  0.91880  0.48609  0.95149  1.0000
  H   H1890     1.0  0.78194  0.64352  0.87408  1.0000
  H   H1891     1.0  0.67591  0.64938  0.81506  1.0000
  H   H1892     1.0  0.89305  0.58169  0.76514  1.0000
  Fe  Fe217     1.0  0.89623  0.33500  0.85366  1.0000
  C   C1573     1.0  0.94271  0.52844  0.98683  1.0000
  C   C1574     1.0  0.90496  0.33764  0.94198  1.0000
  C   C1575     1.0  0.96356  0.52914  0.97571  1.0000
  H   H1893     1.0  0.87128  0.61514  0.77497  1.0000
  H   H1894     1.0  0.92809  0.42010  0.98129  1.0000
  H   H1895     1.0  0.65385  0.62301  0.74439  1.0000
  C   C1576     1.0  0.98782  0.58703  0.95971  1.0000
  C   C1577     1.0  0.66946  0.65071  0.80135  1.0000
  H   H1896     1.0  0.89591  0.43727  0.96729  1.0000
  H   H1897     1.0  0.92007  0.34269  0.98459  1.0000
  C   C1578     1.0  0.99096  0.44237  0.95844  1.0000
  H   H1898     1.0  0.70475  0.65101  0.74003  1.0000
  H   H1899     1.0  0.59375  0.82583  0.00462  1.0000
  C   C1579     1.0  0.77354  0.66678  0.19636  1.0000
  Fe  Fe218     1.0  0.71364  0.77633  0.20864  1.0000
  S   S432      1.0  0.73078  0.74726  0.19598  1.0000
  H   H1900     1.0  0.59064  0.82708  0.10012  1.0000
  Fe  Fe219     1.0  0.69981  0.80003  0.16720  1.0000
  S   S433      1.0  0.71640  0.77307  0.15084  1.0000
  S   S434      1.0  0.67881  0.82973  0.15242  1.0000
  Fe  Fe220     1.0  0.70283  0.75260  0.18130  1.0000
  S   S435      1.0  0.68747  0.72667  0.18063  1.0000
  Fe  Fe221     1.0  0.74285  0.77041  0.16705  1.0000
  S   S436      1.0  0.77793  0.76344  0.15414  1.0000
  S   S437      1.0  0.68424  0.77955  0.19668  1.0000
  S   S438      1.0  0.72761  0.79943  0.18063  1.0000
  H   H1901     1.0  0.57326  0.90796  0.06801  1.0000
  C   C1580     1.0  0.77698  0.73663  0.21603  1.0000
  H   H1902     1.0  0.59170  0.96968  0.07184  1.0000
  S   S439      1.0  0.64086  0.96698  0.09698  1.0000
  S   S440      1.0  0.61431  0.84003  0.04103  1.0000
  Fe  Fe222     1.0  0.62257  0.89724  0.03389  1.0000
  S   S441      1.0  0.61672  0.87581  0.06609  1.0000
  S   S442      1.0  0.62701  0.93093  0.02491  1.0000
  Fe  Fe223     1.0  0.63936  0.85045  0.05043  1.0000
  S   S443      1.0  0.66630  0.82664  0.06307  1.0000
  Fe  Fe224     1.0  0.59228  0.86734  0.05402  1.0000
  S   S444      1.0  0.55992  0.86485  0.07407  1.0000
  C   C1581     1.0  0.62160  0.80651  0.09752  1.0000
  S   S445      1.0  0.59606  0.89115  0.02308  1.0000
  C   C1582     1.0  0.63723  0.95669  0.07712  1.0000
  C   C1583     1.0  0.64055  0.96805  0.05614  1.0000
  C   C1584     1.0  0.63779  0.95973  0.04018  1.0000
  C   C1585     1.0  0.63115  0.94038  0.04520  1.0000
  C   C1586     1.0  0.62778  0.92904  0.06623  1.0000
  C   C1587     1.0  0.63087  0.93717  0.08220  1.0000
  C   C1588     1.0  0.54467  0.81943  0.00415  1.0000
  C   C1589     1.0  0.61225  0.79563  0.14168  1.0000
  H   H1903     1.0  0.62276  0.91408  0.07024  1.0000
  H   H1904     1.0  0.62804  0.92851  0.09848  1.0000
  C   C1590     1.0  0.51749  0.87041  0.02866  1.0000
  C   C1591     1.0  0.53953  0.86675  0.02199  1.0000
  C   C1592     1.0  0.55246  0.86478  0.03608  1.0000
  C   C1593     1.0  0.54336  0.86667  0.05695  1.0000
  C   C1594     1.0  0.52119  0.87046  0.06377  1.0000
  S   S446      1.0  0.50217  0.87232  0.01038  1.0000
  H   H1905     1.0  0.51410  0.87215  0.07989  1.0000
  H   H1906     1.0  0.56952  0.86128  0.03084  1.0000
  H   H1907     1.0  0.52945  0.77263  0.03359  1.0000
  H   H1908     1.0  0.77910  0.74090  0.19842  1.0000
  C   C1595     1.0  0.67526  0.82859  0.12774  1.0000
  C   C1596     1.0  0.69176  0.81825  0.11394  1.0000
  C   C1597     1.0  0.68880  0.81768  0.09414  1.0000
  C   C1598     1.0  0.66943  0.82762  0.08798  1.0000
  C   C1599     1.0  0.65289  0.83791  0.10181  1.0000
  C   C1600     1.0  0.65577  0.83829  0.12172  1.0000
  H   H1909     1.0  0.70697  0.81106  0.11831  1.0000
  H   H1910     1.0  0.70166  0.80975  0.08344  1.0000
  H   H1911     1.0  0.63778  0.84526  0.09737  1.0000
  H   H1912     1.0  0.64285  0.84604  0.13249  1.0000
  C   C1601     1.0  0.78719  0.73740  0.15011  1.0000
  C   C1602     1.0  0.77362  0.72642  0.14647  1.0000
  C   C1603     1.0  0.78143  0.70569  0.14296  1.0000
  C   C1604     1.0  0.80250  0.69560  0.14403  1.0000
  C   C1605     1.0  0.81588  0.70641  0.14820  1.0000
  C   C1606     1.0  0.80836  0.72746  0.15074  1.0000
  H   H1913     1.0  0.75730  0.73413  0.14578  1.0000
  H   H1914     1.0  0.77111  0.69739  0.13960  1.0000
  H   H1915     1.0  0.83221  0.69875  0.14892  1.0000
  H   H1916     1.0  0.81894  0.73606  0.15319  1.0000
  H   H1917     1.0  0.72913  0.69325  0.22419  1.0000
  C   C1607     1.0  0.54124  0.98277  0.09911  1.0000
  C   C1608     1.0  0.66579  0.69802  0.20941  1.0000
  C   C1609     1.0  0.67891  0.71243  0.20628  1.0000
  H   H1918     1.0  0.50048  0.82620  0.01008  1.0000
  Fe  Fe225     1.0  0.62033  0.86455  0.01104  1.0000
  H   H1919     1.0  0.70831  0.67135  0.22315  1.0000
  H   H1920     1.0  0.66076  0.69597  0.19610  1.0000
  H   H1921     1.0  0.75289  0.67880  0.23328  1.0000
  C   C1610     1.0  0.57666  0.97392  0.01073  1.0000
  H   H1922     1.0  0.67792  0.90327  0.02987  1.0000
  H   H1923     1.0  0.53186  0.95604  0.01612  1.0000
  H   H1924     1.0  0.85557  0.77263  0.18910  1.0000
  C   C1611     1.0  0.85851  0.70490  0.23120  1.0000
  H   H1925     1.0  0.67635  0.77929  0.12090  1.0000
  H   H1926     1.0  0.54665  0.86490  0.00601  1.0000
  H   H1927     1.0  0.66859  0.75646  0.11749  1.0000
  C   C1612     1.0  0.60208  0.81563  0.10864  1.0000
  S   S447      1.0  0.87153  0.65967  0.15165  1.0000
  H   H1928     1.0  0.87750  0.78253  0.23294  1.0000
  H   H1929     1.0  0.88301  0.74931  0.22054  1.0000
  C   C1613     1.0  0.57118  0.81409  0.03216  1.0000
  C   C1614     1.0  0.55095  0.80914  0.03990  1.0000
  H   H1930     1.0  0.77965  0.79992  0.22230  1.0000
  H   H1931     1.0  0.74719  0.79402  0.21507  1.0000
  H   H1932     1.0  0.68181  0.93478  0.04021  1.0000
  C   C1615     1.0  0.54182  0.92491  0.06463  1.0000
  N   N107      1.0  0.75019  0.67209  0.20454  1.0000
  N   N108      1.0  0.64800  0.77112  0.14281  1.0000
  C   C1616     1.0  0.66929  0.76507  0.12933  1.0000
  C   C1617     1.0  0.65124  0.78023  0.15942  1.0000
  C   C1618     1.0  0.63959  0.75146  0.15317  1.0000
  C   C1619     1.0  0.63255  0.78648  0.13083  1.0000
  C   C1620     1.0  0.63668  0.79219  0.10832  1.0000
  H   H1933     1.0  0.68079  0.75414  0.13889  1.0000
  H   H1934     1.0  0.66387  0.76958  0.16763  1.0000
  H   H1935     1.0  0.63685  0.78262  0.17209  1.0000
  H   H1936     1.0  0.65612  0.79582  0.15248  1.0000
  H   H1937     1.0  0.63668  0.74425  0.14126  1.0000
  H   H1938     1.0  0.65094  0.73927  0.16205  1.0000
  H   H1939     1.0  0.62439  0.75448  0.16480  1.0000
  H   H1940     1.0  0.65165  0.78630  0.09855  1.0000
  H   H1941     1.0  0.54624  0.80353  0.05681  1.0000
  H   H1942     1.0  0.69531  0.72632  0.22129  1.0000
  C   C1621     1.0  0.67983  0.88276  0.06047  1.0000
  N   N109      1.0  0.68492  0.89710  0.11006  1.0000
  H   H1943     1.0  0.66185  0.87687  0.12313  1.0000
  H   H1944     1.0  0.86256  0.71936  0.22067  1.0000
  S   S448      1.0  0.81173  0.66921  0.14103  1.0000
  H   H1945     1.0  0.68470  0.93305  0.07591  1.0000
  H   H1946     1.0  0.60774  0.79167  0.15876  1.0000
  H   H1947     1.0  0.76331  0.72845  0.22279  1.0000
  C   C1622     1.0  0.56194  0.92292  0.06836  1.0000
  C   C1623     1.0  0.68177  0.88126  0.08114  1.0000
  H   H1948     1.0  0.71808  0.88199  0.10450  1.0000
  C   C1624     1.0  0.66487  0.89206  0.12438  1.0000
  C   C1625     1.0  0.68813  0.91680  0.11414  1.0000
  H   H1949     1.0  0.70031  0.86372  0.11596  1.0000
  H   H1950     1.0  0.65097  0.90476  0.12064  1.0000
  H   H1951     1.0  0.70496  0.87845  0.13208  1.0000
  H   H1952     1.0  0.70302  0.92153  0.10389  1.0000
  H   H1953     1.0  0.66520  0.89025  0.14133  1.0000
  C   C1626     1.0  0.68213  0.91973  0.05162  1.0000
  H   H1954     1.0  0.67448  0.93032  0.11143  1.0000
  H   H1955     1.0  0.53755  0.91156  0.06151  1.0000
  H   H1956     1.0  0.62541  0.81095  0.08036  1.0000
  H   H1957     1.0  0.58135  0.81249  0.04302  1.0000
  S   S449      1.0  0.87093  0.68798  0.19601  1.0000
  H   H1958     1.0  0.51148  0.94547  0.06227  1.0000
  C   C1627     1.0  0.74634  0.68690  0.21881  1.0000
  N   N110      1.0  0.51600  0.80541  0.03470  1.0000
  C   C1628     1.0  0.56742  0.93988  0.07291  1.0000
  H   H1959     1.0  0.77237  0.75187  0.22143  1.0000
  H   H1960     1.0  0.58213  0.81722  0.13930  1.0000
  C   C1629     1.0  0.74962  0.78974  0.23110  1.0000
  H   H1961     1.0  0.51160  0.79939  0.00614  1.0000
  H   H1962     1.0  0.64575  0.98302  0.05213  1.0000
  H   H1963     1.0  0.64138  0.96803  0.02386  1.0000
  H   H1964     1.0  0.81753  0.69372  0.21774  1.0000
  H   H1965     1.0  0.74675  0.69764  0.17713  1.0000
  H   H1966     1.0  0.68934  0.91473  0.13088  1.0000
  H   H1967     1.0  0.58329  0.93717  0.07561  1.0000
  H   H1968     1.0  0.67810  0.86894  0.05591  1.0000
  C   C1630     1.0  0.56302  0.95978  0.01576  1.0000
  N   N111      1.0  0.55733  0.97724  0.08029  1.0000
  C   C1631     1.0  0.59737  0.81012  0.13070  1.0000
  H   H1969     1.0  0.50358  0.77702  0.05075  1.0000
  C   C1632     1.0  0.81371  0.73588  0.21397  1.0000
  C   C1633     1.0  0.53704  0.81158  0.02615  1.0000
  C   C1634     1.0  0.82917  0.73321  0.19516  1.0000
  C   C1635     1.0  0.82913  0.76552  0.21445  1.0000
  C   C1636     1.0  0.84412  0.74627  0.18644  1.0000
  C   C1637     1.0  0.84409  0.76243  0.19603  1.0000
  C   C1638     1.0  0.85628  0.66808  0.23686  1.0000
  C   C1639     1.0  0.67991  0.90200  0.04576  1.0000
  H   H1970     1.0  0.51069  0.81540  0.06433  1.0000
  S   S450      1.0  0.64740  0.87267  0.01919  1.0000
  H   H1971     1.0  0.52507  0.98947  0.09563  1.0000
  C   C1640     1.0  0.80178  0.70338  0.21482  1.0000
  H   H1972     1.0  0.54014  0.96854  0.11234  1.0000
  C   C1641     1.0  0.68385  0.91845  0.07234  1.0000
  N   N112      1.0  0.79667  0.72338  0.22261  1.0000
  H   H1973     1.0  0.80203  0.70650  0.19757  1.0000
  H   H1974     1.0  0.83028  0.72094  0.18695  1.0000
  H   H1975     1.0  0.85585  0.74366  0.17220  1.0000
  H   H1976     1.0  0.68156  0.86602  0.09195  1.0000
  C   C1642     1.0  0.54259  0.96699  0.01164  1.0000
  C   C1643     1.0  0.57860  0.97236  0.08575  1.0000
  H   H1977     1.0  0.52646  0.77872  0.05889  1.0000
  H   H1978     1.0  0.75375  0.70094  0.21078  1.0000
  C   C1644     1.0  0.70285  0.87964  0.11581  1.0000
  C   C1645     1.0  0.57819  0.82163  0.01054  1.0000
  C   C1646     1.0  0.53238  0.96105  0.06979  1.0000
  H   H1979     1.0  0.56826  0.94327  0.02311  1.0000
  C   C1647     1.0  0.68368  0.89906  0.08781  1.0000
  H   H1980     1.0  0.72271  0.68910  0.19092  1.0000
  C   C1648     1.0  0.56498  0.82427  0.99658  1.0000
  H   H1981     1.0  0.52026  0.97540  0.07028  1.0000
  H   H1982     1.0  0.78014  0.68122  0.18762  1.0000
  C   C1649     1.0  0.51903  0.78245  0.04491  1.0000
  C   C1650     1.0  0.55257  0.95939  0.07423  1.0000
  C   C1651     1.0  0.65902  0.68631  0.22980  1.0000
  H   H1983     1.0  0.58037  0.95819  0.09898  1.0000
  C   C1652     1.0  0.52715  0.94401  0.06513  1.0000
  C   C1653     1.0  0.68540  0.71502  0.22354  1.0000
  C   C1654     1.0  0.86141  0.68680  0.22318  1.0000
  C   C1655     1.0  0.50792  0.92862  0.01076  1.0000
  H   H1984     1.0  0.78978  0.69327  0.22281  1.0000
  C   C1656     1.0  0.50820  0.87240  0.04956  1.0000
  C   C1657     1.0  0.74013  0.68330  0.18615  1.0000
  H   H1985     1.0  0.49998  0.83499  0.04372  1.0000
  H   H1986     1.0  0.53521  0.82230  0.99245  1.0000
  C   C1658     1.0  0.81411  0.75256  0.22323  1.0000
  C   C1659     1.0  0.50299  0.81771  0.05081  1.0000
  C   C1660     1.0  0.50343  0.80910  0.01823  1.0000
  H   H1987     1.0  0.59251  0.96838  0.01416  1.0000
  H   H1988     1.0  0.51122  0.91356  0.02177  1.0000
  Fe  Fe226     1.0  0.86377  0.66148  0.18592  1.0000
  C   C1661     1.0  0.53578  0.98832  0.00216  1.0000
  H   H1989     1.0  0.74265  0.67272  0.17499  1.0000
  H   H1990     1.0  0.82881  0.77827  0.22185  1.0000
  H   H1991     1.0  0.64871  0.67530  0.23222  1.0000
  C   C1662     1.0  0.76797  0.79317  0.23522  1.0000
  C   C1663     1.0  0.88512  0.74854  0.23628  1.0000
  H   H1992     1.0  0.80254  0.75610  0.23709  1.0000
  H   H1993     1.0  0.58176  0.87874  0.99044  1.0000
  H   H1994     1.0  0.58133  0.98565  0.09119  1.0000
  C   C1664     1.0  0.49235  0.94514  0.01773  1.0000
  S   S451      1.0  0.82994  0.65856  0.19139  1.0000
  H   H1995     1.0  0.78224  0.65890  0.20946  1.0000
  Fe  Fe227     1.0  0.80337  0.76359  0.28879  1.0000
  S   S452      1.0  0.78890  0.73452  0.29935  1.0000
  Fe  Fe228     1.0  0.83104  0.74844  0.32149  1.0000
  S   S453      1.0  0.81847  0.71840  0.33528  1.0000
  S   S454      1.0  0.85750  0.75186  0.33474  1.0000
  Fe  Fe229     1.0  0.82204  0.71681  0.30158  1.0000
  S   S455      1.0  0.83535  0.68473  0.29357  1.0000
  Fe  Fe230     1.0  0.78655  0.73889  0.33197  1.0000
  S   S456      1.0  0.75817  0.73601  0.35879  1.0000
  S   S457      1.0  0.83688  0.74541  0.28788  1.0000
  S   S458      1.0  0.79870  0.76941  0.32133  1.0000
  H   H1996     1.0  0.92833  0.88143  0.39888  1.0000
  H   H1997     1.0  0.85951  0.97205  0.27503  1.0000
  H   H1998     1.0  0.90003  0.93126  0.47645  1.0000
  H   H1999     1.0  0.93119  0.70808  0.27841  1.0000
  S   S459      1.0  0.68436  0.69422  0.35482  1.0000
  C   C1665     1.0  0.65001  0.74851  0.26466  1.0000
  H   H2000     1.0  0.96506  0.87516  0.34024  1.0000
  S   S460      1.0  0.92956  0.98881  0.38341  1.0000
  H   H2001     1.0  0.64799  0.76150  0.33212  1.0000
  S   S461      1.0  0.69959  0.68776  0.29584  1.0000
  H   H2002     1.0  0.78480  0.73134  0.25362  1.0000
  Fe  Fe231     1.0  0.90216  0.84835  0.32282  1.0000
  S   S462      1.0  0.91571  0.82575  0.34986  1.0000
  S   S463      1.0  0.88734  0.83963  0.30045  1.0000
  Fe  Fe232     1.0  0.90914  0.88721  0.33357  1.0000
  S   S464      1.0  0.92354  0.86788  0.36121  1.0000
  S   S465      1.0  0.90434  0.92290  0.32599  1.0000
  Fe  Fe233     1.0  0.94095  0.84545  0.33990  1.0000
  N   N113      1.0  0.87029  0.95404  0.47617  1.0000
  Fe  Fe234     1.0  0.89710  0.85035  0.36847  1.0000
  S   S466      1.0  0.87827  0.84439  0.40173  1.0000
  S   S467      1.0  0.92888  0.86630  0.31128  1.0000
  S   S468      1.0  0.88127  0.87138  0.34248  1.0000
  C   C1666     1.0  0.89848  0.93174  0.34973  1.0000
  C   C1667     1.0  0.89273  0.91806  0.36920  1.0000
  C   C1668     1.0  0.88911  0.92480  0.38817  1.0000
  C   C1669     1.0  0.89138  0.94521  0.38774  1.0000
  C   C1670     1.0  0.89660  0.95912  0.36827  1.0000
  C   C1671     1.0  0.90002  0.95242  0.34929  1.0000
  H   H2003     1.0  0.89054  0.90243  0.36968  1.0000
  H   H2004     1.0  0.88462  0.91412  0.40315  1.0000
  H   H2005     1.0  0.90410  0.96319  0.33433  1.0000
  H   H2006     1.0  0.66611  0.73687  0.33920  1.0000
  H   H2007     1.0  0.83869  0.92729  0.38811  1.0000
  C   C1672     1.0  0.93172  0.82747  0.42512  1.0000
  C   C1673     1.0  0.91707  0.82982  0.41256  1.0000
  C   C1674     1.0  0.89636  0.84139  0.41768  1.0000
  C   C1675     1.0  0.89051  0.85115  0.43501  1.0000
  C   C1676     1.0  0.84831  0.66748  0.25854  1.0000
  H   H2008     1.0  0.94758  0.81813  0.42132  1.0000
  H   H2009     1.0  0.92173  0.82244  0.39903  1.0000
  H   H2010     1.0  0.87463  0.86051  0.43868  1.0000
  S   S469      1.0  0.94456  0.83343  0.45810  1.0000
  H   H2011     1.0  0.68483  0.78362  0.30741  1.0000
  C   C1677     1.0  0.86715  0.77541  0.32330  1.0000
  C   C1678     1.0  0.85783  0.79120  0.30806  1.0000
  C   C1679     1.0  0.86496  0.81049  0.30022  1.0000
  C   C1680     1.0  0.88086  0.81429  0.30814  1.0000
  C   C1681     1.0  0.89071  0.79814  0.32275  1.0000
  C   C1682     1.0  0.88397  0.77867  0.33020  1.0000
  H   H2012     1.0  0.84490  0.78873  0.30257  1.0000
  H   H2013     1.0  0.85753  0.82282  0.28863  1.0000
  H   H2014     1.0  0.90348  0.80064  0.32836  1.0000
  H   H2015     1.0  0.89142  0.76635  0.34178  1.0000
  C   C1683     1.0  0.73796  0.72464  0.35653  1.0000
  C   C1684     1.0  0.74057  0.71383  0.34043  1.0000
  C   C1685     1.0  0.72444  0.70384  0.34005  1.0000
  C   C1686     1.0  0.70545  0.70532  0.35537  1.0000
  C   C1687     1.0  0.70279  0.71640  0.37118  1.0000
  C   C1688     1.0  0.71906  0.72582  0.37188  1.0000
  H   H2016     1.0  0.75515  0.71278  0.32860  1.0000
  H   H2017     1.0  0.72661  0.69526  0.32778  1.0000
  H   H2018     1.0  0.68817  0.71760  0.38302  1.0000
  H   H2019     1.0  0.71699  0.73411  0.38437  1.0000
  C   C1689     1.0  0.84507  0.68574  0.26645  1.0000
  C   C1690     1.0  0.88458  0.76629  0.26345  1.0000
  C   C1691     1.0  0.73472  0.78055  0.24766  1.0000
  C   C1692     1.0  0.89548  0.79739  0.48056  1.0000
  H   H2020     1.0  0.78118  0.70632  0.25276  1.0000
  C   C1693     1.0  0.64178  0.73029  0.27480  1.0000
  H   H2021     1.0  0.73501  0.66866  0.40133  1.0000
  C   C1694     1.0  0.91788  0.70540  0.29231  1.0000
  Fe  Fe235     1.0  0.93629  0.85376  0.48208  1.0000
  C   C1695     1.0  0.64443  0.72007  0.29526  1.0000
  H   H2022     1.0  0.66112  0.78807  0.29724  1.0000
  H   H2023     1.0  0.70691  0.74672  0.31336  1.0000
  H   H2024     1.0  0.96792  0.92723  0.36218  1.0000
  S   S470      1.0  0.79567  0.78899  0.26070  1.0000
  C   C1696     1.0  0.78534  0.67344  0.31247  1.0000
  C   C1697     1.0  0.84967  0.96060  0.32976  1.0000
  H   H2025     1.0  0.88483  0.80580  0.46927  1.0000
  S   S471      1.0  0.88808  0.95305  0.41157  1.0000
  H   H2026     1.0  0.68434  0.70473  0.25709  1.0000
  H   H2027     1.0  0.89278  0.71498  0.24313  1.0000
  C   C1698     1.0  0.79244  0.71745  0.24619  1.0000
  S   S472      1.0  0.91123  0.88352  0.48218  1.0000
  H   H2028     1.0  0.92290  0.68966  0.30261  1.0000
  S   S473      1.0  0.97548  0.83023  0.33941  1.0000
  H   H2029     1.0  0.70500  0.74230  0.28848  1.0000
  C   C1699     1.0  0.84261  0.95785  0.36824  1.0000
  C   C1700     1.0  0.85647  0.96399  0.46046  1.0000
  H   H2030     1.0  0.64879  0.75584  0.24836  1.0000
  H   H2031     1.0  0.85106  0.93019  0.32187  1.0000
  H   H2032     1.0  0.90519  0.67254  0.28750  1.0000
  C   C1701     1.0  0.89025  0.94195  0.46524  1.0000
  H   H2033     1.0  0.94663  0.97225  0.46852  1.0000
  C   C1702     1.0  0.89068  0.72877  0.24958  1.0000
  H   H2034     1.0  0.86539  0.70542  0.29970  1.0000
  H   H2035     1.0  0.82082  0.98724  0.30838  1.0000
  H   H2036     1.0  0.94241  0.93971  0.35605  1.0000
  C   C1703     1.0  0.73805  0.77525  0.26841  1.0000
  C   C1704     1.0  0.77624  0.67200  0.35880  1.0000
  H   H2037     1.0  0.93985  0.91615  0.43853  1.0000
  C   C1705     1.0  0.95385  0.97399  0.32813  1.0000
  H   H2038     1.0  0.67525  0.66861  0.40146  1.0000
  H   H2039     1.0  0.80107  0.66755  0.25536  1.0000
  H   H2040     1.0  0.84049  0.97211  0.46782  1.0000
  N   N114      1.0  0.96856  0.95405  0.33569  1.0000
  H   H2041     1.0  0.66730  0.77048  0.26598  1.0000
  H   H2042     1.0  0.84168  0.95595  0.29275  1.0000
  S   S474      1.0  0.75798  0.66881  0.27723  1.0000
  H   H2043     1.0  0.85378  0.95200  0.45311  1.0000
  C   C1706     1.0  0.95875  0.87047  0.40809  1.0000
  H   H2044     1.0  0.88372  0.68930  0.31582  1.0000
  H   H2045     1.0  0.72658  0.76843  0.28134  1.0000
  C   C1707     1.0  0.66059  0.75684  0.27509  1.0000
  C   C1708     1.0  0.90135  0.68779  0.27600  1.0000
  H   H2046     1.0  0.88208  0.78089  0.26884  1.0000
  C   C1709     1.0  0.89293  0.72720  0.27054  1.0000
  H   H2047     1.0  0.69638  0.72473  0.31287  1.0000
  C   C1710     1.0  0.66300  0.74719  0.29626  1.0000
  H   H2048     1.0  0.91117  0.80198  0.47285  1.0000
  Fe  Fe236     1.0  0.89827  0.98414  0.40483  1.0000
  H   H2049     1.0  0.63895  0.70527  0.30263  1.0000
  C   C1711     1.0  0.93881  0.88392  0.40758  1.0000
  H   H2050     1.0  0.88714  0.93153  0.45633  1.0000
  N   N115      1.0  0.89810  0.70655  0.28536  1.0000
  H   H2051     1.0  0.91652  0.91045  0.41839  1.0000
  H   H2052     1.0  0.78805  0.68178  0.35156  1.0000
  H   H2053     1.0  0.76828  0.67931  0.31150  1.0000
  C   C1712     1.0  0.94525  0.90332  0.43010  1.0000
  H   H2054     1.0  0.88667  0.68717  0.27130  1.0000
  H   H2055     1.0  0.98957  0.91212  0.46769  1.0000
  C   C1713     1.0  0.75648  0.77841  0.27250  1.0000
  C   C1714     1.0  0.77159  0.78714  0.25589  1.0000
  H   H2056     1.0  0.75894  0.77421  0.28856  1.0000
  C   C1715     1.0  0.96270  0.91860  0.30237  1.0000
  C   C1716     1.0  0.98110  0.86867  0.34264  1.0000
  H   H2057     1.0  0.87009  0.94800  0.29181  1.0000
  C   C1717     1.0  0.92597  0.83732  0.44236  1.0000
  H   H2058     1.0  0.90023  0.95282  0.45370  1.0000
  H   H2059     1.0  0.63414  0.72349  0.26647  1.0000
  H   H2060     1.0  0.89100  0.74678  0.29277  1.0000
  H   H2061     1.0  0.96280  0.85811  0.39923  1.0000
  H   H2062     1.0  0.88779  0.96765  0.30543  1.0000
  H   H2063     1.0  0.67316  0.76084  0.33806  1.0000
  H   H2064     1.0  0.79074  0.68626  0.31609  1.0000
  H   H2065     1.0  0.84104  0.96503  0.38147  1.0000
  H   H2066     1.0  0.90103  0.85755  0.46001  1.0000
  C   C1718     1.0  0.84669  0.96972  0.34748  1.0000
  C   C1719     1.0  0.88052  0.70465  0.30428  1.0000
  C   C1720     1.0  0.97244  0.87281  0.42015  1.0000
  C   C1721     1.0  0.93206  0.90023  0.41862  1.0000
  C   C1722     1.0  0.95788  0.94287  0.35657  1.0000
  H   H2067     1.0  0.95438  0.95222  0.36896  1.0000
  C   C1723     1.0  0.66591  0.68847  0.24701  1.0000
  N   N116      1.0  0.83718  0.81383  0.37265  1.0000
  C   C1724     1.0  0.82135  0.82157  0.39049  1.0000
  C   C1725     1.0  0.84186  0.79018  0.37790  1.0000
  C   C1726     1.0  0.85723  0.82085  0.37076  1.0000
  C   C1727     1.0  0.82829  0.82206  0.35320  1.0000
  C   C1728     1.0  0.83507  0.83903  0.33679  1.0000
  C   C1729     1.0  0.81160  0.81385  0.35068  1.0000
  C   C1730     1.0  0.82625  0.84658  0.31871  1.0000
  C   C1731     1.0  0.80298  0.82145  0.33247  1.0000
  C   C1732     1.0  0.81041  0.83768  0.31645  1.0000
  H   H2068     1.0  0.80623  0.81596  0.39349  1.0000
  H   H2069     1.0  0.82747  0.81605  0.40545  1.0000
  H   H2070     1.0  0.81738  0.83929  0.38712  1.0000
  H   H2071     1.0  0.82731  0.78331  0.38330  1.0000
  H   H2072     1.0  0.85084  0.78355  0.39090  1.0000
  H   H2073     1.0  0.85155  0.78374  0.36391  1.0000
  H   H2074     1.0  0.85455  0.83828  0.36959  1.0000
  H   H2075     1.0  0.86451  0.81335  0.38489  1.0000
  H   H2076     1.0  0.86931  0.81670  0.35669  1.0000
  H   H2077     1.0  0.84766  0.84635  0.33714  1.0000
  H   H2078     1.0  0.80511  0.80136  0.36264  1.0000
  H   H2079     1.0  0.83238  0.85891  0.30602  1.0000
  H   H2080     1.0  0.79064  0.81455  0.33064  1.0000
  H   H2081     1.0  0.80402  0.84320  0.30215  1.0000
  H   H2082     1.0  0.65755  0.71898  0.32123  1.0000
  H   H2083     1.0  0.68721  0.77969  0.28190  1.0000
  N   N117      1.0  0.67517  0.75501  0.30721  1.0000
  C   C1733     1.0  0.66507  0.75352  0.33005  1.0000
  C   C1734     1.0  0.69684  0.74168  0.30542  1.0000
  C   C1735     1.0  0.67701  0.77757  0.29804  1.0000
  C   C1736     1.0  0.90546  0.84947  0.44709  1.0000
  C   C1737     1.0  0.65500  0.72823  0.30584  1.0000
  C   C1738     1.0  0.84835  0.93879  0.33419  1.0000
  S   S475      1.0  0.65738  0.67341  0.27228  1.0000
  C   C1739     1.0  0.96514  0.88986  0.43092  1.0000
  H   H2084     1.0  0.94141  0.93812  0.32245  1.0000
  C   C1740     1.0  0.88986  0.74662  0.27699  1.0000
  H   H2085     1.0  0.91591  0.71748  0.30173  1.0000
  H   H2086     1.0  0.93830  0.97119  0.32755  1.0000
  C   C1741     1.0  0.97415  0.94004  0.32038  1.0000
  H   H2087     1.0  0.89793  0.97508  0.36779  1.0000
  H   H2088     1.0  0.98602  0.89835  0.34545  1.0000
  H   H2089     1.0  0.84385  0.91034  0.35804  1.0000
  S   S476      1.0  0.96093  0.86783  0.48785  1.0000
  C   C1742     1.0  0.84420  0.92709  0.35504  1.0000
  Fe  Fe237     1.0  0.69239  0.67421  0.33064  1.0000
  C   C1743     1.0  0.85638  0.96180  0.29121  1.0000
  H   H2090     1.0  0.79453  0.67158  0.29634  1.0000
  H   H2091     1.0  0.84737  0.71870  0.25864  1.0000
  N   N118      1.0  0.85401  0.97359  0.30791  1.0000
  H   H2092     1.0  0.87760  0.71750  0.31301  1.0000
  C   C1744     1.0  0.95795  0.93296  0.31559  1.0000
  H   H2093     1.0  0.80738  0.70955  0.25193  1.0000
  C   C1745     1.0  0.84997  0.70451  0.25273  1.0000
  H   H2094     1.0  0.94993  0.91310  0.29943  1.0000
  H   H2095     1.0  0.91466  0.68787  0.26187  1.0000
  H   H2096     1.0  0.76375  0.68881  0.38421  1.0000
  C   C1746     1.0  0.87403  0.98127  0.30408  1.0000
  S   S477      1.0  0.94263  0.92863  0.47453  1.0000
  H   H2097     1.0  0.97471  0.89295  0.44009  1.0000
  H   H2098     1.0  0.96080  0.98218  0.31189  1.0000
  C   C1747     1.0  0.98724  0.96016  0.33895  1.0000
  H   H2099     1.0  0.98247  0.97063  0.35061  1.0000
  H   H2100     1.0  0.98582  0.83068  0.41837  1.0000
  H   H2101     1.0  0.84791  0.98601  0.34542  1.0000
  C   C1748     1.0  0.87521  0.96963  0.48544  1.0000
  H   H2102     1.0  0.95009  0.98549  0.33862  1.0000
  C   C1749     1.0  0.94786  0.96405  0.48463  1.0000
  C   C1750     1.0  0.84129  0.93660  0.37202  1.0000
  S   S478      1.0  0.71211  0.77509  0.24288  1.0000
  C   C1751     1.0  0.67923  0.70274  0.24384  1.0000
  C   C1752     1.0  0.88203  0.76725  0.24321  1.0000
  H   H2103     1.0  0.81600  0.65979  0.33476  1.0000
  H   H2104     1.0  0.86395  0.97565  0.44712  1.0000
  H   H2105     1.0  0.87354  0.99088  0.31548  1.0000
  H   H2106     1.0  0.97588  0.93289  0.41184  1.0000
  H   H2107     1.0  0.85509  0.92694  0.48701  1.0000
  C   C1753     1.0  0.76240  0.67613  0.37759  1.0000
  H   H2108     1.0  0.98412  0.84179  0.45254  1.0000
  C   C1754     1.0  0.74617  0.66485  0.38720  1.0000
  H   H2109     1.0  0.89766  0.78000  0.48185  1.0000
  C   C1755     1.0  0.98375  0.91099  0.29334  1.0000
  Fe  Fe238     1.0  0.68075  0.66544  0.29342  1.0000
  H   H2110     1.0  0.98901  0.94602  0.46965  1.0000
  H   H2111     1.0  0.98738  0.89953  0.28342  1.0000
  H   H2112     1.0  0.98683  0.95790  0.42610  1.0000
  C   C1756     1.0  0.99003  0.84722  0.34276  1.0000
  Fe  Fe239     1.0  0.72679  0.65989  0.29508  1.0000
  H   H2113     1.0  0.87174  0.83454  0.48787  1.0000
  H   H2114     1.0  0.85031  0.81231  0.48687  1.0000
  C   C1757     1.0  0.99134  0.93709  0.40510  1.0000
  Fe  Fe240     1.0  0.79042  0.77464  0.63273  1.0000
  S   S479      1.0  0.82381  0.76188  0.63771  1.0000
  S   S480      1.0  0.76549  0.79808  0.64934  1.0000
  S   S481      1.0  0.86326  0.77845  0.58771  1.0000
  C   C1758     1.0  0.64757  0.75830  0.66077  1.0000
  C   C1759     1.0  0.72542  0.74615  0.62827  1.0000
  C   C1760     1.0  0.98069  0.87928  0.53589  1.0000
  H   H2115     1.0  0.87699  0.77543  0.54164  1.0000
  C   C1761     1.0  0.98350  0.89718  0.60088  1.0000
  C   C1762     1.0  0.91809  0.89430  0.57585  1.0000
  H   H2116     1.0  0.89760  0.94640  0.50317  1.0000
  S   S482      1.0  0.79941  0.78236  0.59725  1.0000
  S   S483      1.0  0.61763  0.73807  0.73023  1.0000
  H   H2117     1.0  0.62931  0.65872  0.54232  1.0000
  C   C1763     1.0  0.65898  0.76286  0.67315  1.0000
  H   H2118     1.0  0.72359  0.75976  0.66266  1.0000
  H   H2119     1.0  0.80951  0.73279  0.67944  1.0000
  C   C1764     1.0  0.78288  0.68196  0.62315  1.0000
  C   C1765     1.0  0.86729  0.79495  0.51219  1.0000
  S   S484      1.0  0.95942  0.97619  0.53638  1.0000
  C   C1766     1.0  0.71610  0.66093  0.73752  1.0000
  H   H2120     1.0  0.78604  0.69190  0.67492  1.0000
  C   C1767     1.0  0.93688  0.88002  0.57926  1.0000
  H   H2121     1.0  0.62012  0.67446  0.72891  1.0000
  N   N119      1.0  0.88719  0.80288  0.50171  1.0000
  C   C1768     1.0  0.72109  0.71308  0.65327  1.0000
  Fe  Fe241     1.0  0.90224  0.86981  0.51701  1.0000
  C   C1769     1.0  0.78685  0.65844  0.71001  1.0000
  S   S485      1.0  0.86784  0.87079  0.53294  1.0000
  Fe  Fe242     1.0  0.94806  0.85596  0.52223  1.0000
  H   H2122     1.0  0.92729  0.93799  0.58561  1.0000
  H   H2123     1.0  0.96107  0.94599  0.57572  1.0000
  H   H2124     1.0  0.96658  0.92745  0.62155  1.0000
  C   C1770     1.0  0.84550  0.77419  0.54209  1.0000
  C   C1771     1.0  0.82845  0.78090  0.53185  1.0000
  S   S486      1.0  0.92337  0.88554  0.52613  1.0000
  S   S487      1.0  0.92590  0.83904  0.51624  1.0000
  S   S488      1.0  0.83163  0.69926  0.65712  1.0000
  C   C1772     1.0  0.95354  0.96407  0.51902  1.0000
  C   C1773     1.0  0.95126  0.94294  0.52607  1.0000
  C   C1774     1.0  0.94738  0.93238  0.51250  1.0000
  C   C1775     1.0  0.82548  0.70005  0.68402  1.0000
  H   H2125     1.0  0.98702  0.91042  0.53159  1.0000
  C   C1776     1.0  0.95167  0.97477  0.49831  1.0000
  H   H2126     1.0  0.95259  0.93460  0.54204  1.0000
  H   H2127     1.0  0.94601  0.91608  0.51804  1.0000
  H   H2128     1.0  0.86933  0.92960  0.50501  1.0000
  C   C1777     1.0  0.66190  0.66140  0.72703  1.0000
  C   C1778     1.0  0.88273  0.82632  0.49886  1.0000
  H   H2129     1.0  0.64921  0.74272  0.63598  1.0000
  H   H2130     1.0  0.89977  0.79868  0.52953  1.0000
  C   C1779     1.0  0.81338  0.71837  0.69091  1.0000
  H   H2131     1.0  0.72123  0.76385  0.62518  1.0000
  C   C1780     1.0  0.80544  0.71765  0.71266  1.0000
  H   H2132     1.0  0.68881  0.75984  0.68043  1.0000
  H   H2133     1.0  0.71996  0.73512  0.68165  1.0000
  S   S489      1.0  0.65974  0.76961  0.73022  1.0000
  C   C1781     1.0  0.90439  0.79397  0.51393  1.0000
  H   H2134     1.0  0.73861  0.70689  0.65057  1.0000
  H   H2135     1.0  0.84120  0.66757  0.69370  1.0000
  H   H2136     1.0  0.94720  0.91092  0.62790  1.0000
  H   H2137     1.0  0.77815  0.69978  0.69940  1.0000
  C   C1782     1.0  0.62894  0.72482  0.70930  1.0000
  C   C1783     1.0  0.65081  0.71634  0.70454  1.0000
  C   C1784     1.0  0.62391  0.71094  0.68135  1.0000
  C   C1785     1.0  0.61556  0.72205  0.69770  1.0000
  H   H2138     1.0  0.66127  0.71867  0.71328  1.0000
  H   H2139     1.0  0.65054  0.77134  0.68563  1.0000
  H   H2140     1.0  0.59867  0.72859  0.70131  1.0000
  C   C1786     1.0  0.86311  0.80485  0.57397  1.0000
  C   C1787     1.0  0.88173  0.81263  0.56998  1.0000
  C   C1788     1.0  0.88269  0.83334  0.55840  1.0000
  C   C1789     1.0  0.86519  0.84628  0.55038  1.0000
  C   C1790     1.0  0.84625  0.83879  0.55494  1.0000
  C   C1791     1.0  0.84520  0.81802  0.56676  1.0000
  H   H2141     1.0  0.89555  0.80254  0.57573  1.0000
  H   H2142     1.0  0.89709  0.83924  0.55559  1.0000
  H   H2143     1.0  0.83269  0.84874  0.54865  1.0000
  H   H2144     1.0  0.83082  0.81201  0.56968  1.0000
  C   C1792     1.0  0.75298  0.78308  0.67280  1.0000
  C   C1793     1.0  0.76410  0.76311  0.68110  1.0000
  C   C1794     1.0  0.75400  0.74969  0.69845  1.0000
  C   C1795     1.0  0.73261  0.75604  0.70750  1.0000
  C   C1796     1.0  0.72146  0.77639  0.69981  1.0000
  C   C1797     1.0  0.73176  0.79004  0.68243  1.0000
  H   H2145     1.0  0.78051  0.75796  0.67391  1.0000
  H   H2146     1.0  0.76263  0.73412  0.70461  1.0000
  H   H2147     1.0  0.70488  0.78136  0.70683  1.0000
  H   H2148     1.0  0.72311  0.80556  0.67599  1.0000
  H   H2149     1.0  0.63038  0.76310  0.66372  1.0000
  S   S490      1.0  0.72025  0.73703  0.72680  1.0000
  C   C1798     1.0  0.91491  0.91510  0.57820  1.0000
  C   C1799     1.0  0.78613  0.70176  0.61068  1.0000
  N   N120      1.0  0.83046  0.82223  0.63422  1.0000
  C   C1800     1.0  0.85276  0.82186  0.62227  1.0000
  C   C1801     1.0  0.81808  0.82004  0.61969  1.0000
  C   C1802     1.0  0.82199  0.84335  0.63982  1.0000
  C   C1803     1.0  0.82839  0.80520  0.65370  1.0000
  C   C1804     1.0  0.84600  0.78937  0.65973  1.0000
  C   C1805     1.0  0.80813  0.80384  0.66717  1.0000
  C   C1806     1.0  0.84323  0.77309  0.67784  1.0000
  C   C1807     1.0  0.80555  0.78747  0.68518  1.0000
  C   C1808     1.0  0.82305  0.77209  0.69048  1.0000
  H   H2150     1.0  0.85986  0.80659  0.61697  1.0000
  H   H2151     1.0  0.85378  0.83459  0.60753  1.0000
  H   H2152     1.0  0.86294  0.82414  0.63195  1.0000
  H   H2153     1.0  0.82451  0.80476  0.61439  1.0000
  H   H2154     1.0  0.81870  0.83298  0.60515  1.0000
  H   H2155     1.0  0.80098  0.82043  0.62717  1.0000
  H   H2156     1.0  0.82988  0.84508  0.65185  1.0000
  H   H2157     1.0  0.82446  0.85656  0.62570  1.0000
  H   H2158     1.0  0.80456  0.84596  0.64641  1.0000
  H   H2159     1.0  0.86200  0.78880  0.65043  1.0000
  H   H2160     1.0  0.79393  0.81506  0.66355  1.0000
  H   H2161     1.0  0.85673  0.76082  0.68185  1.0000
  H   H2162     1.0  0.78977  0.78645  0.69479  1.0000
  H   H2163     1.0  0.82093  0.75918  0.70423  1.0000
  C   C1809     1.0  0.86466  0.78105  0.53252  1.0000
  H   H2164     1.0  0.74267  0.71617  0.58844  1.0000
  H   H2165     1.0  0.81361  0.77556  0.53947  1.0000
  H   H2166     1.0  0.90862  0.77631  0.51663  1.0000
  C   C1810     1.0  0.75386  0.70661  0.59816  1.0000
  C   C1811     1.0  0.65820  0.74687  0.64512  1.0000
  C   C1812     1.0  0.68109  0.75595  0.67004  1.0000
  H   H2167     1.0  0.90053  0.92635  0.57493  1.0000
  C   C1813     1.0  0.72607  0.74221  0.66472  1.0000
  H   H2168     1.0  0.98646  0.93649  0.58291  1.0000
  S   S491      1.0  0.97108  0.84014  0.54377  1.0000
  H   H2169     1.0  0.79521  0.73155  0.71795  1.0000
  C   C1814     1.0  0.74924  0.67240  0.71720  1.0000
  H   H2170     1.0  0.74310  0.74152  0.62496  1.0000
  C   C1815     1.0  0.77175  0.71413  0.59810  1.0000
  C   C1816     1.0  0.64563  0.70208  0.67682  1.0000
  Fe  Fe243     1.0  0.83254  0.76714  0.60230  1.0000
  H   H2171     1.0  0.66723  0.67594  0.72696  1.0000
  H   H2172     1.0  0.61346  0.70904  0.67232  1.0000
  H   H2173     1.0  0.84384  0.76378  0.55771  1.0000
  C   C1817     1.0  0.80961  0.69856  0.72743  1.0000
  H   H2174     1.0  0.90606  0.97180  0.51849  1.0000
  Fe  Fe244     1.0  0.81900  0.73028  0.63657  1.0000
  H   H2175     1.0  0.96664  0.87442  0.58755  1.0000
  H   H2176     1.0  0.67601  0.69842  0.68457  1.0000
  H   H2177     1.0  0.98027  0.92619  0.56364  1.0000
  S   S492      1.0  0.78459  0.74230  0.63542  1.0000
  C   C1818     1.0  0.83119  0.68156  0.69889  1.0000
  H   H2178     1.0  0.94244  0.93751  0.61225  1.0000
  C   C1819     1.0  0.76743  0.66026  0.68383  1.0000
  H   H2179     1.0  0.79418  0.67260  0.63272  1.0000
  C   C1820     1.0  0.94590  0.94272  0.49174  1.0000
  C   C1821     1.0  0.95488  0.92292  0.61519  1.0000
  C   C1822     1.0  0.83047  0.79456  0.51194  1.0000
  C   C1823     1.0  0.77291  0.69235  0.68922  1.0000
  H   H2180     1.0  0.71387  0.70536  0.66960  1.0000
  H   H2181     1.0  0.65648  0.66385  0.71199  1.0000
  H   H2182     1.0  0.90614  0.88932  0.57101  1.0000
  H   H2183     1.0  0.98033  0.98385  0.56931  1.0000
  C   C1824     1.0  0.94935  0.90723  0.58873  1.0000
  H   H2184     1.0  0.75848  0.70315  0.68425  1.0000
  Fe  Fe245     1.0  0.93492  0.89642  0.49110  1.0000
  C   C1825     1.0  0.93029  0.92156  0.58446  1.0000
  C   C1826     1.0  0.65914  0.70483  0.68836  1.0000
  C   C1827     1.0  0.69244  0.74418  0.65420  1.0000
  C   C1828     1.0  0.68028  0.73992  0.64182  1.0000
  C   C1829     1.0  0.73349  0.66029  0.72045  1.0000
  H   H2185     1.0  0.72021  0.74104  0.61627  1.0000
  H   H2186     1.0  0.78861  0.66548  0.72259  1.0000
  C   C1830     1.0  0.82322  0.68081  0.72056  1.0000
  H   H2187     1.0  0.97827  0.88384  0.61368  1.0000
  H   H2188     1.0  0.74357  0.73633  0.66154  1.0000
  H   H2189     1.0  0.80001  0.70730  0.61067  1.0000
  N   N121      1.0  0.71582  0.73659  0.65032  1.0000
  H   H2190     1.0  0.71529  0.70746  0.64202  1.0000
  H   H2191     1.0  0.68770  0.73082  0.62971  1.0000
  Fe  Fe246     1.0  0.79591  0.74898  0.60023  1.0000
  H   H2192     1.0  0.96684  0.88500  0.52897  1.0000
  C   C1831     1.0  0.95235  0.88627  0.58559  1.0000
  S   S493      1.0  0.83012  0.73444  0.60141  1.0000
  S   S494      1.0  0.77565  0.73952  0.58370  1.0000
  S   S495      1.0  0.65539  0.68849  0.65603  1.0000
  H   H2193     1.0  0.99053  0.91405  0.49379  1.0000
  H   H2194     1.0  0.87536  0.83116  0.51424  1.0000
  H   H2195     1.0  0.91928  0.79987  0.50540  1.0000
  H   H2196     1.0  0.89753  0.83276  0.49225  1.0000
  N   N122      1.0  0.96515  0.91440  0.59580  1.0000
  C   C1832     1.0  0.84957  0.80154  0.50221  1.0000
  H   H2197     1.0  0.93967  0.86403  0.57663  1.0000
  H   H2198     1.0  0.78184  0.66023  0.67082  1.0000
  C   C1833     1.0  0.97356  0.93151  0.57887  1.0000
  C   C1834     1.0  0.75038  0.68678  0.61103  1.0000
  Fe  Fe247     1.0  0.68165  0.65988  0.66053  1.0000
  H   H2199     1.0  0.81711  0.79985  0.50407  1.0000
  H   H2200     1.0  0.84434  0.94727  0.50226  1.0000
  H   H2201     1.0  0.73661  0.68094  0.61109  1.0000
  N   N123      1.0  0.76865  0.67087  0.70024  1.0000
  H   H2202     1.0  0.75342  0.66839  0.67653  1.0000
  C   C1835     1.0  0.76505  0.67442  0.62341  1.0000
  C   C1836     1.0  0.89458  0.97726  0.50831  1.0000
  H   H2203     1.0  0.75798  0.69432  0.73117  1.0000
  C   C1837     1.0  0.74643  0.68508  0.73208  1.0000
  H   H2204     1.0  0.62004  0.65915  0.62246  1.0000
  C   C1838     1.0  0.88970  0.96286  0.49934  1.0000
  C   C1839     1.0  0.85928  0.93884  0.49335  1.0000
  C   C1840     1.0  0.98672  0.85757  0.54405  1.0000
  H   H2205     1.0  0.82719  0.66631  0.73184  1.0000
  H   H2206     1.0  0.95341  0.99112  0.49268  1.0000
  H   H2207     1.0  0.53124  0.97506  0.84206  1.0000
  S   S496      1.0  0.79636  0.69658  0.75403  1.0000
  Fe  Fe248     1.0  0.54007  0.88153  0.86065  1.0000
  S   S497      1.0  0.57122  0.87676  0.83804  1.0000
  S   S498      1.0  0.50991  0.88740  0.84927  1.0000
  Fe  Fe249     1.0  0.56011  0.87960  0.89716  1.0000
  S   S499      1.0  0.59340  0.87484  0.87751  1.0000
  S   S500      1.0  0.54980  0.88314  0.93109  1.0000
  Fe  Fe250     1.0  0.57915  0.89988  0.85231  1.0000
  S   S501      1.0  0.59358  0.92643  0.82964  1.0000
  Fe  Fe251     1.0  0.58236  0.85215  0.86517  1.0000
  S   S502      1.0  0.60010  0.81908  0.86198  1.0000
  S   S503      1.0  0.54689  0.90662  0.87288  1.0000
  S   S504      1.0  0.55007  0.85497  0.88687  1.0000
  Fe  Fe252     1.0  0.65870  0.73145  0.78568  1.0000
  S   S505      1.0  0.65739  0.71173  0.81874  1.0000
  C   C1841     1.0  0.67993  0.69155  0.82206  1.0000
  H   H2208     1.0  0.63201  0.68307  0.77542  1.0000
  C   C1842     1.0  0.56715  0.81508  0.81656  1.0000
  Fe  Fe253     1.0  0.65056  0.77755  0.76242  1.0000
  H   H2209     1.0  0.59284  0.83342  0.78298  1.0000
  C   C1843     1.0  0.69758  0.68918  0.80539  1.0000
  C   C1844     1.0  0.52916  0.98954  0.88377  1.0000
  H   H2210     1.0  0.52393  0.81046  0.85466  1.0000
  H   H2211     1.0  0.69763  0.70024  0.79026  1.0000
  C   C1845     1.0  0.60513  0.94056  0.84076  1.0000
  C   C1846     1.0  0.59415  0.94881  0.85873  1.0000
  H   H2212     1.0  0.57837  0.94598  0.86647  1.0000
  C   C1847     1.0  0.61354  0.81675  0.83611  1.0000
  C   C1848     1.0  0.61692  0.83480  0.82024  1.0000
  C   C1849     1.0  0.62626  0.83279  0.79932  1.0000
  C   C1850     1.0  0.62020  0.79661  0.83112  1.0000
  H   H2213     1.0  0.61238  0.85032  0.82408  1.0000
  H   H2214     1.0  0.62859  0.84685  0.78704  1.0000
  H   H2215     1.0  0.61758  0.78261  0.84337  1.0000
  C   C1851     1.0  0.60412  0.86367  0.96651  1.0000
  C   C1852     1.0  0.58417  0.87445  0.97541  1.0000
  C   C1853     1.0  0.56732  0.87978  0.96472  1.0000
  C   C1854     1.0  0.57041  0.87443  0.94514  1.0000
  C   C1855     1.0  0.59018  0.86317  0.93655  1.0000
  C   C1856     1.0  0.60702  0.85789  0.94717  1.0000
  H   H2216     1.0  0.51789  0.79437  0.91794  1.0000
  H   H2217     1.0  0.55192  0.88812  0.97156  1.0000
  H   H2218     1.0  0.59262  0.85864  0.92165  1.0000
  H   H2219     1.0  0.62242  0.84945  0.94029  1.0000
  C   C1857     1.0  0.51882  0.84454  0.85065  1.0000
  H   H2220     1.0  0.53855  0.97749  0.87517  1.0000
  C   C1858     1.0  0.64462  0.66946  0.77849  1.0000
  H   H2221     1.0  0.53417  0.84417  0.85355  1.0000
  H   H2222     1.0  0.53570  0.92259  0.94872  1.0000
  S   S506      1.0  0.66827  0.71896  0.75598  1.0000
  H   H2223     1.0  0.56557  0.82770  0.82525  1.0000
  C   C1859     1.0  0.62414  0.96450  0.85649  1.0000
  H   H2224     1.0  0.66915  0.79448  0.82495  1.0000
  H   H2225     1.0  0.75422  0.71895  0.77550  1.0000
  H   H2226     1.0  0.59131  0.90740  0.92796  1.0000
  H   H2227     1.0  0.64362  0.91612  0.98644  1.0000
  H   H2228     1.0  0.50521  0.89488  0.93297  1.0000
  H   H2229     1.0  0.52232  0.81717  0.89647  1.0000
  H   H2230     1.0  0.65102  0.95835  0.83120  1.0000
  C   C1860     1.0  0.71525  0.67255  0.80843  1.0000
  H   H2231     1.0  0.55093  0.95118  0.84229  1.0000
  C   C1861     1.0  0.58693  0.78734  0.75585  1.0000
  C   C1862     1.0  0.63898  0.91377  0.97255  1.0000
  H   H2232     1.0  0.54868  0.76129  0.78789  1.0000
  C   C1863     1.0  0.51314  0.82551  0.85105  1.0000
  H   H2233     1.0  0.56195  0.96189  0.80275  1.0000
  H   H2234     1.0  0.59972  0.93588  0.97933  1.0000
  H   H2235     1.0  0.54179  0.79064  0.80569  1.0000
  S   S507      1.0  0.64114  0.81102  0.76744  1.0000
  H   H2236     1.0  0.71199  0.77147  0.83950  1.0000
  S   S508      1.0  0.62938  0.75396  0.77692  1.0000
  C   C1864     1.0  0.52076  0.84004  0.94854  1.0000
  C   C1865     1.0  0.51216  0.96119  0.93828  1.0000
  H   H2237     1.0  0.57040  0.83058  0.97982  1.0000
  C   C1866     1.0  0.53979  0.83512  0.79716  1.0000
  C   C1867     1.0  0.71521  0.65836  0.82812  1.0000
  H   H2238     1.0  0.52867  0.82469  0.80719  1.0000
  H   H2239     1.0  0.54210  0.96875  0.78683  1.0000
  H   H2240     1.0  0.53086  0.82158  0.92520  1.0000
  C   C1868     1.0  0.49421  0.95361  0.81691  1.0000
  Fe  Fe254     1.0  0.79475  0.66289  0.77154  1.0000
  C   C1869     1.0  0.54330  0.93617  0.94708  1.0000
  C   C1870     1.0  0.60354  0.96114  0.86640  1.0000
  S   S509      1.0  0.63740  0.97813  0.86638  1.0000
  C   C1871     1.0  0.55431  0.79042  0.79162  1.0000
  H   H2241     1.0  0.69550  0.79568  0.81006  1.0000
  H   H2242     1.0  0.57277  0.84783  0.76787  1.0000
  C   C1872     1.0  0.51697  0.82957  0.93477  1.0000
  H   H2243     1.0  0.53641  0.84894  0.80476  1.0000
  H   H2244     1.0  0.53537  0.84110  0.78138  1.0000
  C   C1873     1.0  0.62543  0.94444  0.83069  1.0000
  C   C1874     1.0  0.65283  0.66743  0.79631  1.0000
  C   C1875     1.0  0.58329  0.80433  0.76576  1.0000
  N   N124      1.0  0.53070  0.95676  0.82001  1.0000
  C   C1876     1.0  0.56662  0.80652  0.78390  1.0000
  H   H2245     1.0  0.59989  0.78575  0.74221  1.0000
  C   C1877     1.0  0.51537  0.95113  0.97506  1.0000
  N   N125      1.0  0.63115  0.93434  0.95887  1.0000
  C   C1878     1.0  0.64768  0.94745  0.95315  1.0000
  C   C1879     1.0  0.61179  0.94584  0.97128  1.0000
  N   N126      1.0  0.52726  0.95499  0.95279  1.0000
  C   C1880     1.0  0.62618  0.93006  0.94029  1.0000
  C   C1881     1.0  0.60904  0.91988  0.94291  1.0000
  C   C1882     1.0  0.63874  0.93458  0.91948  1.0000
  C   C1883     1.0  0.60448  0.91506  0.92570  1.0000
  C   C1884     1.0  0.63440  0.92905  0.90255  1.0000
  C   C1885     1.0  0.61724  0.91945  0.90560  1.0000
  H   H2246     1.0  0.66342  0.93899  0.94568  1.0000
  H   H2247     1.0  0.62678  0.90368  0.97883  1.0000
  C   C1886     1.0  0.50429  0.86387  0.84721  1.0000
  C   C1887     1.0  0.71368  0.67374  0.75167  1.0000
  C   C1888     1.0  0.72880  0.68585  0.74888  1.0000
  H   H2248     1.0  0.53696  0.84002  0.94904  1.0000
  H   H2249     1.0  0.59943  0.91503  0.95839  1.0000
  H   H2250     1.0  0.72699  0.69597  0.75976  1.0000
  H   H2251     1.0  0.50794  0.90069  0.96620  1.0000
  C   C1889     1.0  0.68288  0.78616  0.81448  1.0000
  H   H2252     1.0  0.65211  0.94226  0.91580  1.0000
  H   H2253     1.0  0.74118  0.75708  0.76187  1.0000
  H   H2254     1.0  0.64434  0.93241  0.88686  1.0000
  H   H2255     1.0  0.61391  0.91533  0.89235  1.0000
  H   H2256     1.0  0.66634  0.67917  0.85461  1.0000
  H   H2257     1.0  0.50170  0.97708  0.93898  1.0000
  H   H2258     1.0  0.59405  0.81526  0.75907  1.0000
  H   H2259     1.0  0.64292  0.96293  0.94229  1.0000
  H   H2260     1.0  0.60435  0.96048  0.96101  1.0000
  C   C1890     1.0  0.69754  0.66085  0.84472  1.0000
  C   C1891     1.0  0.57559  0.84036  0.78415  1.0000
  H   H2261     1.0  0.53556  0.93168  0.80341  1.0000
  C   C1892     1.0  0.62922  0.79464  0.81010  1.0000
  H   H2262     1.0  0.65311  0.90430  0.96363  1.0000
  C   C1893     1.0  0.54480  0.96882  0.80252  1.0000
  H   H2263     1.0  0.57212  0.85334  0.79289  1.0000
  H   H2264     1.0  0.55454  0.92778  0.81931  1.0000
  C   C1894     1.0  0.67999  0.67743  0.84171  1.0000
  H   H2265     1.0  0.52834  0.92387  0.83200  1.0000
  C   C1895     1.0  0.63195  0.81279  0.79412  1.0000
  N   N127      1.0  0.56246  0.82405  0.79510  1.0000
  C   C1896     1.0  0.50812  0.96581  0.81873  1.0000
  H   H2266     1.0  0.55195  0.93962  0.93024  1.0000
  H   H2267     1.0  0.55642  0.80426  0.82659  1.0000
  H   H2268     1.0  0.58369  0.80567  0.81558  1.0000
  H   H2269     1.0  0.63356  0.77914  0.80621  1.0000
  H   H2270     1.0  0.63389  0.93816  0.81679  1.0000
  H   H2271     1.0  0.50175  0.94948  0.94194  1.0000
  S   S510      1.0  0.67901  0.75584  0.77357  1.0000
  N   N128      1.0  0.69047  0.76377  0.82505  1.0000
  C   C1897     1.0  0.69765  0.76421  0.84407  1.0000
  H   H2272     1.0  0.50196  0.90199  0.89799  1.0000
  C   C1898     1.0  0.67189  0.75321  0.83205  1.0000
  C   C1899     1.0  0.70814  0.75186  0.81130  1.0000
  C   C1900     1.0  0.71814  0.76156  0.79066  1.0000
  C   C1901     1.0  0.71622  0.72988  0.81861  1.0000
  C   C1902     1.0  0.73440  0.74966  0.77792  1.0000
  C   C1903     1.0  0.73281  0.71829  0.80591  1.0000
  C   C1904     1.0  0.74170  0.72809  0.78551  1.0000
  Fe  Fe255     1.0  0.68628  0.74553  0.74296  1.0000
  H   H2273     1.0  0.68504  0.77359  0.85455  1.0000
  H   H2274     1.0  0.70185  0.74798  0.85386  1.0000
  H   H2275     1.0  0.49425  0.84954  0.89337  1.0000
  C   C1905     1.0  0.51030  0.80764  0.90642  1.0000
  H   H2276     1.0  0.65017  0.95142  0.96738  1.0000
  H   H2277     1.0  0.67544  0.73673  0.84148  1.0000
  H   H2278     1.0  0.65822  0.76201  0.84211  1.0000
  H   H2279     1.0  0.66615  0.75219  0.81827  1.0000
  H   H2280     1.0  0.71320  0.77813  0.78361  1.0000
  H   H2281     1.0  0.70964  0.72136  0.83415  1.0000
  H   H2282     1.0  0.55561  0.93095  0.95691  1.0000
  H   H2283     1.0  0.73861  0.70149  0.81176  1.0000
  H   H2284     1.0  0.61558  0.95102  0.98413  1.0000
  C   C1906     1.0  0.63506  0.95599  0.83878  1.0000
  H   H2285     1.0  0.67720  0.78698  0.79996  1.0000
  C   C1907     1.0  0.55818  0.77347  0.78162  1.0000
  H   H2286     1.0  0.72890  0.67076  0.79561  1.0000
  H   H2287     1.0  0.59512  0.96757  0.88021  1.0000
  C   C1908     1.0  0.53425  0.95833  0.84044  1.0000
  H   H2288     1.0  0.52348  0.95005  0.85404  1.0000
  C   C1909     1.0  0.53747  0.93405  0.81857  1.0000
  H   H2289     1.0  0.54851  0.97542  0.93263  1.0000
  H   H2290     1.0  0.52061  0.96215  0.92147  1.0000
  H   H2291     1.0  0.64636  0.67904  0.80621  1.0000
  S   S511      1.0  0.62580  0.85745  0.97889  1.0000
  C   C1910     1.0  0.49292  0.82588  0.84816  1.0000
  C   C1911     1.0  0.50384  0.85129  0.96105  1.0000
  H   H2292     1.0  0.49546  0.98297  0.97247  1.0000
  H   H2293     1.0  0.61232  0.67067  0.75726  1.0000
  H   H2294     1.0  0.50693  0.85979  0.97129  1.0000
  C   C1912     1.0  0.49934  0.98749  0.81944  1.0000
  H   H2295     1.0  0.70021  0.67416  0.76493  1.0000
  C   C1913     1.0  0.53867  0.97255  0.94899  1.0000
  C   C1914     1.0  0.57443  0.77196  0.76375  1.0000
  H   H2296     1.0  0.50605  0.80031  0.89532  1.0000
  H   H2297     1.0  0.54940  0.96905  0.96028  1.0000
  H   H2298     1.0  0.54226  0.98567  0.80364  1.0000
  C   C1915     1.0  0.49589  0.83009  0.93321  1.0000
  C   C1916     1.0  0.49339  0.90777  0.96033  1.0000
  H   H2299     1.0  0.57763  0.75866  0.75614  1.0000
  Fe  Fe256     1.0  0.64099  0.74392  0.74577  1.0000
  C   C1917     1.0  0.49929  0.96755  0.98271  1.0000
  H   H2300     1.0  0.52760  0.98799  0.95060  1.0000
  H   H2301     1.0  0.53109  0.91788  0.98552  1.0000
  C   C1918     1.0  0.49148  0.90430  0.94128  1.0000
  C   C1919     1.0  0.62573  0.67342  0.74353  1.0000
  S   S512      1.0  0.49403  0.97918  0.87789  1.0000
  H   H2302     1.0  0.49239  0.87855  0.91437  1.0000
  H   H2303     1.0  0.49914  0.93683  0.81694  1.0000
  H   H2304     1.0  0.62900  0.68939  0.74196  1.0000
  C   C1920     1.0  0.51934  0.93143  0.98976  1.0000
