data_image0
_chemical_formula_structural       HFeH2FeSFeH2Fe2HC2HCHSH2S2CHC6HSH2C6H4C5H3CHCS2CHC6H5CS2H3FeNH3SH2NFeH2C2H2CNC6H10SHCHC2FeHC3SCHCHCH3SHC2SH2NH7CH8CH4FeSHFeSCFeSFeSCSFeS2FeS2FeSFeS3C3H2CHSCHFeS2FeS2FeSFeS3FeS2FeS2FeS2FeSFeS3FeSFeS4HCSCHC2SHCSH2C9H4C6H6C6H4C6H4C6H4C6H4C6H4C6H4C3H2C6H4CH3CHC3HCHCHSCNHC2HFeNC2H3CH2NHCHC3H3CH4CH4C3H3C2HC2H2CHCH2CH4CHCHC6H5CSH4CH2FeSHCH2C2HFeC5SHCHC3HC2H2C2HC3H2FeH2CH2CHN2H2C3HSHSCHNH2CHNCHCH5FeH3CH2CHC3FeSH3C2HSCH2C2HCH3CH4S2C3HCH4C2HCH3CNH2C2HC2H2C8HC2HCHNC2NCH6CH3C2H4NH5C2H4CH7CH2C2H2SCSFeH3CH5CH2CHC2HSCHCSCHSH2S2FeHFeS2H3CH2C2SCHCHC2S2C4H2FeC3H5CH4C2H2C2SHCSHC4NH2CHC2H4CH2SFeH2FeCSCH2CFeCHFeHC2HCHC2HCSC3H2NH2CHC2H4CHNC6HCH7SH4C3H4CH2C2HC2HC3HCHSH3C2FeCH2C3HCH2FeHSC3HCHSH2C2SHCHCH2NCNCHC2NH2C3HCHCSHCSCH5NCHCH8C2H2CH2C2HSH3SCHSFeS2FeS2FeSFeS3HCFeS2FeSFeSFeS2CSFeS2FeS2FeSFeS3H2SHFeS2FeS2FeSFeS4C6H4C6H4C6H4CHC6H4C6H5C5HSCH2CHC7H4C6H4C2HCHCH4C6H4N2C9H14NC9H3SH2CH5FeCNCHC4FeC3H2CH4CH4CH3C3H5CH2C2H2CHC3H2CNC8H12CH2NH3C3HC3H2C2H10CHCFeCH3C2HNC2H2S2CH2CH4S2C3FeC2HC2HCHC4HCNCH2C3HC2H3SH2CSCHFeCHCH3CH5CH2NHCHC3H5CHC2H2NHCH2CH3CHCH2CH3C2H2C2HFeH3CH3CH3C4SH3CHCH3CHC2H2CSCNC6H2CHCH11CHC2NHNH3CH3CHCH5SHCH3C2HC2SHCH2CH2CH3CH3NC2SHNC2H3CSCHCH3CSC2H4CH2CHFeSHSHFeCFeH2FeHSHCHCSCNHSCFeSCHNHFeS2FeS2FeSFeHS2FeS2FeSFeS3FeCSFeHSHCH2S2CHCH3CHNHC2HC4SH2FeH3C2HC3FeNH4C4HC6H4CHC2HC5H3C6H4C5FeH5CHC6H6CFeHSC4H2C7H3CH2C3H3CHSC2H3CH2CHC2H4CHCHCH3CHCHS2H5CHCH4CH2C4H2NH2C2HC2HNH2C7SH6CH6NCSC2HCH2C2H10CH4CHC2H3C3HSHC2SH3C2HC4FeC2SH2C2H2CH2C3H3SC2NSHCHC2HCHC2S2H2SCHC2HFeH3NHFeS2FeS2FeSFeS3FeS2FeSCFeSFeS3CSFeS2FeS2FeSFeS4FeS2FeS2FeSFeS3FeS2FeCSHFeCS3C2H2CHCNHC6H4C6H4C6H4C6H4C6H8CHSC6H4C6H4C6H4C4H5C2H9C2NC9H9CFeCH4C2HC8HCNC9H16CH5N2H2FeH3CH2CH6CHC2H3CH3NHC3FeHC2HCH2CHCFeNC7H12NC9H10CHC3H4CNCHSH7C2NCH4CHCH2CHC2H5FeH5SCSH3NCH2C3H2NC7H13CHC2H2CH2C3H2C2H3C2H3CH2C2SH2CH2C3HSH4FeCHC2H2CHSFeCHFeS2C2FeHCH3CNC3HCNCSCS2H3CH2C3HCH5CH3SH8FeH4NHC2HC2SHSHCHC3H2CHCH2C2H2C5HC2H3CHC3HCFeS2CFeS2HCFe2SFeSH2CFeS2FeS2FeSFeS3CH2CHCH2FeSHFeSFeSC2FeS2FeHSHCFeSCSC3H2C6H4C6H6CHC6H4C6H2FeC7H6C2HC4H4C4HCH3C6H4CSH2CH3SH5SH2SHSFeNHSHCHCH2C2H3CHCH2SC2H6CNC5H3FeHCHCHCH4CHCH4CH4N2C8H12CH3CHC2H2C3HC5HC3HNCHNFeSHC3H4SHCSCH3CH2FeHC2HSCHSCHSHCNHCNH3CNHC3H3CH4C2HC2HNCHCHSHCHCFeCS2HC3H2C2HCHCSHSH3CSCH2CSH2CH2CHC2H5CFeCHCFeSCFeSFeCS2HS2CS2HC3H3C3H2SFeH3CH3C5FeC3HSH3SHSCH3CNC10H6NH6SHCSNCH3C2SHFe2H3FeCHC2H3C6HC3H2C2H4CH3SCHFeS2FeS2FeSFeS3FeS2FeS2FeSFeS3H2FeSHFeSFeSHFeSFeS2FeS2FeS2FeSFeS5FeSHFeSCFeSFe2HFeSHSFeS2FeS2FeSFeS3C6H4C6H4CH4CHC6H4C6H2C6H4C6H4C7H4C6H4C6H4C6H4C2HSHCSH2C3HCH2C3HC2H2CFeHCH2SNC9H11C3NC9H12CH2NC9H14NC9H15NC9H12CH2C2H2C2HSCHCHCH4CFeCSCSHCHC3H2SHCHN2SCH4CSCHC2HCH2CHC2HCFeSH5CH4CSHCHSHC2H5NC2H4CNCH2CNH6C4HCH2C2SH2SHCH2SCH2CHSH2CH4CHC2FeC2H4SHNFeHCH3C4H2C3H2NCH4SFeSCHC2H4C3HCHCHSHCH2CSCH4CH2CFe2S2CHSCHFeSH2FeCSFeS2FeHFeHS2CH2CH2CHCSH2FeSCSHCH3CHCSCSCHCHSHC2HSC2HCH2FeH2CSHC2SNC2H5C2HC3HFeC2H2C3HC4H2NH2C2H2C6H4CNFeC2HCH3C3FeC2HSCH2CH8CH2S2HC2H4CHC2SH2CH3FeH5CSHCNHSH3CHCHCH3CHC2HFeH2NCH2CSCH2CSH2NH3CHC2HCHNCH2SCSCFeH4CHCSNHC3H2CH3SCH2C2HC2H2C4HCH2C3H3CHFeSCHNHFeC2HCHCH2CNCHC2H3SCHNCHCH2C3HCHC2H2C5HCH3CH8SH3C2H2C2H2C2HCHC2SH2NC2HCH2CHCHFeCHSCHCHCHC2H2C4H6S2FeS2FeS2FeSFeS3FeC2H2Fe2SHCSH2FeS3FeSFeS2FeS2FeSFeS3CSFeS2FeS2FeSFeS3CSCFeS2FeSFeSHSH2C2HC6H4C6H4C4H3CSHC6H4C6H4C6H4CH2CH4C7H4C6H4C6H4C6H4C4HSH4NC6FeC4H3NC7H11NC7H8SH2CSCH3CH4CH2CH2FeH4CSH5NC6H2CH11SH2NC6H4CH5CHFe2CHCSHCHC3FeC2H4NC9H16SCHCH2NC9H14NHCHC2NHC2HCH2C4NC2HSC3HCFeHNHCHC9HCH4C2H2CSCFeSHCH2FeSH2C3HSC3HC2FeH4C2H3FeH2SH3CHSFeHC4HSH2CH3C6H3CFeSHCHSCH2CHCHNHCHNHFeNCHC3HS2CHNH2CFeHCH2C2H3CH2SH3SCSHFeCH2CHCSC4H5SH3CHC2HSH2C2HC2SCH2CHSCHC3HCH3CH4NH4SC3HSHFeSH7C5H3SH2SHC3NH2CHSCHC2HC2H2CH2CFeSHFeS2FeSFeS3HC6H2SHC2H2C2HCH4C3H3C2HC4NH4CHC2H2C2H3CHFeH5CSCSHFeHC6NH2NCHNCHC4NCHCHCH6C3H5C2HC5H2SHCH9CHCSH3CHCSC2H8CHC3HSC2HSC4HCHCH2CNHC2H2CHFeS2FeS2FeSFeS3CFeS2FeS2FeS2FeSFeS3HN2HSHFeCFeS2FeSCSCFeHFeS2FeS2FeSFeS3CH2C3SCH2C6H4C6HC7H3NC6H2CHC4H3C2H2FeC6H4C6H4C6H6CHC2H3SH2C3H5CH6CH2C2H2NC9H11SC2NC6FeHNH9C2H2CNC7H4SH6C2SC4HCH3SCHCHC2HCHC2NC9H13CH2NHCHCHC3H2SHCH2CH3CNSCSHC3SH6CH2CH2C2FeHCFeH7C3H2SHSNHCH2C4H8CSC3H2CH2CHCNC2HCH2CHCH7CH4C2H9CH2CH2C2HC2H2CHNH2SHC2H2CH5CHSH2C2HCHCHCH2C2H2SH3CH2C2HCHC2HFeHSFeCSH3S2FeS2FeS2FeSFeS3HC2HC2FeH2SH2FeHSFeS2FeSC2S2HCHCH2CFeS2H2SHFeS4FeS2FeSFeSHSC6H4CHC5NH2C6H6C3H3CH2CH3C2H2CH2C2H2C3H4C6HSH2C6H4C4H5C7H4SNC9H14NC9SH3CHCH9CHC3H3CNHCHCH5CHCH2CH2C3NC5H10FeHC2H2FeNCHC2H2FeC2HC2FeSH3C2HCFeHNCH4CH2CH2SCHCSH2CSH2CHCHCHC2H2C2HC2H3CHC3HCH3CHCHC2HCSH2SH3C3HCSC3HC4FeSHFeS2Fe2S3FeS2FeS2FeSFeS3FeS2FeS2FeSFeS3NSNFeSHFeSFeS2HFeS2FeS2FeSFeS3H2FeS2C2FeSCSHC6H3CHCH2C6H4C3H3CH2C8H4C6H4C5H3CHC6H4C6H5C2HCHC7H6C5H3CH2CH2CH7C2HCHCHCHC4H6CH2C5H2CH2C2HSCSNC2H2CH5C2H2NCH5NC9H13FeNC9H14NC9H13CHC2HC2H2CFeCH4CH3CSH2C4HCSC5H2C2H2CNCSCH5C2H2C2SHCH3CH5NH3CHCHCHC2H3CHCH3CH7CH2CHC2HNH6SHCH2SCHC3HFeCH2CNHC2H2NH2C2H3C2SNC2HCSCHCHC4HNH2CHSH6C2H2CHCSH5NHFeCSCH6CH2CHCHCSCHC2HCHFeHCSH2NCSH6CHCHC3H4CH3SCHC2HNHSNCHFeH5C2H3C4HCHCH2C2FeHCFeSHFeHFeSFeHS2FeS2FeS2FeSFeS3FeS2FeSHFeSFeS3NCSFeSH2SCFeS2FeSFeSH3SHFeSHFeSFeSHSFeSH2NSCNS3C6H4C6H2FeHC6H7CHCH2C7H4C6H4CH2C6H4C2HSC2HC6H5CH2C3SNC9H14CHCH2CHCHFeC2HSCSHC3H2CH2C3HSC2H4CFeH7C3HCHCH3C2FeHCH2NC8H12C2H3CHNHCHCHC5SHCHC3HFeC2H2C2HS2H2NCHCHSH2SC2HCH5FeHCH4C2H2NSHCFeH3NH2C3H2CH4C2H2FeHCH2SH3SH2SH4CH7CSCH2FeC2HC2HCHCH2SHCH2FeS2FeS4H2CFeSHSHCHFeC3SC2HFeH4CHCSCHCHC7H4NCH3C2H4C3H9C4H2CNHCSNCH3NH3SCHC2HCNCH8C3H2CH4C2HCHCFeHCH2CHCHCSHCHC2HFeCHFeHC2SHCSC3FeHC4H2FeS2FeS2FeSFeS3CSHFeSHFeSFeSHSHSCFeCHSFeS2FeS2FeSFeS3FeS2FeS2FeSFeS3CSHSFeSFeSC7H5SC5H2C6H5C6H5CHC6H4C6H3C6H4C6H4C6H4CSHCHC6H4C2HSC3HSCH2FeCHC2H2CH3CFeCH2C2H2FeC2HSHC3H3FeH2CHCH3C2N2C9H21C2HC3H4C2HCH2CNC2HC4FeCHCH10C2HC3H3SH3CNC9H14NC9H14NC9H14NC2HC3HCHCH3CH6CHS2H3CH3CHCSHC2HCSC2SHSCNCHCHCHSC2FeH2NHC4HC2NFeC4HCS3H2CH3CHNH5CHSCFeH3FeH2CHFeHSH2CNHCH2C2HCH6C2H2CH4CH2C4H4C2H2FeS2CSCFeSFeS2CFeS2FeS2FeHFeS3CHCH3C4H4FeSHFeSH2SCH3CH2CH3C2HC2HC6H2SCH6CHCH3C3H2CHC3HCH2CNHSH3FeHCHCHSCH3C3HSC2H2CH4CH2C7H4C3H5CH2NCH2C2H2CH3C2H5SFeH2CNHC3HC4HCH2C3H2C2H4SC2SCH3C3H2C2NCNCHC3HFeH2C2SNCHSNC2H2CH2C2H2C
_chemical_formula_sum              "H3456 Fe384 S768 C2880 N192"
_cell_length_a       133.775
_cell_length_b       66.4659
_cell_length_c       67.5096
_cell_angle_alpha    74.0348
_cell_angle_beta     73.9058
_cell_angle_gamma    74.096

_space_group_name_H-M_alt    "P 1"
_space_group_IT_number       1

loop_
  _space_group_symop_operation_xyz
  'x, y, z'

loop_
  _atom_site_type_symbol
  _atom_site_label
  _atom_site_symmetry_multiplicity
  _atom_site_fract_x
  _atom_site_fract_y
  _atom_site_fract_z
  _atom_site_occupancy
  H   H1        1.0  0.19328  0.10302  0.29064  1.0000
  Fe  Fe1       1.0  0.19144  0.04906  0.28819  1.0000
  H   H2        1.0  0.99724  0.41125  0.30760  1.0000
  H   H3        1.0  0.08258  0.33665  0.26303  1.0000
  Fe  Fe2       1.0  0.03151  0.40217  0.31693  1.0000
  S   S1        1.0  0.22186  0.05327  0.17487  1.0000
  Fe  Fe3       1.0  0.04731  0.38157  0.28285  1.0000
  H   H4        1.0  0.01904  0.45152  0.24862  1.0000
  H   H5        1.0  0.22353  0.03444  0.21850  1.0000
  Fe  Fe4       1.0  0.02758  0.36413  0.30569  1.0000
  Fe  Fe5       1.0  0.23620  0.02674  0.17827  1.0000
  H   H6        1.0  0.01125  0.32241  0.15834  1.0000
  C   C1        1.0  0.20739  0.99830  0.20992  1.0000
  C   C2        1.0  0.07223  0.31753  0.29896  1.0000
  H   H7        1.0  0.00029  0.42486  0.28087  1.0000
  C   C3        1.0  0.00263  0.46598  0.24986  1.0000
  H   H8        1.0  0.21048  0.01193  0.21066  1.0000
  S   S2        1.0  0.03325  0.47871  0.14932  1.0000
  H   H9        1.0  0.99186  0.39679  0.26173  1.0000
  H   H10       1.0  0.00416  0.43901  0.20477  1.0000
  S   S3        1.0  0.05713  0.38896  0.25003  1.0000
  S   S4        1.0  0.00871  0.36037  0.20824  1.0000
  C   C4        1.0  0.00543  0.31567  0.15446  1.0000
  H   H11       1.0  0.00280  0.35786  0.14492  1.0000
  C   C5        1.0  0.01280  0.35546  0.27489  1.0000
  C   C6        1.0  0.00305  0.35430  0.27172  1.0000
  C   C7        1.0  0.00166  0.35656  0.25126  1.0000
  C   C8        1.0  0.01013  0.35917  0.23384  1.0000
  C   C9        1.0  0.01992  0.36017  0.23699  1.0000
  C   C10       1.0  0.02120  0.35871  0.25741  1.0000
  H   H12       1.0  0.99655  0.35156  0.28514  1.0000
  S   S5        1.0  0.19328  0.07693  0.26066  1.0000
  H   H13       1.0  0.02655  0.36198  0.22362  1.0000
  H   H14       1.0  0.02765  0.45573  0.19248  1.0000
  C   C11       1.0  0.05646  0.41666  0.24286  1.0000
  C   C12       1.0  0.05582  0.42800  0.22226  1.0000
  C   C13       1.0  0.05457  0.45040  0.21703  1.0000
  C   C14       1.0  0.05434  0.46129  0.23225  1.0000
  C   C15       1.0  0.05531  0.44984  0.25261  1.0000
  C   C16       1.0  0.05617  0.42764  0.25800  1.0000
  H   H15       1.0  0.05614  0.41949  0.21048  1.0000
  H   H16       1.0  0.05392  0.45919  0.20121  1.0000
  H   H17       1.0  0.05525  0.45815  0.26436  1.0000
  H   H18       1.0  0.05683  0.41900  0.27380  1.0000
  C   C17       1.0  0.02039  0.47315  0.15569  1.0000
  C   C18       1.0  0.01905  0.45543  0.14998  1.0000
  C   C19       1.0  0.00894  0.45045  0.15492  1.0000
  C   C20       1.0  0.00005  0.46352  0.16514  1.0000
  C   C21       1.0  0.00141  0.48112  0.17103  1.0000
  H   H19       1.0  0.19198  0.12755  0.29795  1.0000
  H   H20       1.0  0.02586  0.44553  0.14164  1.0000
  H   H21       1.0  0.00798  0.43691  0.15021  1.0000
  C   C22       1.0  0.98722  0.41202  0.26646  1.0000
  H   H22       1.0  0.19152  0.10293  0.31791  1.0000
  C   C23       1.0  0.17456  0.12941  0.28546  1.0000
  S   S6        1.0  0.19790  0.01454  0.28697  1.0000
  S   S7        1.0  0.19627  0.04641  0.31816  1.0000
  C   C24       1.0  0.08540  0.32532  0.31395  1.0000
  H   H23       1.0  0.02878  0.35941  0.25971  1.0000
  C   C25       1.0  0.21417  0.05951  0.19900  1.0000
  C   C26       1.0  0.20540  0.07679  0.19885  1.0000
  C   C27       1.0  0.19911  0.08206  0.21785  1.0000
  C   C28       1.0  0.20135  0.06975  0.23717  1.0000
  C   C29       1.0  0.21008  0.05232  0.23742  1.0000
  C   C30       1.0  0.21659  0.04743  0.21830  1.0000
  H   H24       1.0  0.20352  0.08623  0.18398  1.0000
  H   H25       1.0  0.19240  0.09558  0.21756  1.0000
  H   H26       1.0  0.21200  0.04303  0.25229  1.0000
  H   H27       1.0  0.21566  0.00418  0.24047  1.0000
  H   H28       1.0  0.03106  0.42192  0.24402  1.0000
  C   C31       1.0  0.17438  0.09558  0.31017  1.0000
  S   S8        1.0  0.04494  0.34850  0.29939  1.0000
  S   S9        1.0  0.02997  0.39642  0.28701  1.0000
  H   H29       1.0  0.18726  0.01552  0.22742  1.0000
  H   H30       1.0  0.98938  0.32037  0.18802  1.0000
  H   H31       1.0  0.09183  0.34446  0.27236  1.0000
  Fe  Fe6       1.0  0.18162  0.00990  0.30520  1.0000
  N   N1        1.0  0.17726  0.11664  0.30576  1.0000
  H   H32       1.0  0.99547  0.34285  0.18085  1.0000
  H   H33       1.0  0.99460  0.49108  0.17924  1.0000
  H   H34       1.0  0.98976  0.36431  0.14005  1.0000
  S   S10       1.0  0.01417  0.35264  0.30089  1.0000
  H   H35       1.0  0.17918  0.08625  0.29809  1.0000
  H   H36       1.0  0.03279  0.45218  0.21525  1.0000
  N   N2        1.0  0.07939  0.33193  0.29694  1.0000
  Fe  Fe7       1.0  0.20107  0.01119  0.31876  1.0000
  H   H37       1.0  0.03886  0.43450  0.19737  1.0000
  H   H38       1.0  0.00898  0.31140  0.13877  1.0000
  C   C32       1.0  0.18901  0.11244  0.30305  1.0000
  C   C33       1.0  0.99727  0.41066  0.29130  1.0000
  H   H39       1.0  0.23208  0.06142  0.12329  1.0000
  H   H40       1.0  0.03579  0.40241  0.22861  1.0000
  C   C34       1.0  0.02454  0.49017  0.31986  1.0000
  N   N3        1.0  0.02371  0.42905  0.21726  1.0000
  C   C35       1.0  0.02295  0.41620  0.20306  1.0000
  C   C36       1.0  0.03108  0.44343  0.20511  1.0000
  C   C37       1.0  0.02844  0.41380  0.23462  1.0000
  C   C38       1.0  0.01332  0.44226  0.22578  1.0000
  C   C39       1.0  0.01231  0.45295  0.24203  1.0000
  C   C40       1.0  0.00415  0.44604  0.21742  1.0000
  H   H41       1.0  0.02270  0.40409  0.24545  1.0000
  H   H42       1.0  0.03435  0.46635  0.28861  1.0000
  H   H43       1.0  0.07674  0.30082  0.29860  1.0000
  H   H44       1.0  0.02068  0.42654  0.18829  1.0000
  H   H45       1.0  0.03072  0.40547  0.19785  1.0000
  H   H46       1.0  0.01708  0.40578  0.21103  1.0000
  H   H47       1.0  0.19633  0.01912  0.24067  1.0000
  H   H48       1.0  0.03494  0.47723  0.26120  1.0000
  H   H49       1.0  0.02227  0.47659  0.27926  1.0000
  H   H50       1.0  0.23652  0.08196  0.14375  1.0000
  S   S11       1.0  0.17486  0.04491  0.30440  1.0000
  H   H51       1.0  0.21263  0.49334  0.02778  1.0000
  C   C41       1.0  0.99459  0.45942  0.22504  1.0000
  H   H52       1.0  0.16596  0.13185  0.28581  1.0000
  C   C42       1.0  0.09267  0.33734  0.31407  1.0000
  C   C43       1.0  0.98746  0.37654  0.31788  1.0000
  Fe  Fe8       1.0  0.99284  0.37939  0.20134  1.0000
  H   H53       1.0  0.06791  0.35921  0.28483  1.0000
  C   C44       1.0  0.99038  0.33523  0.17584  1.0000
  C   C45       1.0  0.23388  0.47989  0.31821  1.0000
  C   C46       1.0  0.99717  0.35155  0.14000  1.0000
  S   S12       1.0  0.05253  0.48924  0.22659  1.0000
  C   C47       1.0  0.08689  0.33235  0.27609  1.0000
  H   H54       1.0  0.17905  0.12127  0.27217  1.0000
  C   C48       1.0  0.03035  0.47942  0.27721  1.0000
  H   H55       1.0  0.06789  0.32285  0.28589  1.0000
  C   C49       1.0  0.99378  0.46914  0.24143  1.0000
  H   H56       1.0  0.99411  0.35560  0.24906  1.0000
  H   H57       1.0  0.03147  0.47714  0.31996  1.0000
  H   H58       1.0  0.06703  0.35391  0.31278  1.0000
  S   S13       1.0  0.99135  0.39552  0.16794  1.0000
  H   H59       1.0  0.09238  0.31645  0.27549  1.0000
  C   C50       1.0  0.07268  0.35370  0.29724  1.0000
  C   C51       1.0  0.01155  0.48581  0.16656  1.0000
  S   S14       1.0  0.04922  0.39020  0.31126  1.0000
  H   H60       1.0  0.99118  0.42496  0.25606  1.0000
  H   H61       1.0  0.18769  0.00093  0.25399  1.0000
  N   N4        1.0  0.99503  0.33105  0.15434  1.0000
  H   H62       1.0  0.00849  0.47431  0.31483  1.0000
  H   H63       1.0  0.00317  0.39618  0.28716  1.0000
  H   H64       1.0  0.17651  0.14549  0.28156  1.0000
  H   H65       1.0  0.00202  0.47379  0.26245  1.0000
  H   H66       1.0  0.07738  0.36598  0.29456  1.0000
  H   H67       1.0  0.00475  0.30056  0.16644  1.0000
  H   H68       1.0  0.16595  0.09685  0.31009  1.0000
  C   C52       1.0  0.98770  0.32192  0.14815  1.0000
  H   H69       1.0  0.09386  0.35155  0.30204  1.0000
  H   H70       1.0  0.98832  0.29338  0.17370  1.0000
  H   H71       1.0  0.04414  0.48972  0.29261  1.0000
  H   H72       1.0  0.06597  0.31741  0.31387  1.0000
  H   H73       1.0  0.98776  0.46209  0.21819  1.0000
  H   H74       1.0  0.99465  0.37809  0.32110  1.0000
  H   H75       1.0  0.20277  0.00497  0.19729  1.0000
  H   H76       1.0  0.00078  0.34958  0.12350  1.0000
  C   C53       1.0  0.19267  0.00697  0.23840  1.0000
  H   H77       1.0  0.15557  0.12533  0.32139  1.0000
  H   H78       1.0  0.16464  0.26470  0.54813  1.0000
  H   H79       1.0  0.14636  0.12991  0.52057  1.0000
  H   H80       1.0  0.16276  0.24718  0.53420  1.0000
  Fe  Fe9       1.0  0.21207  0.35189  0.62300  1.0000
  S   S15       1.0  0.21762  0.33261  0.59781  1.0000
  H   H81       1.0  0.21164  0.27300  0.54930  1.0000
  Fe  Fe10      1.0  0.18878  0.35686  0.62367  1.0000
  S   S16       1.0  0.19225  0.33791  0.59907  1.0000
  C   C54       1.0  0.22622  0.29774  0.52551  1.0000
  Fe  Fe11      1.0  0.20449  0.31545  0.61583  1.0000
  S   S17       1.0  0.20697  0.27961  0.62133  1.0000
  Fe  Fe12      1.0  0.20497  0.35654  0.58258  1.0000
  S   S18       1.0  0.20790  0.36660  0.54711  1.0000
  C   C55       1.0  0.15415  0.14133  0.34559  1.0000
  S   S19       1.0  0.20055  0.37769  0.60598  1.0000
  Fe  Fe13      1.0  0.19923  0.32299  0.45106  1.0000
  S   S20       1.0  0.19509  0.29964  0.48156  1.0000
  S   S21       1.0  0.21621  0.32650  0.43715  1.0000
  Fe  Fe14      1.0  0.17676  0.33586  0.44435  1.0000
  S   S22       1.0  0.17048  0.31429  0.47453  1.0000
  S   S23       1.0  0.16601  0.35686  0.42302  1.0000
  Fe  Fe15      1.0  0.18074  0.32541  0.48855  1.0000
  S   S24       1.0  0.17481  0.33267  0.52071  1.0000
  Fe  Fe16      1.0  0.18524  0.29031  0.46501  1.0000
  S   S25       1.0  0.18347  0.25631  0.47310  1.0000
  S   S26       1.0  0.18547  0.34973  0.45941  1.0000
  S   S27       1.0  0.19085  0.31092  0.43355  1.0000
  C   C56       1.0  0.19250  0.41460  0.52167  1.0000
  C   C57       1.0  0.18209  0.41141  0.52988  1.0000
  C   C58       1.0  0.17624  0.13684  0.33362  1.0000
  H   H82       1.0  0.17587  0.23508  0.64489  1.0000
  H   H83       1.0  0.18710  0.17124  0.50710  1.0000
  C   C59       1.0  0.19323  0.40173  0.49094  1.0000
  H   H84       1.0  0.18236  0.07927  0.43064  1.0000
  S   S28       1.0  0.16988  0.05438  0.36213  1.0000
  C   C60       1.0  0.21674  0.39302  0.48781  1.0000
  H   H85       1.0  0.21415  0.40884  0.52164  1.0000
  Fe  Fe17      1.0  0.14854  0.16906  0.43438  1.0000
  S   S29       1.0  0.15991  0.17590  0.40316  1.0000
  S   S30       1.0  0.13106  0.17200  0.43754  1.0000
  Fe  Fe18      1.0  0.16557  0.15728  0.45964  1.0000
  S   S31       1.0  0.17846  0.16290  0.43060  1.0000
  S   S32       1.0  0.16950  0.14563  0.49194  1.0000
  Fe  Fe19      1.0  0.16656  0.19218  0.42003  1.0000
  S   S33       1.0  0.17079  0.22425  0.40542  1.0000
  Fe  Fe20      1.0  0.17081  0.14576  0.41621  1.0000
  S   S34       1.0  0.18204  0.12375  0.39508  1.0000
  S   S35       1.0  0.15418  0.18802  0.45009  1.0000
  S   S36       1.0  0.15889  0.13748  0.44635  1.0000
  Fe  Fe21      1.0  0.16106  0.19928  0.58357  1.0000
  S   S37       1.0  0.15247  0.20638  0.55714  1.0000
  S   S38       1.0  0.16115  0.22919  0.59274  1.0000
  Fe  Fe22      1.0  0.11999  0.30838  0.42639  1.0000
  S   S39       1.0  0.11244  0.29696  0.46021  1.0000
  S   S40       1.0  0.13774  0.29717  0.41859  1.0000
  Fe  Fe23      1.0  0.09863  0.32818  0.41337  1.0000
  S   S41       1.0  0.08932  0.31830  0.44641  1.0000
  S   S42       1.0  0.09191  0.34848  0.38491  1.0000
  Fe  Fe24      1.0  0.10124  0.32904  0.45684  1.0000
  S   S43       1.0  0.09714  0.35019  0.48044  1.0000
  Fe  Fe25      1.0  0.10146  0.28711  0.44682  1.0000
  S   S44       1.0  0.09745  0.25473  0.46041  1.0000
  S   S45       1.0  0.10976  0.34140  0.42375  1.0000
  S   S46       1.0  0.10983  0.29603  0.41306  1.0000
  Fe  Fe26      1.0  0.12753  0.36167  0.59219  1.0000
  S   S47       1.0  0.14249  0.37453  0.57770  1.0000
  Fe  Fe27      1.0  0.11463  0.33384  0.58514  1.0000
  S   S48       1.0  0.10349  0.33376  0.61700  1.0000
  S   S49       1.0  0.11446  0.31254  0.56434  1.0000
  S   S50       1.0  0.11362  0.36934  0.57675  1.0000
  S   S51       1.0  0.12939  0.32624  0.59771  1.0000
  H   H86       1.0  0.22988  0.47234  0.33358  1.0000
  C   C61       1.0  0.13279  0.27613  0.63943  1.0000
  S   S52       1.0  0.05451  0.33407  0.35232  1.0000
  C   C62       1.0  0.16730  0.32120  0.59624  1.0000
  H   H87       1.0  0.13948  0.32872  0.45798  1.0000
  C   C63       1.0  0.16210  0.26436  0.53385  1.0000
  C   C64       1.0  0.19232  0.17378  0.47399  1.0000
  S   S53       1.0  0.23228  0.43829  0.65403  1.0000
  H   H88       1.0  0.18684  0.01196  0.38250  1.0000
  C   C65       1.0  0.21929  0.27034  0.55410  1.0000
  S   S54       1.0  0.02767  0.37089  0.33659  1.0000
  H   H89       1.0  0.19719  0.39765  0.47589  1.0000
  H   H90       1.0  0.19928  0.40173  0.34137  1.0000
  C   C66       1.0  0.08384  0.36556  0.58466  1.0000
  C   C67       1.0  0.19481  0.01550  0.37436  1.0000
  C   C68       1.0  0.13877  0.36198  0.52717  1.0000
  C   C69       1.0  0.10115  0.33947  0.50461  1.0000
  C   C70       1.0  0.10454  0.31741  0.51152  1.0000
  C   C71       1.0  0.10833  0.30933  0.53021  1.0000
  C   C72       1.0  0.10887  0.32328  0.54195  1.0000
  C   C73       1.0  0.10527  0.34533  0.53532  1.0000
  C   C74       1.0  0.10128  0.35338  0.51683  1.0000
  H   H91       1.0  0.10417  0.30656  0.50253  1.0000
  H   H92       1.0  0.11093  0.29222  0.53548  1.0000
  H   H93       1.0  0.10575  0.35623  0.54413  1.0000
  H   H94       1.0  0.09854  0.37047  0.51165  1.0000
  C   C75       1.0  0.08074  0.34520  0.37773  1.0000
  C   C76       1.0  0.07636  0.32703  0.38683  1.0000
  C   C77       1.0  0.06817  0.32410  0.37918  1.0000
  C   C78       1.0  0.06415  0.33942  0.36265  1.0000
  C   C79       1.0  0.06826  0.35797  0.35412  1.0000
  C   C80       1.0  0.07658  0.36070  0.36147  1.0000
  H   H95       1.0  0.07948  0.31498  0.39935  1.0000
  H   H96       1.0  0.06502  0.30975  0.38597  1.0000
  H   H97       1.0  0.06514  0.37011  0.34170  1.0000
  H   H98       1.0  0.07987  0.37485  0.35442  1.0000
  H   H99       1.0  0.16250  0.37059  0.49585  1.0000
  H   H100      1.0  0.15393  0.30069  0.54624  1.0000
  C   C81       1.0  0.12201  0.19567  0.44301  1.0000
  C   C82       1.0  0.11120  0.19528  0.45035  1.0000
  C   C83       1.0  0.10376  0.21361  0.45529  1.0000
  C   C84       1.0  0.10699  0.23271  0.45240  1.0000
  C   C85       1.0  0.11780  0.23337  0.44461  1.0000
  C   C86       1.0  0.12532  0.21472  0.44021  1.0000
  H   H101      1.0  0.10858  0.18064  0.45255  1.0000
  H   H102      1.0  0.09544  0.21297  0.46139  1.0000
  H   H103      1.0  0.12034  0.24807  0.44249  1.0000
  H   H104      1.0  0.13366  0.21501  0.43459  1.0000
  C   C87       1.0  0.16560  0.16341  0.50920  1.0000
  C   C88       1.0  0.16719  0.15560  0.52988  1.0000
  C   C89       1.0  0.16353  0.16893  0.54450  1.0000
  C   C90       1.0  0.15816  0.19010  0.53853  1.0000
  C   C91       1.0  0.15701  0.19825  0.51761  1.0000
  C   C92       1.0  0.16076  0.18495  0.50294  1.0000
  H   H105      1.0  0.17102  0.13901  0.53475  1.0000
  H   H106      1.0  0.16451  0.16258  0.56058  1.0000
  H   H107      1.0  0.15313  0.21479  0.51278  1.0000
  H   H108      1.0  0.15975  0.19126  0.48694  1.0000
  C   C93       1.0  0.17826  0.10530  0.38551  1.0000
  C   C94       1.0  0.16810  0.10071  0.39264  1.0000
  C   C95       1.0  0.16562  0.08517  0.38526  1.0000
  C   C96       1.0  0.17323  0.07424  0.37058  1.0000
  C   C97       1.0  0.18333  0.07913  0.36321  1.0000
  C   C98       1.0  0.18583  0.09452  0.37068  1.0000
  H   H109      1.0  0.16221  0.10889  0.40407  1.0000
  H   H110      1.0  0.15778  0.08152  0.39104  1.0000
  H   H111      1.0  0.18928  0.07085  0.35201  1.0000
  H   H112      1.0  0.19371  0.09792  0.36518  1.0000
  C   C99       1.0  0.15864  0.34073  0.41902  1.0000
  C   C100      1.0  0.14895  0.34986  0.41269  1.0000
  C   C101      1.0  0.14235  0.33667  0.41262  1.0000
  C   C102      1.0  0.14565  0.31437  0.41818  1.0000
  C   C103      1.0  0.15551  0.30533  0.42369  1.0000
  C   C104      1.0  0.16192  0.31846  0.42440  1.0000
  H   H113      1.0  0.14639  0.36710  0.40850  1.0000
  H   H114      1.0  0.13477  0.34369  0.40813  1.0000
  H   H115      1.0  0.15809  0.28809  0.42792  1.0000
  H   H116      1.0  0.16934  0.31126  0.42939  1.0000
  C   C105      1.0  0.17956  0.24821  0.45427  1.0000
  C   C106      1.0  0.17965  0.26081  0.43390  1.0000
  C   C107      1.0  0.17685  0.25354  0.41892  1.0000
  C   C108      1.0  0.17401  0.23363  0.42429  1.0000
  C   C109      1.0  0.17380  0.22120  0.44475  1.0000
  C   C110      1.0  0.17647  0.22857  0.45975  1.0000
  H   H117      1.0  0.18203  0.27597  0.42955  1.0000
  H   H118      1.0  0.17699  0.26324  0.40313  1.0000
  H   H119      1.0  0.17181  0.20567  0.44899  1.0000
  H   H120      1.0  0.17632  0.21878  0.47550  1.0000
  C   C111      1.0  0.16327  0.37173  0.62250  1.0000
  C   C112      1.0  0.15288  0.36845  0.63073  1.0000
  C   C113      1.0  0.14635  0.36971  0.61711  1.0000
  C   C114      1.0  0.15013  0.37458  0.59519  1.0000
  C   C115      1.0  0.16038  0.37875  0.58701  1.0000
  C   C116      1.0  0.16697  0.37713  0.60062  1.0000
  H   H121      1.0  0.16894  0.33177  0.60459  1.0000
  H   H122      1.0  0.13845  0.36667  0.62361  1.0000
  H   H123      1.0  0.16329  0.38293  0.57011  1.0000
  H   H124      1.0  0.17489  0.38019  0.59420  1.0000
  C   C117      1.0  0.20087  0.26943  0.60731  1.0000
  C   C118      1.0  0.19166  0.27429  0.57941  1.0000
  C   C119      1.0  0.19562  0.28291  0.59166  1.0000
  H   H125      1.0  0.18789  0.28477  0.56690  1.0000
  H   H126      1.0  0.19481  0.29993  0.58857  1.0000
  C   C120      1.0  0.19861  0.35845  0.53866  1.0000
  C   C121      1.0  0.18824  0.35927  0.55080  1.0000
  C   C122      1.0  0.18100  0.35132  0.54517  1.0000
  C   C123      1.0  0.18400  0.34287  0.52711  1.0000
  C   C124      1.0  0.19426  0.34270  0.51441  1.0000
  C   C125      1.0  0.20158  0.35041  0.52024  1.0000
  H   H127      1.0  0.18571  0.36662  0.56425  1.0000
  H   H128      1.0  0.17299  0.35208  0.55460  1.0000
  H   H129      1.0  0.19659  0.33638  0.50027  1.0000
  H   H130      1.0  0.20958  0.34964  0.51075  1.0000
  C   C126      1.0  0.13406  0.24391  0.38318  1.0000
  H   H131      1.0  0.12173  0.34673  0.47087  1.0000
  H   H132      1.0  0.17781  0.41466  0.54525  1.0000
  H   H133      1.0  0.20306  0.36575  0.44890  1.0000
  C   C127      1.0  0.21862  0.42053  0.34909  1.0000
  H   H134      1.0  0.15484  0.15671  0.36923  1.0000
  C   C128      1.0  0.21275  0.38911  0.43625  1.0000
  C   C129      1.0  0.00442  0.46142  0.32277  1.0000
  C   C130      1.0  0.01751  0.49208  0.33922  1.0000
  H   H135      1.0  0.22218  0.42272  0.49897  1.0000
  C   C131      1.0  0.23107  0.37614  0.41988  1.0000
  H   H136      1.0  0.21603  0.39957  0.62367  1.0000
  C   C132      1.0  0.15308  0.24297  0.36953  1.0000
  H   H137      1.0  0.21043  0.29989  0.52066  1.0000
  S   S55       1.0  0.19989  0.33257  0.64235  1.0000
  C   C133      1.0  0.18048  0.28151  0.64851  1.0000
  N   N5        1.0  0.20130  0.01499  0.38916  1.0000
  H   H138      1.0  0.20101  0.07663  0.41110  1.0000
  C   C134      1.0  0.22904  0.35560  0.42367  1.0000
  C   C135      1.0  0.12517  0.22482  0.52144  1.0000
  H   H139      1.0  0.19994  0.10744  0.64787  1.0000
  Fe  Fe28      1.0  0.18018  0.03953  0.33458  1.0000
  N   N6        1.0  0.22339  0.29024  0.54873  1.0000
  C   C136      1.0  0.22981  0.41476  0.65085  1.0000
  C   C137      1.0  0.20183  0.04811  0.40069  1.0000
  H   H140      1.0  0.08355  0.35675  0.64680  1.0000
  H   H141      1.0  0.20914  0.43650  0.50959  1.0000
  H   H142      1.0  0.10078  0.31036  0.35954  1.0000
  C   C138      1.0  0.22307  0.41650  0.63751  1.0000
  H   H143      1.0  0.09178  0.36217  0.57397  1.0000
  H   H144      1.0  0.98775  0.34678  0.34091  1.0000
  N   N7        1.0  0.20941  0.41324  0.49245  1.0000
  H   H145      1.0  0.07842  0.29776  0.33284  1.0000
  C   C139      1.0  0.07404  0.40910  0.64969  1.0000
  H   H146      1.0  0.10334  0.34177  0.33062  1.0000
  C   C140      1.0  0.17031  0.14732  0.34990  1.0000
  C   C141      1.0  0.18391  0.12576  0.64804  1.0000
  C   C142      1.0  0.23246  0.28553  0.55917  1.0000
  H   H147      1.0  0.21758  0.43283  0.46482  1.0000
  H   H148      1.0  0.17577  0.08584  0.32577  1.0000
  H   H149      1.0  0.21766  0.26358  0.57143  1.0000
  C   C143      1.0  0.20050  0.22010  0.51085  1.0000
  H   H150      1.0  0.19726  0.23530  0.50048  1.0000
  H   H151      1.0  0.19956  0.22419  0.52633  1.0000
  H   H152      1.0  0.20918  0.21513  0.50440  1.0000
  H   H153      1.0  0.13203  0.36883  0.44479  1.0000
  C   C144      1.0  0.21387  0.42068  0.50635  1.0000
  H   H154      1.0  0.14385  0.37376  0.44787  1.0000
  H   H155      1.0  0.23551  0.30017  0.55699  1.0000
  H   H156      1.0  0.19542  0.36788  0.35533  1.0000
  H   H157      1.0  0.17693  0.10514  0.61560  1.0000
  C   C145      1.0  0.18066  0.05120  0.42295  1.0000
  C   C146      1.0  0.08010  0.39118  0.64143  1.0000
  C   C147      1.0  0.13309  0.28629  0.49518  1.0000
  H   H158      1.0  0.13300  0.22428  0.52462  1.0000
  H   H159      1.0  0.15982  0.25046  0.36821  1.0000
  H   H160      1.0  0.15079  0.33626  0.46056  1.0000
  C   C148      1.0  0.13570  0.37160  0.45649  1.0000
  C   C149      1.0  0.18629  0.06606  0.42277  1.0000
  H   H161      1.0  0.14128  0.22246  0.48724  1.0000
  C   C150      1.0  0.14004  0.27735  0.47871  1.0000
  C   C151      1.0  0.21847  0.30200  0.51332  1.0000
  H   H162      1.0  0.22507  0.41089  0.37693  1.0000
  H   H163      1.0  0.21085  0.35222  0.39749  1.0000
  C   C152      1.0  0.13431  0.35805  0.51250  1.0000
  H   H164      1.0  0.13441  0.36151  0.54338  1.0000
  C   C153      1.0  0.19631  0.03265  0.40054  1.0000
  H   H165      1.0  0.17920  0.39162  0.49104  1.0000
  H   H166      1.0  0.19343  0.03155  0.36371  1.0000
  C   C154      1.0  0.17310  0.09562  0.63008  1.0000
  H   H167      1.0  0.01920  0.48083  0.35355  1.0000
  H   H168      1.0  0.16250  0.33227  0.58493  1.0000
  H   H169      1.0  0.18880  0.37839  0.65262  1.0000
  H   H170      1.0  0.12646  0.35458  0.51831  1.0000
  C   C155      1.0  0.13998  0.25631  0.63843  1.0000
  H   H171      1.0  0.18868  0.16099  0.47420  1.0000
  C   C156      1.0  0.16845  0.28894  0.62447  1.0000
  H   H172      1.0  0.14559  0.14279  0.35053  1.0000
  C   C157      1.0  0.21946  0.40856  0.36924  1.0000
  C   C158      1.0  0.17900  0.07673  0.64023  1.0000
  C   C159      1.0  0.15206  0.31525  0.62440  1.0000
  C   C160      1.0  0.13339  0.17719  0.49506  1.0000
  C   C161      1.0  0.13857  0.15566  0.49907  1.0000
  C   C162      1.0  0.14200  0.14641  0.51786  1.0000
  H   H173      1.0  0.11055  0.20775  0.51500  1.0000
  H   H174      1.0  0.11606  0.20847  0.48761  1.0000
  H   H175      1.0  0.13100  0.18356  0.48011  1.0000
  H   H176      1.0  0.14011  0.14620  0.48733  1.0000
  H   H177      1.0  0.12952  0.24150  0.48062  1.0000
  C   C163      1.0  0.14267  0.33397  0.46888  1.0000
  S   S56       1.0  0.17877  0.18799  0.57651  1.0000
  H   H178      1.0  0.18206  0.21778  0.53568  1.0000
  H   H179      1.0  0.08027  0.38285  0.57988  1.0000
  H   H180      1.0  0.08181  0.32021  0.55986  1.0000
  H   H181      1.0  0.15362  0.30693  0.58620  1.0000
  C   C164      1.0  0.19259  0.25215  0.58328  1.0000
  H   H182      1.0  0.08511  0.36346  0.60076  1.0000
  H   H183      1.0  0.16804  0.27090  0.52007  1.0000
  Fe  Fe29      1.0  0.17874  0.21689  0.58731  1.0000
  S   S57       1.0  0.18800  0.24149  0.56731  1.0000
  H   H184      1.0  0.21308  0.30270  0.57540  1.0000
  C   C165      1.0  0.18286  0.39842  0.49939  1.0000
  H   H185      1.0  0.17970  0.22391  0.50957  1.0000
  H   H186      1.0  0.16934  0.40028  0.52554  1.0000
  C   C166      1.0  0.08410  0.30733  0.33095  1.0000
  C   C167      1.0  0.13668  0.28595  0.51292  1.0000
  H   H187      1.0  0.14697  0.26699  0.56738  1.0000
  Fe  Fe30      1.0  0.11822  0.32932  0.62871  1.0000
  C   C168      1.0  0.20173  0.24727  0.61122  1.0000
  C   C169      1.0  0.19746  0.23866  0.59944  1.0000
  C   C170      1.0  0.14734  0.27626  0.51483  1.0000
  C   C171      1.0  0.15932  0.14929  0.35608  1.0000
  C   C172      1.0  0.21131  0.41774  0.33937  1.0000
  S   S58       1.0  0.22363  0.35408  0.64096  1.0000
  H   H188      1.0  0.07941  0.32600  0.52432  1.0000
  C   C173      1.0  0.20561  0.35311  0.38692  1.0000
  H   H189      1.0  0.20400  0.44510  0.47515  1.0000
  C   C174      1.0  0.99329  0.46579  0.32765  1.0000
  C   C175      1.0  0.11576  0.21572  0.50080  1.0000
  C   C176      1.0  0.20947  0.42966  0.47246  1.0000
  H   H190      1.0  0.18082  0.02373  0.41253  1.0000
  C   C177      1.0  0.13996  0.35861  0.49117  1.0000
  C   C178      1.0  0.18334  0.21103  0.52157  1.0000
  H   H191      1.0  0.19893  0.18872  0.54341  1.0000
  H   H192      1.0  0.20472  0.22084  0.47154  1.0000
  C   C179      1.0  0.07849  0.33638  0.55253  1.0000
  C   C180      1.0  0.14396  0.26815  0.55321  1.0000
  H   H193      1.0  0.15585  0.30690  0.51812  1.0000
  C   C181      1.0  0.99366  0.42819  0.34300  1.0000
  C   C182      1.0  0.15082  0.29948  0.53301  1.0000
  C   C183      1.0  0.17729  0.40330  0.51880  1.0000
  H   H194      1.0  0.06698  0.35519  0.61488  1.0000
  H   H195      1.0  0.14330  0.25175  0.55337  1.0000
  Fe  Fe31      1.0  0.10354  0.36879  0.60973  1.0000
  H   H196      1.0  0.20994  0.04813  0.39219  1.0000
  H   H197      1.0  0.19824  0.22152  0.60241  1.0000
  C   C184      1.0  0.21501  0.30705  0.55785  1.0000
  H   H198      1.0  0.14740  0.30348  0.63534  1.0000
  H   H199      1.0  0.22511  0.25778  0.54631  1.0000
  C   C185      1.0  0.12397  0.25688  0.38010  1.0000
  H   H200      1.0  0.21762  0.32252  0.55314  1.0000
  N   N8        1.0  0.19481  0.20301  0.51305  1.0000
  N   N9        1.0  0.15107  0.27693  0.53334  1.0000
  H   H201      1.0  0.09017  0.32381  0.58456  1.0000
  H   H202      1.0  0.21934  0.43218  0.62972  1.0000
  C   C186      1.0  0.15457  0.36734  0.50036  1.0000
  C   C187      1.0  0.15024  0.36332  0.48559  1.0000
  C   C188      1.0  0.19842  0.40978  0.50186  1.0000
  H   H203      1.0  0.14006  0.28087  0.35798  1.0000
  S   S59       1.0  0.15880  0.17989  0.61716  1.0000
  H   H204      1.0  0.21088  0.34829  0.37230  1.0000
  S   S60       1.0  0.18709  0.13918  0.62139  1.0000
  C   C189      1.0  0.14888  0.36657  0.52113  1.0000
  H   H205      1.0  0.12948  0.28519  0.62595  1.0000
  N   N10       1.0  0.14309  0.25301  0.38277  1.0000
  H   H206      1.0  0.16502  0.28516  0.58795  1.0000
  H   H207      1.0  0.10763  0.25792  0.38074  1.0000
  C   C190      1.0  0.21083  0.36850  0.44066  1.0000
  H   H208      1.0  0.17874  0.19823  0.52633  1.0000
  N   N11       1.0  0.07706  0.35133  0.58446  1.0000
  C   C191      1.0  0.08201  0.32912  0.59398  1.0000
  H   H209      1.0  0.13577  0.27825  0.55570  1.0000
  C   C192      1.0  0.07712  0.33943  0.53203  1.0000
  H   H210      1.0  0.08291  0.32776  0.61025  1.0000
  H   H211      1.0  0.14262  0.30958  0.53442  1.0000
  H   H212      1.0  0.16235  0.25903  0.49787  1.0000
  H   H213      1.0  0.20084  0.34067  0.39519  1.0000
  H   H214      1.0  0.16481  0.25952  0.62189  1.0000
  Fe  Fe32      1.0  0.16070  0.20908  0.62531  1.0000
  H   H215      1.0  0.20743  0.31003  0.55265  1.0000
  H   H216      1.0  0.17501  0.31380  0.58684  1.0000
  H   H217      1.0  0.14670  0.32752  0.61491  1.0000
  C   C193      1.0  0.17540  0.25212  0.64217  1.0000
  H   H218      1.0  0.17372  0.31287  0.63358  1.0000
  H   H219      1.0  0.06097  0.34735  0.59812  1.0000
  C   C194      1.0  0.21887  0.35181  0.43395  1.0000
  H   H220      1.0  0.13111  0.38701  0.46096  1.0000
  C   C195      1.0  0.19901  0.18420  0.52865  1.0000
  C   C196      1.0  0.20137  0.20728  0.47315  1.0000
  C   C197      1.0  0.07587  0.35390  0.56266  1.0000
  Fe  Fe33      1.0  0.17670  0.17141  0.61082  1.0000
  S   S61       1.0  0.11738  0.36432  0.62421  1.0000
  H   H221      1.0  0.19579  0.42032  0.53142  1.0000
  H   H222      1.0  0.20631  0.40219  0.44034  1.0000
  H   H223      1.0  0.21412  0.38465  0.39513  1.0000
  C   C198      1.0  0.08982  0.30176  0.34687  1.0000
  C   C199      1.0  0.11535  0.24774  0.38240  1.0000
  H   H224      1.0  0.12243  0.27414  0.37646  1.0000
  S   S62       1.0  0.17177  0.36807  0.63958  1.0000
  C   C200      1.0  0.06643  0.35730  0.59821  1.0000
  H   H225      1.0  0.06257  0.37439  0.59310  1.0000
  H   H226      1.0  0.12423  0.33607  0.49671  1.0000
  C   C201      1.0  0.12474  0.35010  0.48323  1.0000
  C   C202      1.0  0.15414  0.26687  0.49792  1.0000
  H   H227      1.0  0.20577  0.23674  0.62331  1.0000
  C   C203      1.0  0.19605  0.19665  0.49297  1.0000
  H   H228      1.0  0.19422  0.17166  0.53357  1.0000
  H   H229      1.0  0.20736  0.17664  0.52205  1.0000
  H   H230      1.0  0.19738  0.38026  0.41291  1.0000
  C   C204      1.0  0.07332  0.35984  0.52090  1.0000
  H   H231      1.0  0.07708  0.31755  0.59540  1.0000
  H   H232      1.0  0.13110  0.29372  0.52498  1.0000
  H   H233      1.0  0.07268  0.36213  0.50470  1.0000
  H   H234      1.0  0.11169  0.23286  0.49653  1.0000
  S   S63       1.0  0.17845  0.19951  0.62081  1.0000
  S   S64       1.0  0.08901  0.39492  0.61662  1.0000
  C   C205      1.0  0.07179  0.37443  0.55100  1.0000
  C   C206      1.0  0.13156  0.19027  0.50972  1.0000
  C   C207      1.0  0.19683  0.06454  0.41167  1.0000
  H   H235      1.0  0.20584  0.21004  0.43942  1.0000
  C   C208      1.0  0.07063  0.37730  0.53037  1.0000
  H   H236      1.0  0.06954  0.38846  0.55769  1.0000
  H   H237      1.0  0.14300  0.15143  0.54726  1.0000
  H   H238      1.0  0.13400  0.21730  0.47136  1.0000
  H   H239      1.0  0.23533  0.34271  0.41851  1.0000
  C   C209      1.0  0.22588  0.37777  0.64429  1.0000
  C   C210      1.0  0.20207  0.20126  0.45443  1.0000
  H   H240      1.0  0.14722  0.23131  0.41106  1.0000
  C   C211      1.0  0.17413  0.29604  0.63524  1.0000
  H   H241      1.0  0.15588  0.22575  0.37640  1.0000
  H   H242      1.0  0.15208  0.24440  0.35336  1.0000
  H   H243      1.0  0.06772  0.39317  0.52157  1.0000
  C   C212      1.0  0.14010  0.15860  0.53285  1.0000
  N   N12       1.0  0.12649  0.21332  0.50455  1.0000
  H   H244      1.0  0.18690  0.36965  0.41106  1.0000
  H   H245      1.0  0.12712  0.19517  0.39491  1.0000
  C   C213      1.0  0.19234  0.38075  0.40215  1.0000
  C   C214      1.0  0.15051  0.26759  0.48013  1.0000
  H   H246      1.0  0.14837  0.28287  0.37395  1.0000
  C   C215      1.0  0.20478  0.40299  0.34978  1.0000
  C   C216      1.0  0.21307  0.39367  0.37966  1.0000
  H   H247      1.0  0.18734  0.39723  0.39923  1.0000
  H   H248      1.0  0.10974  0.21853  0.38990  1.0000
  C   C217      1.0  0.12632  0.21243  0.39026  1.0000
  C   C218      1.0  0.16242  0.10282  0.63896  1.0000
  C   C219      1.0  0.14141  0.27653  0.37430  1.0000
  C   C220      1.0  0.18558  0.03468  0.41210  1.0000
  C   C221      1.0  0.00484  0.42380  0.33794  1.0000
  C   C222      1.0  0.21227  0.01600  0.37657  1.0000
  C   C223      1.0  0.13496  0.18022  0.52897  1.0000
  C   C224      1.0  0.11651  0.22557  0.38753  1.0000
  H   H249      1.0  0.14214  0.21052  0.39197  1.0000
  C   C225      1.0  0.19755  0.18456  0.45485  1.0000
  C   C226      1.0  0.19152  0.17973  0.49278  1.0000
  H   H250      1.0  0.15593  0.26074  0.46721  1.0000
  C   C227      1.0  0.14460  0.24869  0.40459  1.0000
  H   H251      1.0  0.15083  0.25650  0.40541  1.0000
  N   N13       1.0  0.16161  0.30461  0.61078  1.0000
  C   C228      1.0  0.13310  0.22413  0.48515  1.0000
  C   C229      1.0  0.20548  0.39047  0.37037  1.0000
  N   N14       1.0  0.19874  0.37473  0.38205  1.0000
  C   C230      1.0  0.13494  0.22140  0.38835  1.0000
  H   H252      1.0  0.14358  0.32057  0.48276  1.0000
  H   H253      1.0  0.19788  0.18026  0.44026  1.0000
  H   H254      1.0  0.15235  0.36933  0.53264  1.0000
  H   H255      1.0  0.21434  0.38646  0.47685  1.0000
  H   H256      1.0  0.13408  0.18877  0.54103  1.0000
  H   H257      1.0  0.13711  0.25486  0.41538  1.0000
  C   C231      1.0  0.19117  0.37321  0.37030  1.0000
  H   H258      1.0  0.12003  0.21790  0.53642  1.0000
  H   H259      1.0  0.13455  0.28538  0.38448  1.0000
  H   H260      1.0  0.12133  0.24207  0.51700  1.0000
  C   C232      1.0  0.15807  0.29465  0.59745  1.0000
  C   C233      1.0  0.22288  0.39296  0.42605  1.0000
  H   H261      1.0  0.23273  0.31890  0.46404  1.0000
  H   H262      1.0  0.17236  0.05285  0.43109  1.0000
  H   H263      1.0  0.15420  0.32357  0.63435  1.0000
  H   H264      1.0  0.00929  0.40759  0.34208  1.0000
  N   N15       1.0  0.13575  0.35369  0.47534  1.0000
  H   H265      1.0  0.15510  0.36361  0.46980  1.0000
  H   H266      1.0  0.14221  0.25023  0.62417  1.0000
  H   H267      1.0  0.18548  0.38878  0.36675  1.0000
  H   H268      1.0  0.23002  0.27966  0.57661  1.0000
  H   H269      1.0  0.18618  0.36135  0.37971  1.0000
  C   C234      1.0  0.18117  0.25959  0.65186  1.0000
  C   C235      1.0  0.09683  0.31399  0.34654  1.0000
  H   H270      1.0  0.13735  0.27817  0.46468  1.0000
  H   H271      1.0  0.12496  0.29395  0.49395  1.0000
  H   H272      1.0  0.11908  0.36454  0.48808  1.0000
  H   H273      1.0  0.21480  0.31278  0.48245  1.0000
  C   C236      1.0  0.22114  0.39806  0.63415  1.0000
  H   H274      1.0  0.15250  0.28410  0.60708  1.0000
  H   H275      1.0  0.18734  0.07226  0.63299  1.0000
  H   H276      1.0  0.18475  0.13531  0.33023  1.0000
  H   H277      1.0  0.21069  0.42716  0.32369  1.0000
  H   H278      1.0  0.15796  0.11773  0.63123  1.0000
  H   H279      1.0  0.20695  0.42467  0.46054  1.0000
  H   H280      1.0  0.20209  0.38195  0.64874  1.0000
  C   C237      1.0  0.16910  0.26648  0.62871  1.0000
  H   H281      1.0  0.21235  0.03109  0.36424  1.0000
  H   H282      1.0  0.14996  0.36440  0.64764  1.0000
  C   C238      1.0  0.22085  0.30953  0.49145  1.0000
  C   C239      1.0  0.07897  0.37066  0.65306  1.0000
  H   H283      1.0  0.21712  0.38045  0.50254  1.0000
  H   H284      1.0  0.98891  0.48210  0.32387  1.0000
  S   S65       1.0  0.18523  0.00379  0.33723  1.0000
  C   C240      1.0  0.01022  0.44048  0.32793  1.0000
  S   S66       1.0  0.22491  0.41899  0.42118  1.0000
  Fe  Fe34      1.0  0.04546  0.35818  0.32862  1.0000
  H   H285      1.0  0.22499  0.39533  0.48016  1.0000
  H   H286      1.0  0.19879  0.00348  0.36436  1.0000
  H   H287      1.0  0.17433  0.15322  0.35837  1.0000
  C   C241      1.0  0.23096  0.31306  0.48104  1.0000
  H   H288      1.0  0.17996  0.02625  0.64912  1.0000
  H   H289      1.0  0.08837  0.28857  0.36015  1.0000
  H   H290      1.0  0.22366  0.43200  0.34101  1.0000
  H   H291      1.0  0.07485  0.42502  0.64073  1.0000
  H   H292      1.0  0.98950  0.41530  0.35078  1.0000
  C   C242      1.0  0.98791  0.44919  0.33767  1.0000
  H   H293      1.0  0.21782  0.01454  0.38672  1.0000
  H   H294      1.0  0.19093  0.40407  0.65115  1.0000
  C   C243      1.0  0.15997  0.13113  0.32906  1.0000
  H   H295      1.0  0.19195  0.03636  0.64189  1.0000
  C   C244      1.0  0.23648  0.30159  0.51442  1.0000
  C   C245      1.0  0.09824  0.33177  0.33022  1.0000
  H   H296      1.0  0.16728  0.14093  0.65307  1.0000
  S   S67       1.0  0.02416  0.43557  0.32179  1.0000
  C   C246      1.0  0.17124  0.12811  0.32288  1.0000
  H   H297      1.0  0.21573  0.00266  0.36798  1.0000
  C   C247      1.0  0.17463  0.03247  0.68940  1.0000
  S   S68       1.0  0.03593  0.43528  0.71545  1.0000
  C   C248      1.0  0.17351  0.12955  0.66008  1.0000
  H   H298      1.0  0.18574  0.05939  0.68924  1.0000
  S   S69       1.0  0.18150  0.02880  0.74000  1.0000
  H   H299      1.0  0.17975  0.01756  0.69677  1.0000
  H   H300      1.0  0.22082  0.05568  0.91975  1.0000
  S   S70       1.0  0.19028  0.05544  0.76328  1.0000
  S   S71       1.0  0.12109  0.30881  0.65980  1.0000
  Fe  Fe35      1.0  0.18687  0.02265  0.77015  1.0000
  H   H301      1.0  0.98851  0.33332  0.88239  1.0000
  Fe  Fe36      1.0  0.18663  0.06014  0.73151  1.0000
  S   S72       1.0  0.17567  0.08981  0.71696  1.0000
  S   S73       1.0  0.06068  0.42051  0.78397  1.0000
  H   H302      1.0  0.21622  0.00312  0.84144  1.0000
  H   H303      1.0  0.08779  0.34781  0.69483  1.0000
  H   H304      1.0  0.21175  0.08074  0.89461  1.0000
  C   C249      1.0  0.05843  0.43504  0.80364  1.0000
  H   H305      1.0  0.01311  0.40953  0.84893  1.0000
  H   H306      1.0  0.10016  0.33852  0.67828  1.0000
  C   C250      1.0  0.23421  0.00265  0.69006  1.0000
  C   C251      1.0  0.99180  0.48663  0.84710  1.0000
  S   S74       1.0  0.20344  0.04702  0.71606  1.0000
  C   C252      1.0  0.20364  0.42632  0.68586  1.0000
  H   H307      1.0  0.11548  0.35173  0.67333  1.0000
  C   C253      1.0  0.00781  0.38113  0.80747  1.0000
  H   H308      1.0  0.13141  0.27742  0.69016  1.0000
  C   C254      1.0  0.02079  0.47519  0.81940  1.0000
  C   C255      1.0  0.23042  0.03658  0.80914  1.0000
  S   S75       1.0  0.05775  0.38198  0.70690  1.0000
  S   S76       1.0  0.04304  0.40292  0.75812  1.0000
  C   C256      1.0  0.00662  0.41620  0.78389  1.0000
  C   C257      1.0  0.99727  0.38743  0.81826  1.0000
  C   C258      1.0  0.01406  0.47407  0.68507  1.0000
  C   C259      1.0  0.99607  0.42228  0.79447  1.0000
  H   H309      1.0  0.16815  0.02758  0.68571  1.0000
  H   H310      1.0  0.23503  0.08089  0.85059  1.0000
  Fe  Fe37      1.0  0.05013  0.40984  0.72315  1.0000
  C   C260      1.0  0.09723  0.38105  0.67616  1.0000
  C   C261      1.0  0.07180  0.36815  0.67279  1.0000
  C   C262      1.0  0.06598  0.38603  0.68134  1.0000
  H   H311      1.0  0.21669  0.08111  0.86698  1.0000
  H   H312      1.0  0.02283  0.42314  0.80050  1.0000
  H   H313      1.0  0.99151  0.43821  0.78953  1.0000
  H   H314      1.0  0.07088  0.35226  0.68166  1.0000
  H   H315      1.0  0.06264  0.42042  0.67614  1.0000
  C   C263      1.0  0.01704  0.45800  0.81726  1.0000
  H   H316      1.0  0.10024  0.37663  0.66048  1.0000
  H   H317      1.0  0.02069  0.39084  0.78213  1.0000
  H   H318      1.0  0.07114  0.38604  0.74482  1.0000
  H   H319      1.0  0.01235  0.36521  0.81255  1.0000
  C   C264      1.0  0.01254  0.39562  0.79034  1.0000
  C   C265      1.0  0.09654  0.34425  0.69328  1.0000
  H   H320      1.0  0.15910  0.15190  0.72916  1.0000
  H   H321      1.0  0.17827  0.40488  0.68561  1.0000
  C   C266      1.0  0.17908  0.10310  0.69028  1.0000
  C   C267      1.0  0.19557  0.00862  0.84027  1.0000
  S   S77       1.0  0.99146  0.37013  0.84049  1.0000
  H   H322      1.0  0.04552  0.46015  0.79377  1.0000
  C   C268      1.0  0.16344  0.07224  0.66839  1.0000
  S   S78       1.0  0.22026  0.04196  0.84936  1.0000
  H   H323      1.0  0.19579  0.08832  0.68539  1.0000
  C   C269      1.0  0.04962  0.46520  0.82072  1.0000
  C   C270      1.0  0.18952  0.09947  0.67831  1.0000
  C   C271      1.0  0.20808  0.38158  0.69615  1.0000
  C   C272      1.0  0.05059  0.45394  0.80505  1.0000
  N   N16       1.0  0.02036  0.43548  0.82835  1.0000
  H   H324      1.0  0.01071  0.44241  0.72129  1.0000
  H   H325      1.0  0.09851  0.33060  0.70646  1.0000
  C   C273      1.0  0.19606  0.35736  0.68664  1.0000
  H   H326      1.0  0.21504  0.00290  0.80854  1.0000
  C   C274      1.0  0.01014  0.46320  0.80314  1.0000
  C   C275      1.0  0.01088  0.46657  0.89625  1.0000
  H   H327      1.0  0.99802  0.43632  0.73209  1.0000
  H   H328      1.0  0.01900  0.46862  0.89248  1.0000
  H   H329      1.0  0.20602  0.12731  0.68435  1.0000
  H   H330      1.0  0.22673  0.00806  0.73140  1.0000
  C   C276      1.0  0.19953  0.39245  0.68585  1.0000
  H   H331      1.0  0.16295  0.12002  0.68991  1.0000
  H   H332      1.0  0.00578  0.47561  0.73477  1.0000
  S   S79       1.0  0.01210  0.43531  0.76322  1.0000
  Fe  Fe38      1.0  0.20669  0.03963  0.74857  1.0000
  H   H333      1.0  0.22677  0.04580  0.95257  1.0000
  H   H334      1.0  0.00712  0.45098  0.80040  1.0000
  Fe  Fe39      1.0  0.19857  0.01532  0.72651  1.0000
  C   C277      1.0  0.06495  0.47615  0.75619  1.0000
  S   S80       1.0  0.15278  0.21916  0.65604  1.0000
  C   C278      1.0  0.08448  0.37503  0.72099  1.0000
  H   H335      1.0  0.10199  0.38031  0.75555  1.0000
  H   H336      1.0  0.02847  0.41623  0.85316  1.0000
  C   C279      1.0  0.99839  0.44377  0.90161  1.0000
  Fe  Fe40      1.0  0.23529  0.02206  0.85952  1.0000
  C   C280      1.0  0.07976  0.38199  0.73985  1.0000
  H   H337      1.0  0.02966  0.40560  0.82016  1.0000
  Fe  Fe41      1.0  0.02972  0.43054  0.75048  1.0000
  H   H338      1.0  0.23420  0.03666  0.70737  1.0000
  C   C281      1.0  0.22672  0.06353  0.92058  1.0000
  C   C282      1.0  0.00710  0.48416  0.79200  1.0000
  H   H339      1.0  0.00634  0.42465  0.82873  1.0000
  C   C283      1.0  0.18927  0.05016  0.67660  1.0000
  H   H340      1.0  0.01545  0.43352  0.89358  1.0000
  C   C284      1.0  0.17435  0.06432  0.65964  1.0000
  C   C285      1.0  0.18361  0.16533  0.67748  1.0000
  H   H341      1.0  0.19489  0.03574  0.68297  1.0000
  C   C286      1.0  0.06770  0.47979  0.77315  1.0000
  S   S81       1.0  0.03709  0.45519  0.75468  1.0000
  C   C287      1.0  0.18158  0.38756  0.69101  1.0000
  C   C288      1.0  0.11227  0.35703  0.68862  1.0000
  C   C289      1.0  0.05639  0.45738  0.83504  1.0000
  H   H342      1.0  0.07920  0.37411  0.71189  1.0000
  H   H343      1.0  0.08845  0.38625  0.67832  1.0000
  N   N17       1.0  0.10044  0.36308  0.69342  1.0000
  H   H344      1.0  0.20434  0.05611  0.78847  1.0000
  H   H345      1.0  0.07348  0.46775  0.78102  1.0000
  C   C290      1.0  0.23266  0.37606  0.65754  1.0000
  H   H346      1.0  0.04385  0.48011  0.82141  1.0000
  C   C291      1.0  0.21406  0.39290  0.70133  1.0000
  C   C292      1.0  0.09571  0.36969  0.71388  1.0000
  H   H347      1.0  0.20216  0.44367  0.68140  1.0000
  H   H348      1.0  0.22645  0.99790  0.66818  1.0000
  H   H349      1.0  0.19088  0.34932  0.68241  1.0000
  H   H350      1.0  0.22068  0.38434  0.70881  1.0000
  C   C293      1.0  0.00245  0.48331  0.90172  1.0000
  H   H351      1.0  0.18906  0.00564  0.83487  1.0000
  N   N18       1.0  0.16598  0.17424  0.70244  1.0000
  C   C294      1.0  0.16028  0.16867  0.72481  1.0000
  C   C295      1.0  0.16643  0.19720  0.69765  1.0000
  C   C296      1.0  0.15953  0.17146  0.68913  1.0000
  C   C297      1.0  0.17690  0.16102  0.69783  1.0000
  C   C298      1.0  0.18118  0.14366  0.71304  1.0000
  C   C299      1.0  0.23454  0.49159  0.78336  1.0000
  H   H352      1.0  0.01839  0.45796  0.68996  1.0000
  C   C300      1.0  0.23007  0.05766  0.93965  1.0000
  H   H353      1.0  0.19042  0.01420  0.66345  1.0000
  H   H354      1.0  0.06314  0.47053  0.89309  1.0000
  H   H355      1.0  0.99352  0.47314  0.83905  1.0000
  H   H356      1.0  0.00329  0.43924  0.70407  1.0000
  H   H357      1.0  0.15838  0.20757  0.70162  1.0000
  H   H358      1.0  0.16947  0.20340  0.68057  1.0000
  H   H359      1.0  0.17165  0.19987  0.70653  1.0000
  S   S82       1.0  0.17850  0.00828  0.80272  1.0000
  H   H360      1.0  0.18079  0.17769  0.66487  1.0000
  H   H361      1.0  0.17642  0.37884  0.68763  1.0000
  H   H362      1.0  0.17660  0.13844  0.72865  1.0000
  H   H363      1.0  0.20438  0.35128  0.67836  1.0000
  C   C301      1.0  0.01958  0.48718  0.66806  1.0000
  C   C302      1.0  0.23067  0.03690  0.78811  1.0000
  C   C303      1.0  0.06711  0.40653  0.66972  1.0000
  H   H364      1.0  0.06704  0.46788  0.91720  1.0000
  H   H365      1.0  0.19462  0.11835  0.71985  1.0000
  H   H366      1.0  0.22168  0.11383  0.86165  1.0000
  H   H367      1.0  0.15927  0.06430  0.68333  1.0000
  C   C304      1.0  0.23462  0.39448  0.66084  1.0000
  H   H368      1.0  0.16467  0.17054  0.73576  1.0000
  H   H369      1.0  0.02613  0.47281  0.82961  1.0000
  C   C305      1.0  0.02709  0.42276  0.81263  1.0000
  C   C306      1.0  0.23466  0.99872  0.73419  1.0000
  H   H370      1.0  0.18631  0.24840  0.66175  1.0000
  C   C307      1.0  0.08100  0.48434  0.88392  1.0000
  C   C308      1.0  0.21161  0.05056  0.79416  1.0000
  H   H371      1.0  0.03442  0.42897  0.80408  1.0000
  C   C309      1.0  0.01088  0.42612  0.83961  1.0000
  C   C310      1.0  0.06509  0.42742  0.81801  1.0000
  C   C311      1.0  0.00265  0.44578  0.71797  1.0000
  H   H372      1.0  0.06933  0.43234  0.84453  1.0000
  C   C312      1.0  0.06408  0.43848  0.83358  1.0000
  H   H373      1.0  0.99276  0.47921  0.86355  1.0000
  S   S83       1.0  0.05918  0.43286  0.72499  1.0000
  H   H374      1.0  0.02777  0.48101  0.66076  1.0000
  H   H375      1.0  0.00535  0.43575  0.85097  1.0000
  H   H376      1.0  0.22117  0.05805  0.88548  1.0000
  C   C313      1.0  0.22461  0.10866  0.87659  1.0000
  C   C314      1.0  0.19750  0.41520  0.68086  1.0000
  Fe  Fe42      1.0  0.05102  0.42807  0.75933  1.0000
  C   C315      1.0  0.21141  0.05066  0.81505  1.0000
  H   H377      1.0  0.14388  0.24246  0.68854  1.0000
  H   H378      1.0  0.21048  0.36434  0.70003  1.0000
  C   C316      1.0  0.19162  0.13189  0.70819  1.0000
  C   C317      1.0  0.13376  0.27159  0.67572  1.0000
  C   C318      1.0  0.14084  0.25183  0.67477  1.0000
  H   H379      1.0  0.07115  0.41288  0.81704  1.0000
  C   C319      1.0  0.18599  0.02977  0.65546  1.0000
  H   H380      1.0  0.03443  0.43766  0.83683  1.0000
  H   H381      1.0  0.02363  0.48826  0.72380  1.0000
  Fe  Fe43      1.0  0.04435  0.45777  0.72020  1.0000
  H   H382      1.0  0.18066  0.38425  0.70844  1.0000
  S   S84       1.0  0.23582  0.48645  0.72461  1.0000
  C   C320      1.0  0.99143  0.40799  0.81169  1.0000
  C   C321      1.0  0.10195  0.37172  0.72694  1.0000
  C   C322      1.0  0.02660  0.43312  0.84426  1.0000
  H   H383      1.0  0.11587  0.37077  0.68709  1.0000
  C   C323      1.0  0.22125  0.04371  0.78061  1.0000
  H   H384      1.0  0.99358  0.46699  0.74825  1.0000
  S   S85       1.0  0.22173  0.04376  0.75424  1.0000
  H   H385      1.0  0.02214  0.44302  0.85609  1.0000
  H   H386      1.0  0.15218  0.17913  0.72780  1.0000
  C   C324      1.0  0.08606  0.38394  0.75222  1.0000
  C   C325      1.0  0.00886  0.44675  0.89671  1.0000
  S   S86       1.0  0.05580  0.47069  0.85477  1.0000
  H   H387      1.0  0.11524  0.34333  0.70086  1.0000
  C   C326      1.0  0.15761  0.09118  0.65808  1.0000
  H   H388      1.0  0.21811  0.11495  0.88917  1.0000
  C   C327      1.0  0.21898  0.07586  0.88259  1.0000
  H   H389      1.0  0.18509  0.28726  0.65585  1.0000
  H   H390      1.0  0.11054  0.36809  0.72289  1.0000
  N   N19       1.0  0.22795  0.08500  0.88260  1.0000
  C   C328      1.0  0.14399  0.24417  0.65617  1.0000
  N   N20       1.0  0.18085  0.04451  0.67017  1.0000
  C   C329      1.0  0.09713  0.37875  0.74582  1.0000
  H   H391      1.0  0.19185  0.01762  0.85308  1.0000
  C   C330      1.0  0.19804  0.13685  0.68817  1.0000
  C   C331      1.0  0.98991  0.46066  0.90658  1.0000
  N   N21       1.0  0.99769  0.46904  0.71462  1.0000
  H   H392      1.0  0.08042  0.47388  0.87406  1.0000
  H   H393      1.0  0.20394  0.05610  0.82540  1.0000
  C   C332      1.0  0.21187  0.41520  0.69614  1.0000
  C   C333      1.0  0.17109  0.11787  0.68096  1.0000
  C   C334      1.0  0.99755  0.47667  0.73335  1.0000
  H   H394      1.0  0.08232  0.38957  0.76675  1.0000
  C   C335      1.0  0.06369  0.47973  0.90418  1.0000
  H   H395      1.0  0.16323  0.17527  0.67200  1.0000
  C   C336      1.0  0.23114  0.07863  0.90319  1.0000
  S   S87       1.0  0.99639  0.41828  0.90258  1.0000
  H   H396      1.0  0.19886  0.15669  0.65694  1.0000
  C   C337      1.0  0.19371  0.38668  0.65726  1.0000
  S   S88       1.0  0.20355  0.00650  0.75733  1.0000
  C   C338      1.0  0.22079  0.04339  0.82267  1.0000
  H   H397      1.0  0.19966  0.01952  0.82682  1.0000
  H   H398      1.0  0.17112  0.04203  0.70185  1.0000
  H   H399      1.0  0.19413  0.05988  0.66332  1.0000
  H   H400      1.0  0.15844  0.15477  0.69308  1.0000
  H   H401      1.0  0.19124  0.42458  0.67280  1.0000
  N   N22       1.0  0.19290  0.38107  0.68038  1.0000
  C   C339      1.0  0.19401  0.15344  0.67279  1.0000
  H   H402      1.0  0.22694  0.01236  0.69732  1.0000
  C   C340      1.0  0.99196  0.48023  0.90704  1.0000
  H   H403      1.0  0.08526  0.47402  0.89642  1.0000
  H   H404      1.0  0.21677  0.42388  0.69952  1.0000
  H   H405      1.0  0.19541  0.35182  0.70398  1.0000
  H   H406      1.0  0.06864  0.46125  0.75093  1.0000
  H   H407      1.0  0.15144  0.18210  0.69127  1.0000
  H   H408      1.0  0.05525  0.48745  0.73359  1.0000
  H   H409      1.0  0.20820  0.00155  0.86743  1.0000
  H   H410      1.0  0.23127  0.11680  0.87376  1.0000
  C   C341      1.0  0.23631  0.47970  0.75140  1.0000
  C   C342      1.0  0.00347  0.48200  0.69559  1.0000
  H   H411      1.0  0.10025  0.39536  0.67532  1.0000
  H   H412      1.0  0.21462  0.49194  0.92487  1.0000
  C   C343      1.0  0.12973  0.28382  0.65808  1.0000
  H   H413      1.0  0.00190  0.48752  0.78115  1.0000
  H   H414      1.0  0.05533  0.48737  0.91066  1.0000
  C   C344      1.0  0.23714  0.07761  0.86619  1.0000
  C   C345      1.0  0.19188  0.11045  0.65712  1.0000
  H   H415      1.0  0.23514  0.00149  0.74942  1.0000
  S   S89       1.0  0.04497  0.48943  0.69773  1.0000
  H   H416      1.0  0.14935  0.09708  0.66514  1.0000
  H   H417      1.0  0.98783  0.30789  0.90030  1.0000
  H   H418      1.0  0.99319  0.49360  0.73263  1.0000
  S   S90       1.0  0.23694  0.01652  0.89295  1.0000
  C   C346      1.0  0.05722  0.49124  0.74646  1.0000
  H   H419      1.0  0.23636  0.36038  0.66540  1.0000
  S   S91       1.0  0.17068  0.56282  0.03593  1.0000
  Fe  Fe44      1.0  0.20489  0.60645  0.07715  1.0000
  S   S92       1.0  0.19902  0.58688  0.10925  1.0000
  S   S93       1.0  0.20650  0.60203  0.04455  1.0000
  Fe  Fe45      1.0  0.20871  0.64001  0.09438  1.0000
  S   S94       1.0  0.20309  0.62429  0.12805  1.0000
  S   S95       1.0  0.21538  0.66949  0.08320  1.0000
  Fe  Fe46      1.0  0.21254  0.59382  0.11821  1.0000
  S   S96       1.0  0.22237  0.56892  0.13952  1.0000
  Fe  Fe47      1.0  0.19004  0.61869  0.11676  1.0000
  S   S97       1.0  0.17336  0.62558  0.13611  1.0000
  S   S98       1.0  0.21931  0.61009  0.08533  1.0000
  S   S99       1.0  0.19470  0.63771  0.08398  1.0000
  H   H420      1.0  0.06589  0.52669  0.09429  1.0000
  C   C347      1.0  0.20693  0.53123  0.03689  1.0000
  Fe  Fe48      1.0  0.19557  0.90751  0.20751  1.0000
  S   S100      1.0  0.18035  0.90260  0.23096  1.0000
  S   S101      1.0  0.19642  0.94013  0.18658  1.0000
  Fe  Fe49      1.0  0.20764  0.86337  0.22433  1.0000
  S   S102      1.0  0.19349  0.85513  0.24914  1.0000
  Fe  Fe50      1.0  0.18439  0.86988  0.22322  1.0000
  S   S103      1.0  0.17202  0.85263  0.22171  1.0000
  Fe  Fe51      1.0  0.19088  0.88840  0.25416  1.0000
  S   S104      1.0  0.19884  0.87607  0.19788  1.0000
  S   S105      1.0  0.20582  0.89532  0.23125  1.0000
  C   C348      1.0  0.23250  0.93511  0.22773  1.0000
  S   S106      1.0  0.13613  0.74946  0.03073  1.0000
  Fe  Fe52      1.0  0.17624  0.75132  0.13618  1.0000
  S   S107      1.0  0.16238  0.76015  0.16192  1.0000
  S   S108      1.0  0.19223  0.73392  0.14273  1.0000
  Fe  Fe53      1.0  0.16431  0.77536  0.10129  1.0000
  S   S109      1.0  0.14949  0.78682  0.12433  1.0000
  S   S110      1.0  0.16672  0.78214  0.06580  1.0000
  Fe  Fe54      1.0  0.16061  0.79327  0.14102  1.0000
  S   S111      1.0  0.16132  0.82506  0.14746  1.0000
  Fe  Fe55      1.0  0.15279  0.75258  0.14290  1.0000
  S   S112      1.0  0.14230  0.72796  0.15748  1.0000
  S   S113      1.0  0.17505  0.78428  0.11610  1.0000
  S   S114      1.0  0.16710  0.74123  0.11890  1.0000
  H   H421      1.0  0.13227  0.56364  0.07729  1.0000
  H   H422      1.0  0.18916  0.96947  0.23998  1.0000
  S   S115      1.0  0.08874  0.58519  0.01991  1.0000
  H   H423      1.0  0.20880  0.88716  0.31655  1.0000
  Fe  Fe56      1.0  0.10795  0.64320  0.08261  1.0000
  S   S116      1.0  0.09726  0.65927  0.10834  1.0000
  S   S117      1.0  0.10386  0.65160  0.05076  1.0000
  Fe  Fe57      1.0  0.12389  0.61858  0.10971  1.0000
  S   S118      1.0  0.11433  0.63209  0.13795  1.0000
  S   S119      1.0  0.13970  0.59548  0.10735  1.0000
  Fe  Fe58      1.0  0.10032  0.62636  0.12914  1.0000
  S   S120      1.0  0.08691  0.61180  0.15238  1.0000
  Fe  Fe59      1.0  0.11229  0.66359  0.11434  1.0000
  S   S121      1.0  0.11457  0.69685  0.11284  1.0000
  S   S122      1.0  0.11021  0.61031  0.10287  1.0000
  S   S123      1.0  0.12265  0.65004  0.08664  1.0000
  S   S124      1.0  0.06215  0.55394  0.13048  1.0000
  C   C349      1.0  0.08040  0.59493  0.14646  1.0000
  C   C350      1.0  0.07147  0.58857  0.16104  1.0000
  C   C351      1.0  0.06596  0.57560  0.15659  1.0000
  C   C352      1.0  0.06931  0.56891  0.13743  1.0000
  C   C353      1.0  0.07835  0.57506  0.12297  1.0000
  C   C354      1.0  0.08391  0.58784  0.12753  1.0000
  H   H424      1.0  0.06872  0.59383  0.17583  1.0000
  H   H425      1.0  0.05901  0.57110  0.16788  1.0000
  H   H426      1.0  0.08111  0.56995  0.10817  1.0000
  H   H427      1.0  0.09088  0.59228  0.11632  1.0000
  C   C355      1.0  0.09279  0.60362  0.02877  1.0000
  C   C356      1.0  0.09564  0.59779  0.04838  1.0000
  C   C357      1.0  0.09919  0.61224  0.05523  1.0000
  C   C358      1.0  0.09971  0.63272  0.04266  1.0000
  C   C359      1.0  0.09671  0.63859  0.02323  1.0000
  C   C360      1.0  0.09329  0.62407  0.01627  1.0000
  H   H428      1.0  0.09529  0.58196  0.05809  1.0000
  H   H429      1.0  0.10154  0.60747  0.07017  1.0000
  H   H430      1.0  0.09700  0.65444  0.01348  1.0000
  H   H431      1.0  0.22239  0.66242  0.15103  1.0000
  C   C361      1.0  0.13505  0.71909  0.14423  1.0000
  C   C362      1.0  0.13226  0.73120  0.12527  1.0000
  C   C363      1.0  0.12613  0.72398  0.11576  1.0000
  C   C364      1.0  0.12293  0.70434  0.12476  1.0000
  C   C365      1.0  0.12597  0.69193  0.14340  1.0000
  C   C366      1.0  0.13185  0.69944  0.15322  1.0000
  H   H432      1.0  0.13456  0.74644  0.11827  1.0000
  H   H433      1.0  0.12374  0.73381  0.10148  1.0000
  H   H434      1.0  0.12348  0.67691  0.15065  1.0000
  H   H435      1.0  0.13390  0.68999  0.16794  1.0000
  C   C367      1.0  0.11546  0.57187  0.15127  1.0000
  H   H436      1.0  0.17286  0.89719  0.19621  1.0000
  C   C368      1.0  0.14496  0.75761  0.04053  1.0000
  C   C369      1.0  0.15442  0.76290  0.02749  1.0000
  C   C370      1.0  0.16106  0.77037  0.03540  1.0000
  C   C371      1.0  0.15841  0.77216  0.05652  1.0000
  C   C372      1.0  0.14905  0.76655  0.06970  1.0000
  C   C373      1.0  0.14228  0.75955  0.06163  1.0000
  H   H437      1.0  0.15652  0.76180  0.01118  1.0000
  H   H438      1.0  0.16825  0.77488  0.02509  1.0000
  H   H439      1.0  0.14690  0.76804  0.08599  1.0000
  H   H440      1.0  0.13493  0.75567  0.07179  1.0000
  C   C374      1.0  0.17015  0.84354  0.20073  1.0000
  C   C375      1.0  0.16376  0.82842  0.20559  1.0000
  C   C376      1.0  0.16145  0.82176  0.18951  1.0000
  C   C377      1.0  0.16518  0.83076  0.16827  1.0000
  C   C378      1.0  0.17157  0.84591  0.16341  1.0000
  C   C379      1.0  0.17432  0.85175  0.17949  1.0000
  H   H441      1.0  0.16046  0.82197  0.22195  1.0000
  H   H442      1.0  0.15638  0.81038  0.19358  1.0000
  H   H443      1.0  0.17440  0.85318  0.14706  1.0000
  H   H444      1.0  0.17942  0.86305  0.17544  1.0000
  H   H445      1.0  0.13122  0.55894  0.11478  1.0000
  C   C380      1.0  0.17823  0.93768  0.27404  1.0000
  C   C381      1.0  0.06380  0.63570  0.07710  1.0000
  C   C382      1.0  0.21170  0.96420  0.17415  1.0000
  C   C383      1.0  0.20963  0.94359  0.17938  1.0000
  C   C384      1.0  0.21813  0.92578  0.17942  1.0000
  H   H446      1.0  0.06524  0.57517  0.99347  1.0000
  S   S125      1.0  0.02940  0.50507  0.19710  1.0000
  C   C385      1.0  0.21519  0.50623  0.01429  1.0000
  H   H447      1.0  0.21662  0.90982  0.18316  1.0000
  H   H448      1.0  0.20517  0.97803  0.17377  1.0000
  C   C386      1.0  0.04055  0.50273  0.28064  1.0000
  H   H449      1.0  0.00262  0.59260  0.22345  1.0000
  C   C387      1.0  0.21851  0.57960  0.23495  1.0000
  C   C388      1.0  0.14904  0.60353  0.11567  1.0000
  C   C389      1.0  0.14571  0.61624  0.13069  1.0000
  C   C390      1.0  0.15326  0.62219  0.13752  1.0000
  C   C391      1.0  0.16414  0.61609  0.12883  1.0000
  C   C392      1.0  0.16748  0.60356  0.11364  1.0000
  C   C393      1.0  0.15993  0.59706  0.10728  1.0000
  H   H450      1.0  0.13733  0.62121  0.13733  1.0000
  H   H451      1.0  0.15064  0.63189  0.14928  1.0000
  H   H452      1.0  0.17585  0.59890  0.10675  1.0000
  H   H453      1.0  0.16251  0.58726  0.09565  1.0000
  C   C394      1.0  0.20850  0.68839  0.09844  1.0000
  C   C395      1.0  0.19809  0.68791  0.11003  1.0000
  C   C396      1.0  0.19287  0.70259  0.12301  1.0000
  C   C397      1.0  0.19821  0.71712  0.12495  1.0000
  C   C398      1.0  0.20859  0.71763  0.11327  1.0000
  C   C399      1.0  0.21366  0.70351  0.09971  1.0000
  H   H454      1.0  0.19414  0.67613  0.10913  1.0000
  H   H455      1.0  0.18487  0.70213  0.13214  1.0000
  H   H456      1.0  0.21271  0.72891  0.11470  1.0000
  H   H457      1.0  0.22172  0.70381  0.09075  1.0000
  C   C400      1.0  0.22832  0.58003  0.15296  1.0000
  C   C401      1.0  0.22796  0.60203  0.14797  1.0000
  H   H458      1.0  0.22082  0.87116  0.30427  1.0000
  C   C402      1.0  0.19298  0.65371  0.02220  1.0000
  H   H459      1.0  0.09929  0.54739  0.12804  1.0000
  C   C403      1.0  0.20741  0.56722  0.19937  1.0000
  H   H460      1.0  0.22463  0.61220  0.13482  1.0000
  H   H461      1.0  0.22626  0.54813  0.21416  1.0000
  H   H462      1.0  0.11509  0.57117  0.16812  1.0000
  H   H463      1.0  0.10391  0.54553  0.17891  1.0000
  C   C404      1.0  0.17973  0.57614  0.03829  1.0000
  C   C405      1.0  0.18605  0.58649  0.02034  1.0000
  C   C406      1.0  0.19405  0.59514  0.02239  1.0000
  C   C407      1.0  0.19567  0.59353  0.04241  1.0000
  C   C408      1.0  0.18899  0.58416  0.06042  1.0000
  C   C409      1.0  0.18104  0.57536  0.05834  1.0000
  H   H464      1.0  0.99662  0.52023  0.26187  1.0000
  H   H465      1.0  0.19911  0.60264  0.00842  1.0000
  H   H466      1.0  0.19020  0.58290  0.07591  1.0000
  H   H467      1.0  0.17618  0.56724  0.07224  1.0000
  N   N23       1.0  0.06757  0.55019  0.06473  1.0000
  N   N24       1.0  0.16081  0.68970  0.09565  1.0000
  C   C410      1.0  0.15351  0.67948  0.11416  1.0000
  C   C411      1.0  0.17117  0.68653  0.10133  1.0000
  C   C412      1.0  0.15613  0.71305  0.09141  1.0000
  C   C413      1.0  0.16238  0.67977  0.07757  1.0000
  C   C414      1.0  0.16665  0.65747  0.07928  1.0000
  C   C415      1.0  0.15981  0.69162  0.05794  1.0000
  C   C416      1.0  0.16809  0.64753  0.06264  1.0000
  C   C417      1.0  0.16148  0.68159  0.04124  1.0000
  C   C418      1.0  0.16551  0.65960  0.04363  1.0000
  H   H468      1.0  0.15200  0.68681  0.12797  1.0000
  H   H469      1.0  0.14569  0.68091  0.11050  1.0000
  H   H470      1.0  0.15683  0.66225  0.11963  1.0000
  H   H471      1.0  0.17710  0.69300  0.08757  1.0000
  H   H472      1.0  0.17464  0.66933  0.10707  1.0000
  H   H473      1.0  0.17034  0.69460  0.11431  1.0000
  H   H474      1.0  0.14820  0.71650  0.08746  1.0000
  H   H475      1.0  0.15474  0.71987  0.10551  1.0000
  H   H476      1.0  0.16147  0.72210  0.07842  1.0000
  H   H477      1.0  0.16893  0.64755  0.09358  1.0000
  H   H478      1.0  0.15657  0.70869  0.05498  1.0000
  H   H479      1.0  0.17134  0.63040  0.06450  1.0000
  H   H480      1.0  0.15978  0.69100  0.02623  1.0000
  H   H481      1.0  0.16683  0.65203  0.03054  1.0000
  N   N25       1.0  0.14161  0.62153  0.03140  1.0000
  C   C419      1.0  0.14322  0.61532  0.05334  1.0000
  C   C420      1.0  0.15214  0.62133  0.01657  1.0000
  C   C421      1.0  0.13532  0.64395  0.02808  1.0000
  C   C422      1.0  0.13646  0.60605  0.02796  1.0000
  C   C423      1.0  0.14129  0.58389  0.03129  1.0000
  C   C424      1.0  0.12674  0.61229  0.02093  1.0000
  C   C425      1.0  0.13691  0.56904  0.02714  1.0000
  C   C426      1.0  0.12240  0.59725  0.01696  1.0000
  C   C427      1.0  0.12752  0.57574  0.01986  1.0000
  H   H482      1.0  0.04031  0.51832  0.28406  1.0000
  H   H483      1.0  0.14628  0.62742  0.05723  1.0000
  H   H484      1.0  0.02595  0.53364  0.26289  1.0000
  S   S126      1.0  0.23082  0.53917  0.28088  1.0000
  H   H485      1.0  0.15613  0.63325  0.01821  1.0000
  H   H486      1.0  0.04595  0.61223  0.06831  1.0000
  C   C428      1.0  0.18400  0.82073  0.99448  1.0000
  H   H487      1.0  0.13933  0.65516  0.03099  1.0000
  H   H488      1.0  0.20368  0.51865  0.04984  1.0000
  H   H489      1.0  0.14868  0.57792  0.03662  1.0000
  H   H490      1.0  0.12232  0.62867  0.01841  1.0000
  H   H491      1.0  0.14099  0.55229  0.02904  1.0000
  Fe  Fe60      1.0  0.03650  0.50302  0.16328  1.0000
  C   C429      1.0  0.20645  0.95789  0.25965  1.0000
  N   N26       1.0  0.10930  0.71888  0.05220  1.0000
  C   C430      1.0  0.10910  0.73695  0.06140  1.0000
  H   H492      1.0  0.10180  0.70387  0.08352  1.0000
  C   C431      1.0  0.11993  0.70436  0.05145  1.0000
  C   C432      1.0  0.10724  0.72588  0.03062  1.0000
  C   C433      1.0  0.10807  0.74656  0.01784  1.0000
  C   C434      1.0  0.19104  0.60272  0.20651  1.0000
  Fe  Fe61      1.0  0.04589  0.50610  0.19792  1.0000
  C   C435      1.0  0.06122  0.57394  0.00999  1.0000
  C   C436      1.0  0.18368  0.72303  0.04632  1.0000
  C   C437      1.0  0.21009  0.65686  0.02407  1.0000
  H   H493      1.0  0.20873  0.81795  0.27375  1.0000
  H   H494      1.0  0.11585  0.74494  0.05305  1.0000
  C   C438      1.0  0.06128  0.53631  0.08208  1.0000
  H   H495      1.0  0.17249  0.72864  0.02687  1.0000
  H   H496      1.0  0.20574  0.68517  0.19567  1.0000
  H   H497      1.0  0.12626  0.71256  0.04060  1.0000
  H   H498      1.0  0.08381  0.54598  0.04650  1.0000
  C   C439      1.0  0.18036  0.84071  0.02147  1.0000
  H   H499      1.0  0.22347  0.50668  0.01421  1.0000
  H   H500      1.0  0.17569  0.93212  0.26300  1.0000
  H   H501      1.0  0.21478  0.53137  0.03945  1.0000
  H   H502      1.0  0.17371  0.92844  0.15410  1.0000
  C   C440      1.0  0.23069  0.94907  0.17008  1.0000
  H   H503      1.0  0.15912  0.89673  0.20073  1.0000
  H   H504      1.0  0.12312  0.57639  0.14208  1.0000
  H   H505      1.0  0.22357  0.58510  0.21927  1.0000
  C   C441      1.0  0.21961  0.95883  0.27763  1.0000
  C   C442      1.0  0.14048  0.81442  0.01553  1.0000
  C   C443      1.0  0.06682  0.56292  0.02584  1.0000
  H   H506      1.0  0.07089  0.63960  0.02337  1.0000
  H   H507      1.0  0.21954  0.64283  0.18995  1.0000
  H   H508      1.0  0.18493  0.58757  0.00485  1.0000
  H   H509      1.0  0.06192  0.57614  0.08118  1.0000
  H   H510      1.0  0.20136  0.54674  0.03909  1.0000
  C   C444      1.0  0.22191  0.81805  0.31815  1.0000
  H   H511      1.0  0.08110  0.63464  0.10641  1.0000
  H   H512      1.0  0.19603  0.59967  0.23471  1.0000
  C   C445      1.0  0.15347  0.93573  0.17608  1.0000
  C   C446      1.0  0.00447  0.53888  0.23294  1.0000
  H   H513      1.0  0.05285  0.63848  0.11892  1.0000
  H   H514      1.0  0.03236  0.51455  0.24672  1.0000
  C   C447      1.0  0.20852  0.83454  0.29725  1.0000
  H   H515      1.0  0.20228  0.57142  0.17061  1.0000
  C   C448      1.0  0.05086  0.57156  0.05232  1.0000
  C   C449      1.0  0.16565  0.90395  0.18942  1.0000
  C   C450      1.0  0.15326  0.92868  0.22245  1.0000
  H   H516      1.0  0.05876  0.52500  0.07592  1.0000
  H   H517      1.0  0.12259  0.53146  0.17247  1.0000
  C   C451      1.0  0.18837  0.68688  0.17902  1.0000
  N   N27       1.0  0.19626  0.78897  0.16007  1.0000
  C   C452      1.0  0.18649  0.78008  0.16751  1.0000
  C   C453      1.0  0.19515  0.80545  0.14043  1.0000
  C   C454      1.0  0.20538  0.77122  0.15491  1.0000
  C   C455      1.0  0.19818  0.79853  0.17574  1.0000
  C   C456      1.0  0.19114  0.79955  0.19574  1.0000
  C   C457      1.0  0.20738  0.80721  0.17119  1.0000
  C   C458      1.0  0.19328  0.80849  0.21021  1.0000
  C   C459      1.0  0.20945  0.81604  0.18584  1.0000
  H   H518      1.0  0.01876  0.51566  0.25979  1.0000
  H   H519      1.0  0.17922  0.79263  0.17095  1.0000
  H   H520      1.0  0.18520  0.77331  0.15530  1.0000
  H   H521      1.0  0.18689  0.76692  0.18180  1.0000
  H   H522      1.0  0.18847  0.81919  0.14371  1.0000
  H   H523      1.0  0.19341  0.79894  0.12850  1.0000
  H   H524      1.0  0.20247  0.81187  0.13282  1.0000
  H   H525      1.0  0.20660  0.75867  0.16935  1.0000
  H   H526      1.0  0.20406  0.76337  0.14351  1.0000
  H   H527      1.0  0.21295  0.77673  0.14749  1.0000
  H   H528      1.0  0.18382  0.79386  0.20054  1.0000
  H   H529      1.0  0.21304  0.80726  0.15626  1.0000
  C   C460      1.0  0.06651  0.63564  0.03957  1.0000
  H   H530      1.0  0.20086  0.94918  0.25896  1.0000
  H   H531      1.0  0.99541  0.55242  0.18966  1.0000
  N   N28       1.0  0.20002  0.66898  0.01733  1.0000
  H   H532      1.0  0.12511  0.81471  0.99546  1.0000
  H   H533      1.0  0.20888  0.87640  0.29492  1.0000
  H   H534      1.0  0.22374  0.78856  0.28282  1.0000
  C   C461      1.0  0.19444  0.68718  0.02774  1.0000
  C   C462      1.0  0.18492  0.70077  0.02236  1.0000
  C   C463      1.0  0.19825  0.69217  0.04314  1.0000
  H   H535      1.0  0.15112  0.95354  0.17311  1.0000
  C   C464      1.0  0.17781  0.96645  0.29040  1.0000
  C   C465      1.0  0.05824  0.62505  0.04414  1.0000
  C   C466      1.0  0.14389  0.81855  0.03152  1.0000
  H   H536      1.0  0.05407  0.54557  0.09109  1.0000
  H   H537      1.0  0.04655  0.57159  0.06842  1.0000
  C   C467      1.0  0.15539  0.83993  0.00545  1.0000
  C   C468      1.0  0.21316  0.83506  0.31363  1.0000
  H   H538      1.0  0.20862  0.64956  0.04129  1.0000
  H   H539      1.0  0.23437  0.85389  0.27846  1.0000
  H   H540      1.0  0.14912  0.59994  0.05636  1.0000
  H   H541      1.0  0.19064  0.64748  0.03951  1.0000
  H   H542      1.0  0.03697  0.59013  0.04027  1.0000
  H   H543      1.0  0.20538  0.68277  0.04836  1.0000
  H   H544      1.0  0.19697  0.63966  0.01484  1.0000
  H   H545      1.0  0.08329  0.64361  0.07861  1.0000
  H   H546      1.0  0.13424  0.65011  0.01151  1.0000
  H   H547      1.0  0.18765  0.60240  0.17717  1.0000
  C   C469      1.0  0.17967  0.71843  0.03148  1.0000
  H   H548      1.0  0.13115  0.53774  0.14731  1.0000
  C   C470      1.0  0.18161  0.65515  0.16948  1.0000
  Fe  Fe62      1.0  0.04980  0.53706  0.15543  1.0000
  C   C471      1.0  0.22551  0.80133  0.30735  1.0000
  H   H549      1.0  0.19043  0.70005  0.18231  1.0000
  H   H550      1.0  0.18770  0.80952  0.22520  1.0000
  H   H551      1.0  0.21057  0.63042  0.18504  1.0000
  C   C472      1.0  0.06176  0.56113  0.04760  1.0000
  C   C473      1.0  0.10663  0.55096  0.11770  1.0000
  H   H552      1.0  0.23247  0.78899  0.31046  1.0000
  N   N29       1.0  0.11441  0.55139  0.14809  1.0000
  C   C474      1.0  0.12317  0.53405  0.15521  1.0000
  C   C475      1.0  0.11508  0.55315  0.12540  1.0000
  H   H553      1.0  0.10083  0.55219  0.09051  1.0000
  H   H554      1.0  0.12307  0.51863  0.15184  1.0000
  S   S127      1.0  0.03355  0.53864  0.15046  1.0000
  S   S128      1.0  0.18865  0.89593  0.28591  1.0000
  C   C476      1.0  0.21103  0.64507  0.18939  1.0000
  H   H555      1.0  0.10198  0.69126  0.06357  1.0000
  H   H556      1.0  0.16911  0.96748  0.22692  1.0000
  C   C477      1.0  0.12441  0.55732  0.11015  1.0000
  H   H557      1.0  0.22415  0.95162  0.28980  1.0000
  H   H558      1.0  0.15545  0.95471  0.25748  1.0000
  H   H559      1.0  0.20615  0.64531  0.20563  1.0000
  H   H560      1.0  0.19763  0.63754  0.16696  1.0000
  S   S129      1.0  0.01296  0.56449  0.19543  1.0000
  S   S130      1.0  0.04351  0.54187  0.18862  1.0000
  C   C478      1.0  0.10115  0.70720  0.06680  1.0000
  C   C479      1.0  0.22222  0.96693  0.16987  1.0000
  C   C480      1.0  0.10419  0.54662  0.16201  1.0000
  Fe  Fe63      1.0  0.02762  0.54045  0.18471  1.0000
  C   C481      1.0  0.00613  0.55937  0.22203  1.0000
  C   C482      1.0  0.00145  0.57672  0.23184  1.0000
  H   H561      1.0  0.10890  0.58525  0.14644  1.0000
  C   C483      1.0  0.07806  0.53638  0.05746  1.0000
  C   C484      1.0  0.21501  0.56168  0.00116  1.0000
  H   H562      1.0  0.09727  0.55955  0.15807  1.0000
  C   C485      1.0  0.07862  0.63384  0.09224  1.0000
  H   H563      1.0  0.18466  0.61649  0.20922  1.0000
  C   C486      1.0  0.19755  0.59289  0.22106  1.0000
  C   C487      1.0  0.05049  0.58360  0.01518  1.0000
  C   C488      1.0  0.10741  0.55366  0.09605  1.0000
  C   C489      1.0  0.18794  0.93052  0.30147  1.0000
  H   H564      1.0  0.10295  0.53108  0.16096  1.0000
  C   C490      1.0  0.22039  0.54461  0.22923  1.0000
  N   N30       1.0  0.20750  0.66500  0.17422  1.0000
  C   C491      1.0  0.19227  0.65220  0.17029  1.0000
  H   H565      1.0  0.17898  0.64302  0.16545  1.0000
  H   H566      1.0  0.07517  0.55628  0.02055  1.0000
  C   C492      1.0  0.04531  0.58246  0.03631  1.0000
  C   C493      1.0  0.19292  0.70985  0.05221  1.0000
  C   C494      1.0  0.18465  0.95220  0.30287  1.0000
  H   H567      1.0  0.07381  0.57799  0.06083  1.0000
  C   C495      1.0  0.19603  0.66807  0.17479  1.0000
  C   C496      1.0  0.18475  0.92324  0.28700  1.0000
  H   H568      1.0  0.21133  0.93324  0.28566  1.0000
  H   H569      1.0  0.22266  0.86182  0.25297  1.0000
  H   H570      1.0  0.22385  0.57212  0.24624  1.0000
  S   S131      1.0  0.22284  0.83846  0.22160  1.0000
  H   H571      1.0  0.11043  0.75816  0.02309  1.0000
  H   H572      1.0  0.20039  0.57217  0.26122  1.0000
  C   C497      1.0  0.16460  0.95682  0.22554  1.0000
  S   S132      1.0  0.14469  0.53453  0.98865  1.0000
  C   C498      1.0  0.10279  0.71780  0.00110  1.0000
  H   H573      1.0  0.11001  0.73141  0.07809  1.0000
  Fe  Fe64      1.0  0.14232  0.73778  0.00029  1.0000
  C   C499      1.0  0.21218  0.81770  0.28662  1.0000
  H   H574      1.0  0.00796  0.52544  0.22534  1.0000
  C   C500      1.0  0.17435  0.67389  0.17339  1.0000
  H   H575      1.0  0.21055  0.54937  0.26715  1.0000
  H   H576      1.0  0.10480  0.69506  0.02937  1.0000
  H   H577      1.0  0.16612  0.67632  0.17243  1.0000
  C   C501      1.0  0.06159  0.63187  0.11562  1.0000
  H   H578      1.0  0.14039  0.78494  0.99362  1.0000
  H   H579      1.0  0.10149  0.74904  0.06124  1.0000
  H   H580      1.0  0.09094  0.62883  0.00128  1.0000
  H   H581      1.0  0.19365  0.51444  0.02788  1.0000
  H   H582      1.0  0.16717  0.89779  0.17488  1.0000
  C   C502      1.0  0.21244  0.94846  0.27514  1.0000
  H   H583      1.0  0.99280  0.54880  0.15971  1.0000
  H   H584      1.0  0.18149  0.69790  0.01091  1.0000
  N   N31       1.0  0.21252  0.56430  0.23393  1.0000
  H   H585      1.0  0.14657  0.92933  0.18690  1.0000
  C   C503      1.0  0.23326  0.56684  0.16923  1.0000
  H   H586      1.0  0.06461  0.63518  0.12800  1.0000
  C   C504      1.0  0.22084  0.97867  0.26468  1.0000
  C   C505      1.0  0.19269  0.59485  0.18848  1.0000
  C   C506      1.0  0.06923  0.64106  0.05571  1.0000
  H   H587      1.0  0.20226  0.84751  0.29204  1.0000
  H   H588      1.0  0.06301  0.61414  0.11823  1.0000
  H   H589      1.0  0.19607  0.71339  0.06378  1.0000
  H   H590      1.0  0.21549  0.50117  0.99968  1.0000
  H   H591      1.0  0.08126  0.61697  0.09031  1.0000
  C   C507      1.0  0.05524  0.62523  0.08120  1.0000
  H   H592      1.0  0.10098  0.70646  0.99443  1.0000
  C   C508      1.0  0.15692  0.94962  0.24279  1.0000
  C   C509      1.0  0.18066  0.82198  0.01564  1.0000
  H   H593      1.0  0.19295  0.91942  0.31162  1.0000
  H   H594      1.0  0.21404  0.64321  0.01609  1.0000
  N   N32       1.0  0.06694  0.64137  0.09393  1.0000
  H   H595      1.0  0.07568  0.64940  0.05126  1.0000
  C   C510      1.0  0.17771  0.68966  0.17826  1.0000
  H   H596      1.0  0.06647  0.66988  0.10379  1.0000
  H   H597      1.0  0.05552  0.67135  0.09240  1.0000
  C   C511      1.0  0.06422  0.66497  0.09139  1.0000
  H   H598      1.0  0.14535  0.92989  0.25477  1.0000
  H   H599      1.0  0.06843  0.67313  0.07584  1.0000
  H   H600      1.0  0.14864  0.91781  0.22210  1.0000
  C   C512      1.0  0.22064  0.80112  0.29168  1.0000
  H   H601      1.0  0.04623  0.50155  0.26524  1.0000
  C   C513      1.0  0.21379  0.66314  0.15270  1.0000
  H   H602      1.0  0.18308  0.87222  0.01184  1.0000
  H   H603      1.0  0.12194  0.69888  0.06730  1.0000
  C   C514      1.0  0.02238  0.50401  0.30065  1.0000
  H   H604      1.0  0.21322  0.59406  0.24030  1.0000
  H   H605      1.0  0.05625  0.62076  0.03153  1.0000
  H   H606      1.0  0.15422  0.83372  0.03900  1.0000
  C   C515      1.0  0.20749  0.97818  0.24613  1.0000
  C   C516      1.0  0.20586  0.57461  0.21810  1.0000
  H   H607      1.0  0.17966  0.73689  0.05322  1.0000
  H   H608      1.0  0.20103  0.96040  0.22120  1.0000
  C   C517      1.0  0.99531  0.57370  0.25249  1.0000
  C   C518      1.0  0.11658  0.55835  0.08151  1.0000
  H   H609      1.0  0.20062  0.54749  0.25477  1.0000
  Fe  Fe65      1.0  0.17258  0.55887  0.00308  1.0000
  H   H610      1.0  0.12733  0.64532  0.03895  1.0000
  H   H611      1.0  0.19160  0.54203  0.01465  1.0000
  H   H612      1.0  0.14094  0.81141  0.04792  1.0000
  C   C519      1.0  0.23652  0.59790  0.17673  1.0000
  H   H613      1.0  0.21328  0.64864  0.14817  1.0000
  H   H614      1.0  0.17207  0.70441  0.18090  1.0000
  H   H615      1.0  0.21095  0.67716  0.14077  1.0000
  C   C520      1.0  0.16670  0.94997  0.20668  1.0000
  H   H616      1.0  0.15772  0.60549  0.01925  1.0000
  H   H617      1.0  0.12041  0.68989  0.04569  1.0000
  H   H618      1.0  0.04625  0.59209  0.00269  1.0000
  C   C521      1.0  0.20569  0.55812  0.25511  1.0000
  C   C522      1.0  0.23212  0.61087  0.15975  1.0000
  C   C523      1.0  0.21203  0.87282  0.30938  1.0000
  C   C524      1.0  0.15125  0.93561  0.24123  1.0000
  S   S133      1.0  0.14421  0.70327  0.00087  1.0000
  H   H619      1.0  0.21445  0.56409  0.01666  1.0000
  H   H620      1.0  0.21366  0.55382  0.19532  1.0000
  H   H621      1.0  0.11507  0.60235  0.01132  1.0000
  C   C525      1.0  0.18344  0.85830  0.00619  1.0000
  H   H622      1.0  0.22584  0.92694  0.23663  1.0000
  C   C526      1.0  0.21198  0.54406  0.99803  1.0000
  H   H623      1.0  0.21876  0.68011  0.17914  1.0000
  H   H624      1.0  0.12426  0.56422  0.01629  1.0000
  H   H625      1.0  0.20404  0.82357  0.21658  1.0000
  C   C527      1.0  0.06948  0.56662  0.07344  1.0000
  H   H626      1.0  0.22516  0.53712  0.24161  1.0000
  C   C528      1.0  0.17457  0.95909  0.27609  1.0000
  C   C529      1.0  0.23540  0.51173  0.29030  1.0000
  H   H627      1.0  0.22629  0.98689  0.26697  1.0000
  H   H628      1.0  0.22379  0.98282  0.16625  1.0000
  C   C530      1.0  0.05252  0.62012  0.06486  1.0000
  S   S134      1.0  0.05332  0.50102  0.16516  1.0000
  C   C531      1.0  0.10486  0.71150  0.02133  1.0000
  N   N33       1.0  0.02977  0.50100  0.28031  1.0000
  C   C532      1.0  0.19719  0.52624  0.01439  1.0000
  C   C533      1.0  0.20242  0.81663  0.20531  1.0000
  C   C534      1.0  0.20090  0.57727  0.18487  1.0000
  C   C535      1.0  0.02652  0.51697  0.26171  1.0000
  C   C536      1.0  0.16115  0.93541  0.20465  1.0000
  C   C537      1.0  0.22864  0.92857  0.17432  1.0000
  H   H629      1.0  0.20818  0.69829  0.16790  1.0000
  H   H630      1.0  0.05053  0.62076  0.09689  1.0000
  C   C538      1.0  0.21010  0.68298  0.17952  1.0000
  H   H631      1.0  0.09296  0.71662  0.06583  1.0000
  C   C539      1.0  0.14444  0.82298  0.99389  1.0000
  H   H632      1.0  0.08196  0.52716  0.07081  1.0000
  H   H633      1.0  0.15472  0.93087  0.16088  1.0000
  H   H634      1.0  0.23293  0.93781  0.21058  1.0000
  H   H635      1.0  0.19730  0.52141  0.99979  1.0000
  H   H636      1.0  0.17067  0.95270  0.16318  1.0000
  H   H637      1.0  0.21652  0.82255  0.18219  1.0000
  H   H638      1.0  0.13563  0.61334  0.06494  1.0000
  H   H639      1.0  0.16923  0.97006  0.26655  1.0000
  H   H640      1.0  0.13494  0.80389  0.02029  1.0000
  H   H641      1.0  0.11710  0.56067  0.06475  1.0000
  H   H642      1.0  0.23519  0.91474  0.17417  1.0000
  C   C540      1.0  0.19529  0.97481  0.22605  1.0000
  H   H643      1.0  0.17779  0.84149  0.03803  1.0000
  C   C541      1.0  0.12510  0.56002  0.08857  1.0000
  C   C542      1.0  0.23020  0.50168  0.31004  1.0000
  N   N34       1.0  0.16315  0.92773  0.18497  1.0000
  H   H644      1.0  0.18561  0.66106  0.01612  1.0000
  N   N35       1.0  0.20791  0.52734  0.01571  1.0000
  H   H645      1.0  0.23380  0.54973  0.17277  1.0000
  H   H646      1.0  0.99276  0.53241  0.13183  1.0000
  H   H647      1.0  0.12227  0.54267  0.99272  1.0000
  C   C543      1.0  0.20270  0.67694  0.99409  1.0000
  H   H648      1.0  0.07428  0.55915  0.08567  1.0000
  H   H649      1.0  0.20743  0.68954  0.98978  1.0000
  H   H650      1.0  0.07720  0.52461  0.04940  1.0000
  C   C544      1.0  0.99796  0.53598  0.25348  1.0000
  H   H651      1.0  0.18715  0.95773  0.31402  1.0000
  C   C545      1.0  0.17219  0.93494  0.16845  1.0000
  H   H652      1.0  0.21592  0.66723  0.02042  1.0000
  H   H653      1.0  0.17575  0.63309  0.99614  1.0000
  H   H654      1.0  0.17974  0.92933  0.17425  1.0000
  H   H655      1.0  0.15134  0.62526  0.99988  1.0000
  H   H656      1.0  0.01035  0.53114  0.28838  1.0000
  S   S135      1.0  0.17278  0.99334  0.29265  1.0000
  H   H657      1.0  0.21642  0.53227  0.22842  1.0000
  C   C546      1.0  0.15139  0.83112  0.02650  1.0000
  H   H658      1.0  0.19320  0.86185  0.31908  1.0000
  H   H659      1.0  0.17290  0.95591  0.19416  1.0000
  H   H660      1.0  0.17828  0.80839  0.02757  1.0000
  C   C547      1.0  0.10610  0.75263  0.99747  1.0000
  C   C548      1.0  0.01278  0.51998  0.30206  1.0000
  H   H661      1.0  0.16125  0.84966  0.00158  1.0000
  C   C549      1.0  0.21480  0.98833  0.24931  1.0000
  C   C550      1.0  0.10343  0.73830  0.98915  1.0000
  S   S136      1.0  0.17251  0.52684  0.99853  1.0000
  H   H662      1.0  0.23036  0.95134  0.23129  1.0000
  C   C551      1.0  0.99339  0.55346  0.26327  1.0000
  H   H663      1.0  0.23203  0.62776  0.15562  1.0000
  H   H664      1.0  0.99296  0.51771  0.21063  1.0000
  C   C552      1.0  0.23041  0.83331  0.24076  1.0000
  H   H665      1.0  0.18423  0.80614  0.98992  1.0000
  H   H666      1.0  0.22346  0.51087  0.31928  1.0000
  C   C553      1.0  0.22884  0.84741  0.25404  1.0000
  H   H667      1.0  0.23318  0.90315  0.21325  1.0000
  H   H668      1.0  0.21426  0.98581  0.20447  1.0000
  H   H669      1.0  0.19098  0.98288  0.21307  1.0000
  C   C554      1.0  0.23548  0.84298  0.26842  1.0000
  H   H670      1.0  0.99188  0.58723  0.26000  1.0000
  H   H671      1.0  0.23569  0.91323  0.26625  1.0000
  H   H672      1.0  0.01250  0.49941  0.17117  1.0000
  N   N36       1.0  0.20082  0.98921  0.23039  1.0000
  C   C555      1.0  0.15204  0.83593  0.98929  1.0000
  C   C556      1.0  0.00581  0.52175  0.32153  1.0000
  S   S137      1.0  0.23469  0.99529  0.20048  1.0000
  H   H673      1.0  0.20574  0.98047  0.39653  1.0000
  N   N37       1.0  0.20924  0.85323  0.32445  1.0000
  C   C557      1.0  0.21385  0.84985  0.34307  1.0000
  C   C558      1.0  0.21883  0.96590  0.32966  1.0000
  H   H674      1.0  0.01917  0.51867  0.64811  1.0000
  H   H675      1.0  0.19505  0.84216  0.34271  1.0000
  H   H676      1.0  0.21241  0.83485  0.35467  1.0000
  C   C559      1.0  0.21217  0.93417  0.33386  1.0000
  S   S138      1.0  0.22436  0.89364  0.33726  1.0000
  C   C560      1.0  0.22242  0.92143  0.33391  1.0000
  H   H677      1.0  0.22255  0.84933  0.33837  1.0000
  C   C561      1.0  0.23092  0.93098  0.33149  1.0000
  H   H678      1.0  0.19438  0.87010  0.34086  1.0000
  H   H679      1.0  0.21037  0.86332  0.35146  1.0000
  H   H680      1.0  0.23565  0.96052  0.32801  1.0000
  C   C562      1.0  0.19749  0.85690  0.33211  1.0000
  S   S139      1.0  0.21664  0.99359  0.32751  1.0000
  C   C563      1.0  0.22909  0.95318  0.32961  1.0000
  C   C564      1.0  0.21040  0.95641  0.33151  1.0000
  H   H681      1.0  0.00263  0.50903  0.35504  1.0000
  H   H682      1.0  0.22635  0.81758  0.32946  1.0000
  H   H683      1.0  0.20249  0.96612  0.33130  1.0000
  H   H684      1.0  0.20559  0.92686  0.33558  1.0000
  C   C565      1.0  0.00815  0.50782  0.34006  1.0000
  H   H685      1.0  0.19384  0.99146  0.41351  1.0000
  H   H686      1.0  0.20653  0.99325  0.41623  1.0000
  C   C566      1.0  0.20187  0.99415  0.40455  1.0000
  H   H687      1.0  0.99846  0.53384  0.32216  1.0000
  Fe  Fe66      1.0  0.15958  0.70619  0.97785  1.0000
  S   S140      1.0  0.10177  0.60961  0.96282  1.0000
  H   H688      1.0  0.99115  0.51143  0.69594  1.0000
  S   S141      1.0  0.22158  0.55230  0.86540  1.0000
  H   H689      1.0  0.19659  0.91025  0.75743  1.0000
  Fe  Fe67      1.0  0.02046  0.51635  0.88274  1.0000
  C   C567      1.0  0.00461  0.55399  0.82185  1.0000
  Fe  Fe68      1.0  0.18416  0.53495  0.96804  1.0000
  H   H690      1.0  0.98775  0.55576  0.83365  1.0000
  H   H691      1.0  0.14870  0.64213  0.94102  1.0000
  Fe  Fe69      1.0  0.17218  0.58035  0.95767  1.0000
  H   H692      1.0  0.22284  0.98495  0.77927  1.0000
  S   S142      1.0  0.17139  0.61221  0.93536  1.0000
  H   H693      1.0  0.19366  0.57880  0.85399  1.0000
  C   C568      1.0  0.04815  0.53263  0.72002  1.0000
  H   H694      1.0  0.20797  0.96482  0.67701  1.0000
  C   C569      1.0  0.13691  0.54552  0.96974  1.0000
  S   S143      1.0  0.17166  0.55057  0.94895  1.0000
  C   C570      1.0  0.18912  0.89520  0.97557  1.0000
  N   N38       1.0  0.20287  0.98820  0.84734  1.0000
  H   H695      1.0  0.21696  0.88894  0.73248  1.0000
  S   S144      1.0  0.15245  0.71494  0.94944  1.0000
  C   C571      1.0  0.21418  0.86655  0.79601  1.0000
  Fe  Fe70      1.0  0.14988  0.74889  0.95319  1.0000
  S   S145      1.0  0.15274  0.77757  0.92630  1.0000
  C   C572      1.0  0.18714  0.83813  0.97910  1.0000
  H   H696      1.0  0.21706  0.97786  0.85982  1.0000
  N   N39       1.0  0.02722  0.61091  0.84571  1.0000
  H   H697      1.0  0.03559  0.63656  0.83748  1.0000
  Fe  Fe71      1.0  0.19109  0.86052  0.89806  1.0000
  S   S146      1.0  0.20029  0.85607  0.86559  1.0000
  S   S147      1.0  0.18286  0.83733  0.92523  1.0000
  Fe  Fe72      1.0  0.19915  0.90119  0.89325  1.0000
  S   S148      1.0  0.20892  0.90008  0.86063  1.0000
  S   S149      1.0  0.19801  0.92758  0.90937  1.0000
  Fe  Fe73      1.0  0.19473  0.89188  0.85561  1.0000
  S   S150      1.0  0.19039  0.90683  0.82400  1.0000
  Fe  Fe74      1.0  0.21363  0.86485  0.87314  1.0000
  H   H698      1.0  0.12629  0.84132  0.98086  1.0000
  S   S151      1.0  0.18442  0.89579  0.88747  1.0000
  S   S152      1.0  0.20505  0.86658  0.90627  1.0000
  Fe  Fe75      1.0  0.10031  0.59157  0.94072  1.0000
  S   S153      1.0  0.08849  0.61807  0.92555  1.0000
  S   S154      1.0  0.11581  0.57603  0.92219  1.0000
  Fe  Fe76      1.0  0.07616  0.60222  0.95070  1.0000
  S   S155      1.0  0.06118  0.59224  0.94930  1.0000
  Fe  Fe77      1.0  0.08912  0.63533  0.94972  1.0000
  S   S156      1.0  0.09165  0.66953  0.94248  1.0000
  S   S157      1.0  0.08818  0.57478  0.96460  1.0000
  S   S158      1.0  0.00160  0.55808  0.69707  1.0000
  Fe  Fe78      1.0  0.03814  0.54128  0.87469  1.0000
  C   C573      1.0  0.07890  0.53595  0.91275  1.0000
  S   S159      1.0  0.04804  0.56299  0.87844  1.0000
  Fe  Fe79      1.0  0.02882  0.53890  0.83839  1.0000
  H   H699      1.0  0.18784  0.57153  0.90426  1.0000
  S   S160      1.0  0.02576  0.55516  0.80602  1.0000
  H   H700      1.0  0.23353  0.82173  0.80469  1.0000
  C   C574      1.0  0.21374  0.98703  0.81060  1.0000
  H   H701      1.0  0.12901  0.59615  0.95928  1.0000
  H   H702      1.0  0.19170  0.90846  0.96244  1.0000
  S   S161      1.0  0.02154  0.55087  0.86828  1.0000
  S   S162      1.0  0.04539  0.53187  0.84327  1.0000
  C   C575      1.0  0.22898  0.94495  0.90869  1.0000
  H   H703      1.0  0.98774  0.54107  0.88606  1.0000
  C   C576      1.0  0.00680  0.60504  0.81914  1.0000
  H   H704      1.0  0.14229  0.78973  0.96564  1.0000
  H   H705      1.0  0.23196  0.90272  0.86992  1.0000
  H   H706      1.0  0.14838  0.62217  0.96462  1.0000
  C   C577      1.0  0.19663  0.97567  0.86603  1.0000
  H   H707      1.0  0.02673  0.59095  0.87701  1.0000
  N   N40       1.0  0.19050  0.87553  0.96780  1.0000
  H   H708      1.0  0.20169  0.96024  0.87241  1.0000
  C   C578      1.0  0.99999  0.56342  0.78181  1.0000
  C   C579      1.0  0.21696  0.55838  0.95982  1.0000
  H   H709      1.0  0.03535  0.60914  0.87000  1.0000
  C   C580      1.0  0.22914  0.83625  0.79619  1.0000
  C   C581      1.0  0.20764  0.97699  0.82967  1.0000
  C   C582      1.0  0.20098  0.89533  0.76636  1.0000
  C   C583      1.0  0.99180  0.56130  0.79986  1.0000
  S   S163      1.0  0.02664  0.50534  0.85227  1.0000
  H   H710      1.0  0.03949  0.53084  0.67208  1.0000
  H   H711      1.0  0.02063  0.50908  0.81013  1.0000
  Fe  Fe80      1.0  0.23571  0.53231  0.84714  1.0000
  H   H712      1.0  0.99263  0.59735  0.86970  1.0000
  H   H713      1.0  0.21776  0.55707  0.94376  1.0000
  H   H714      1.0  0.18599  0.86856  0.94234  1.0000
  C   C584      1.0  0.21680  0.90157  0.74056  1.0000
  C   C585      1.0  0.20648  0.95606  0.83076  1.0000
  H   H715      1.0  0.20863  0.91109  0.78993  1.0000
  C   C586      1.0  0.01350  0.53866  0.69831  1.0000
  C   C587      1.0  0.21826  0.97687  0.79368  1.0000
  C   C588      1.0  0.14546  0.82862  0.95551  1.0000
  Fe  Fe81      1.0  0.13677  0.71355  0.97267  1.0000
  N   N41       1.0  0.04372  0.52614  0.74299  1.0000
  H   H716      1.0  0.02240  0.61100  0.80854  1.0000
  H   H717      1.0  0.12638  0.82111  0.96762  1.0000
  H   H718      1.0  0.22114  0.91354  0.77218  1.0000
  H   H719      1.0  0.19405  0.89243  0.98729  1.0000
  C   C589      1.0  0.99412  0.55680  0.81980  1.0000
  C   C590      1.0  0.01041  0.56159  0.78379  1.0000
  C   C591      1.0  0.01274  0.55681  0.80381  1.0000
  C   C592      1.0  0.18191  0.51334  0.91602  1.0000
  H   H720      1.0  0.01660  0.56407  0.76976  1.0000
  C   C593      1.0  0.05799  0.58336  0.92948  1.0000
  C   C594      1.0  0.04954  0.57259  0.93515  1.0000
  C   C595      1.0  0.04657  0.56562  0.91999  1.0000
  C   C596      1.0  0.05189  0.56976  0.89876  1.0000
  C   C597      1.0  0.06032  0.58056  0.89308  1.0000
  C   C598      1.0  0.06343  0.58712  0.90831  1.0000
  H   H721      1.0  0.04523  0.56962  0.95142  1.0000
  H   H722      1.0  0.04004  0.55749  0.92469  1.0000
  H   H723      1.0  0.06449  0.58395  0.87675  1.0000
  H   H724      1.0  0.06990  0.59545  0.90360  1.0000
  C   C599      1.0  0.18659  0.93499  0.81837  1.0000
  H   H725      1.0  0.15430  0.82401  0.95165  1.0000
  C   C600      1.0  0.18249  0.94631  0.83457  1.0000
  C   C601      1.0  0.21317  0.54282  0.97680  1.0000
  H   H726      1.0  0.18132  0.93773  0.85087  1.0000
  C   C602      1.0  0.11744  0.68391  0.96697  1.0000
  C   C603      1.0  0.11247  0.69945  0.95190  1.0000
  C   C604      1.0  0.10445  0.69509  0.94472  1.0000
  C   C605      1.0  0.10151  0.67507  0.95219  1.0000
  C   C606      1.0  0.10647  0.65980  0.96732  1.0000
  H   H727      1.0  0.08217  0.52669  0.88353  1.0000
  H   H728      1.0  0.11477  0.71475  0.94585  1.0000
  H   H729      1.0  0.10064  0.70711  0.93308  1.0000
  C   C607      1.0  0.16226  0.79253  0.92440  1.0000
  C   C608      1.0  0.16302  0.81112  0.90839  1.0000
  C   C609      1.0  0.16977  0.82446  0.90766  1.0000
  C   C610      1.0  0.17571  0.81943  0.92314  1.0000
  C   C611      1.0  0.17511  0.80063  0.93887  1.0000
  C   C612      1.0  0.16857  0.78708  0.93929  1.0000
  H   H730      1.0  0.15823  0.81544  0.89670  1.0000
  H   H731      1.0  0.17010  0.83897  0.89553  1.0000
  H   H732      1.0  0.17970  0.79656  0.95088  1.0000
  H   H733      1.0  0.16831  0.77262  0.95136  1.0000
  C   C613      1.0  0.03269  0.50777  0.69791  1.0000
  C   C614      1.0  0.21961  0.96069  0.90809  1.0000
  C   C615      1.0  0.21013  0.95513  0.90852  1.0000
  C   C616      1.0  0.21009  0.93408  0.90841  1.0000
  C   C617      1.0  0.21956  0.91849  0.90817  1.0000
  Fe  Fe82      1.0  0.16010  0.54515  0.98008  1.0000
  H   H734      1.0  0.14304  0.84636  0.95322  1.0000
  H   H735      1.0  0.20281  0.96718  0.90909  1.0000
  H   H736      1.0  0.21958  0.90216  0.90829  1.0000
  H   H737      1.0  0.05092  0.51894  0.71204  1.0000
  H   H738      1.0  0.08383  0.54776  0.90644  1.0000
  C   C618      1.0  0.17323  0.58286  0.86723  1.0000
  H   H739      1.0  0.15188  0.59527  0.94362  1.0000
  C   C619      1.0  0.16403  0.52743  0.91051  1.0000
  C   C620      1.0  0.12917  0.82401  0.98049  1.0000
  C   C621      1.0  0.21178  0.97246  0.70270  1.0000
  C   C622      1.0  0.23333  0.84447  0.77507  1.0000
  C   C623      1.0  0.13511  0.56055  0.93351  1.0000
  C   C624      1.0  0.12402  0.56335  0.94018  1.0000
  H   H740      1.0  0.22503  0.90413  0.73726  1.0000
  H   H741      1.0  0.23471  0.98145  0.73657  1.0000
  H   H742      1.0  0.02130  0.64493  0.84199  1.0000
  H   H743      1.0  0.13865  0.56543  0.91696  1.0000
  H   H744      1.0  0.04209  0.54424  0.71168  1.0000
  H   H745      1.0  0.02880  0.63658  0.81804  1.0000
  C   C625      1.0  0.17244  0.63057  0.94865  1.0000
  Fe  Fe83      1.0  0.04258  0.49927  0.85978  1.0000
  H   H746      1.0  0.13686  0.59841  0.97544  1.0000
  S   S164      1.0  0.23049  0.84619  0.86937  1.0000
  C   C626      1.0  0.17219  0.66695  0.94946  1.0000
  C   C627      1.0  0.17165  0.65217  0.93864  1.0000
  C   C628      1.0  0.14327  0.63312  0.95385  1.0000
  C   C629      1.0  0.03947  0.54602  0.75129  1.0000
  H   H747      1.0  0.17169  0.68359  0.94157  1.0000
  H   H748      1.0  0.17060  0.65753  0.92255  1.0000
  C   C630      1.0  0.21629  0.54043  0.89158  1.0000
  C   C631      1.0  0.21831  0.51819  0.89895  1.0000
  C   C632      1.0  0.21317  0.50916  0.91936  1.0000
  C   C633      1.0  0.20587  0.52235  0.93227  1.0000
  C   C634      1.0  0.20399  0.54458  0.92501  1.0000
  C   C635      1.0  0.20926  0.55359  0.90480  1.0000
  C   C636      1.0  0.13193  0.60801  0.96381  1.0000
  H   H749      1.0  0.14284  0.82404  0.94334  1.0000
  H   H750      1.0  0.19840  0.55489  0.93485  1.0000
  H   H751      1.0  0.20772  0.57082  0.89921  1.0000
  C   C637      1.0  0.18440  0.88150  0.95095  1.0000
  H   H752      1.0  0.12485  0.61834  0.97203  1.0000
  H   H753      1.0  0.22980  0.51213  0.75533  1.0000
  C   C638      1.0  0.18555  0.96875  0.79237  1.0000
  C   C639      1.0  0.02278  0.54276  0.68359  1.0000
  C   C640      1.0  0.99888  0.50380  0.68805  1.0000
  H   H754      1.0  0.23287  0.94483  0.72508  1.0000
  H   H755      1.0  0.20188  0.94721  0.84446  1.0000
  H   H756      1.0  0.99823  0.56712  0.76633  1.0000
  C   C641      1.0  0.01609  0.60823  0.82231  1.0000
  H   H757      1.0  0.20993  0.93018  0.81486  1.0000
  S   S165      1.0  0.03640  0.50760  0.89174  1.0000
  C   C642      1.0  0.19141  0.56406  0.86502  1.0000
  C   C643      1.0  0.14156  0.55201  0.94838  1.0000
  H   H758      1.0  0.15009  0.55014  0.94336  1.0000
  H   H759      1.0  0.18982  0.97213  0.86217  1.0000
  H   H760      1.0  0.21754  0.97593  0.72812  1.0000
  C   C644      1.0  0.20198  0.86884  0.95843  1.0000
  H   H761      1.0  0.22828  0.87560  0.82916  1.0000
  H   H762      1.0  0.17567  0.88535  0.95751  1.0000
  C   C645      1.0  0.00843  0.60386  0.85982  1.0000
  H   H763      1.0  0.20898  0.92930  0.76476  1.0000
  C   C646      1.0  0.21875  0.96672  0.71640  1.0000
  C   C647      1.0  0.17463  0.63845  0.98010  1.0000
  H   H764      1.0  0.11088  0.55915  0.96679  1.0000
  H   H765      1.0  0.18652  0.89567  0.93865  1.0000
  H   H766      1.0  0.14325  0.59686  0.92699  1.0000
  H   H767      1.0  0.02813  0.52728  0.73875  1.0000
  C   C648      1.0  0.05479  0.51354  0.77115  1.0000
  H   H768      1.0  0.22307  0.93367  0.67427  1.0000
  C   C649      1.0  0.21695  0.95643  0.79518  1.0000
  H   H769      1.0  0.22358  0.50789  0.88878  1.0000
  C   C650      1.0  0.18148  0.98009  0.80855  1.0000
  H   H770      1.0  0.17434  0.60722  0.97739  1.0000
  H   H771      1.0  0.19314  0.53283  0.90072  1.0000
  H   H772      1.0  0.04413  0.59699  0.83928  1.0000
  C   C651      1.0  0.21336  0.96047  0.68759  1.0000
  H   H773      1.0  0.10417  0.64464  0.97365  1.0000
  C   C652      1.0  0.21277  0.91323  0.77302  1.0000
  H   H774      1.0  0.05508  0.54006  0.71706  1.0000
  S   S166      1.0  0.18558  0.56526  0.97439  1.0000
  S   S167      1.0  0.23531  0.52772  0.81571  1.0000
  H   H775      1.0  0.02255  0.55783  0.67214  1.0000
  H   H776      1.0  0.19072  0.93764  0.78470  1.0000
  H   H777      1.0  0.00630  0.55048  0.83736  1.0000
  H   H778      1.0  0.22828  0.55694  0.74014  1.0000
  H   H779      1.0  0.20032  0.88151  0.76088  1.0000
  C   C653      1.0  0.22893  0.92383  0.90880  1.0000
  H   H780      1.0  0.06214  0.51758  0.95790  1.0000
  C   C654      1.0  0.01476  0.50839  0.66090  1.0000
  H   H781      1.0  0.23212  0.50430  0.79178  1.0000
  H   H782      1.0  0.23615  0.91158  0.90944  1.0000
  H   H783      1.0  0.20687  0.86439  0.97054  1.0000
  H   H784      1.0  0.20366  0.85467  0.95136  1.0000
  C   C655      1.0  0.05198  0.51056  0.75346  1.0000
  H   H785      1.0  0.06445  0.50065  0.79447  1.0000
  H   H786      1.0  0.17634  0.97755  0.84214  1.0000
  C   C656      1.0  0.22191  0.94289  0.68598  1.0000
  C   C657      1.0  0.17387  0.62376  0.96943  1.0000
  C   C658      1.0  0.02828  0.63321  0.83534  1.0000
  C   C659      1.0  0.21971  0.57559  0.96344  1.0000
  H   H787      1.0  0.22055  0.94871  0.78194  1.0000
  H   H788      1.0  0.21212  0.91685  0.73272  1.0000
  N   N42       1.0  0.21231  0.89591  0.76361  1.0000
  H   H789      1.0  0.15304  0.78886  0.97712  1.0000
  H   H790      1.0  0.21656  0.84119  0.82328  1.0000
  C   C660      1.0  0.22742  0.94915  0.71465  1.0000
  C   C661      1.0  0.21144  0.99286  0.85428  1.0000
  H   H791      1.0  0.17622  0.59713  0.85675  1.0000
  C   C662      1.0  0.01084  0.50066  0.79460  1.0000
  C   C663      1.0  0.06258  0.49835  0.78070  1.0000
  H   H792      1.0  0.19323  0.98440  0.87911  1.0000
  N   N43       1.0  0.13806  0.62115  0.94544  1.0000
  H   H793      1.0  0.22772  0.56860  0.71290  1.0000
  H   H794      1.0  0.00669  0.51580  0.72432  1.0000
  C   C664      1.0  0.14655  0.60664  0.93348  1.0000
  C   C665      1.0  0.13095  0.63518  0.93145  1.0000
  C   C666      1.0  0.12454  0.62631  0.92399  1.0000
  C   C667      1.0  0.13031  0.65764  0.92447  1.0000
  C   C668      1.0  0.11756  0.63919  0.91122  1.0000
  C   C669      1.0  0.12343  0.67033  0.91139  1.0000
  C   C670      1.0  0.11695  0.66119  0.90505  1.0000
  S   S168      1.0  0.12744  0.68785  0.97729  1.0000
  H   H795      1.0  0.18762  0.50095  0.92384  1.0000
  H   H796      1.0  0.17161  0.57407  0.85699  1.0000
  H   H797      1.0  0.23248  0.93991  0.86110  1.0000
  H   H798      1.0  0.22090  0.59063  0.98687  1.0000
  H   H799      1.0  0.19653  0.89401  0.78308  1.0000
  H   H800      1.0  0.15158  0.61589  0.91998  1.0000
  C   C671      1.0  0.16704  0.54606  0.89723  1.0000
  H   H801      1.0  0.03351  0.55762  0.74269  1.0000
  H   H802      1.0  0.12473  0.60934  0.92820  1.0000
  H   H803      1.0  0.13483  0.66593  0.92932  1.0000
  H   H804      1.0  0.11245  0.63207  0.90645  1.0000
  H   H805      1.0  0.12280  0.68752  0.90681  1.0000
  H   H806      1.0  0.11126  0.67123  0.89574  1.0000
  N   N44       1.0  0.18099  0.56882  0.87996  1.0000
  C   C672      1.0  0.18206  0.58101  0.89433  1.0000
  S   S169      1.0  0.00482  0.50808  0.90223  1.0000
  C   C673      1.0  0.21960  0.84729  0.80664  1.0000
  C   C674      1.0  0.17769  0.54875  0.89279  1.0000
  H   H807      1.0  0.03707  0.50185  0.73887  1.0000
  C   C675      1.0  0.11429  0.66424  0.97473  1.0000
  H   H808      1.0  0.23176  0.86921  0.74801  1.0000
  H   H809      1.0  0.07390  0.54347  0.94349  1.0000
  C   C676      1.0  0.00440  0.51664  0.67078  1.0000
  C   C677      1.0  0.18501  0.53179  0.90266  1.0000
  H   H810      1.0  0.18484  0.59603  0.88559  1.0000
  H   H811      1.0  0.17435  0.58548  0.90543  1.0000
  H   H812      1.0  0.19132  0.55291  0.85545  1.0000
  H   H813      1.0  0.00844  0.51693  0.78601  1.0000
  H   H814      1.0  0.19814  0.55677  0.87309  1.0000
  H   H815      1.0  0.16557  0.58944  0.87736  1.0000
  H   H816      1.0  0.18062  0.90126  0.98271  1.0000
  H   H817      1.0  0.03573  0.57913  0.84222  1.0000
  H   H818      1.0  0.02133  0.61925  0.87633  1.0000
  H   H819      1.0  0.15584  0.52579  0.91393  1.0000
  C   C678      1.0  0.07330  0.53355  0.93367  1.0000
  H   H820      1.0  0.16082  0.55819  0.89093  1.0000
  H   H821      1.0  0.21112  0.52982  0.97311  1.0000
  H   H822      1.0  0.18670  0.97733  0.77607  1.0000
  H   H823      1.0  0.04590  0.55437  0.74976  1.0000
  C   C679      1.0  0.01383  0.51907  0.71302  1.0000
  H   H824      1.0  0.18984  0.83615  0.96294  1.0000
  C   C680      1.0  0.21810  0.87521  0.77437  1.0000
  C   C681      1.0  0.17975  0.96883  0.82964  1.0000
  H   H825      1.0  0.13729  0.64459  0.96284  1.0000
  H   H826      1.0  0.21957  0.97694  0.90825  1.0000
  H   H827      1.0  0.03126  0.51051  0.76318  1.0000
  C   C682      1.0  0.18787  0.94626  0.79728  1.0000
  C   C683      1.0  0.21107  0.94602  0.81370  1.0000
  C   C684      1.0  0.17360  0.66014  0.97023  1.0000
  H   H828      1.0  0.20498  0.88188  0.94561  1.0000
  S   S170      1.0  0.07548  0.62248  0.97347  1.0000
  H   H829      1.0  0.03530  0.54254  0.76815  1.0000
  C   C685      1.0  0.07789  0.52375  0.89979  1.0000
  C   C686      1.0  0.11942  0.55710  0.96156  1.0000
  S   S171      1.0  0.19870  0.51099  0.95695  1.0000
  H   H830      1.0  0.22259  0.58769  0.95022  1.0000
  H   H831      1.0  0.22961  0.54009  0.72294  1.0000
  H   H832      1.0  0.20699  0.87480  0.80505  1.0000
  C   C687      1.0  0.03235  0.52746  0.68350  1.0000
  C   C688      1.0  0.23179  0.55483  0.72363  1.0000
  H   H833      1.0  0.03784  0.59917  0.81850  1.0000
  C   C689      1.0  0.03659  0.59601  0.83594  1.0000
  C   C690      1.0  0.03465  0.51604  0.74610  1.0000
  C   C691      1.0  0.02341  0.50348  0.71265  1.0000
  C   C692      1.0  0.22899  0.93724  0.69938  1.0000
  Fe  Fe84      1.0  0.08832  0.59600  0.98528  1.0000
  C   C693      1.0  0.22793  0.86364  0.76421  1.0000
  C   C694      1.0  0.02759  0.60746  0.86824  1.0000
  S   S172      1.0  0.13343  0.74847  0.97417  1.0000
  H   H834      1.0  0.19548  0.68388  0.98730  1.0000
  H   H835      1.0  0.07005  0.52285  0.86655  1.0000
  C   C695      1.0  0.17144  0.51116  0.91996  1.0000
  C   C696      1.0  0.01727  0.60750  0.84279  1.0000
  H   H836      1.0  0.00621  0.60503  0.80343  1.0000
  H   H837      1.0  0.22822  0.92644  0.83569  1.0000
  C   C697      1.0  0.23561  0.86372  0.82674  1.0000
  H   H838      1.0  0.10210  0.74286  0.97324  1.0000
  H   H839      1.0  0.05099  0.52729  0.77816  1.0000
  C   C698      1.0  0.18693  0.85752  0.98443  1.0000
  C   C699      1.0  0.07130  0.50851  0.90753  1.0000
  C   C700      1.0  0.14428  0.79433  0.97851  1.0000
  H   H840      1.0  0.15565  0.84291  0.97334  1.0000
  H   H841      1.0  0.06441  0.50190  0.86513  1.0000
  H   H842      1.0  0.00084  0.53343  0.66576  1.0000
  S   S173      1.0  0.17325  0.67887  0.98441  1.0000
  C   C701      1.0  0.21877  0.57720  0.98405  1.0000
  C   C702      1.0  0.12587  0.54784  0.97625  1.0000
  N   N45       1.0  0.14094  0.81774  0.97728  1.0000
  S   S174      1.0  0.15843  0.73983  0.97970  1.0000
  H   H843      1.0  0.20741  0.66383  0.98582  1.0000
  C   C703      1.0  0.06536  0.51066  0.87616  1.0000
  H   H844      1.0  0.99302  0.51171  0.86829  1.0000
  C   C704      1.0  0.23681  0.92143  0.82855  1.0000
  C   C705      1.0  0.23318  0.49600  0.76266  1.0000
  H   H845      1.0  0.05734  0.51958  0.88273  1.0000
  C   C706      1.0  0.06667  0.51896  0.94173  1.0000
  H   H846      1.0  0.16901  0.49702  0.93067  1.0000
  C   C707      1.0  0.23387  0.99460  0.67324  1.0000
  C   C708      1.0  0.06565  0.50655  0.92897  1.0000
  S   S175      1.0  0.98787  0.53185  0.75470  1.0000
  S   S176      1.0  0.15934  0.57665  0.98677  1.0000
  H   H847      1.0  0.11789  0.65231  0.98668  1.0000
  H   H848      1.0  0.00852  0.60302  0.87597  1.0000
  S   S177      1.0  0.20112  0.99475  0.70338  1.0000
  C   C709      1.0  0.99918  0.60060  0.85646  1.0000
  H   H849      1.0  0.99127  0.59829  0.83363  1.0000
  C   C710      1.0  0.01770  0.49618  0.80821  1.0000
  C   C711      1.0  0.99837  0.60116  0.83617  1.0000
  H   H850      1.0  0.10687  0.76837  0.98788  1.0000
  Fe  Fe85      1.0  0.98720  0.55388  0.72314  1.0000
  H   H851      1.0  0.06027  0.49578  0.93622  1.0000
  H   H852      1.0  0.08612  0.49538  0.87333  1.0000
  H   H853      1.0  0.99798  0.49626  0.83909  1.0000
  N   N46       1.0  0.07032  0.49593  0.89338  1.0000
  H   H854      1.0  0.32086  0.16438  0.20545  1.0000
  Fe  Fe86      1.0  0.32586  0.24982  0.14706  1.0000
  S   S178      1.0  0.33925  0.25314  0.11887  1.0000
  S   S179      1.0  0.31930  0.21972  0.15863  1.0000
  Fe  Fe87      1.0  0.32489  0.29371  0.15527  1.0000
  S   S180      1.0  0.33822  0.30045  0.12717  1.0000
  S   S181      1.0  0.31572  0.31408  0.17953  1.0000
  Fe  Fe88      1.0  0.33012  0.28672  0.11027  1.0000
  S   S182      1.0  0.32817  0.30033  0.07660  1.0000
  Fe  Fe89      1.0  0.34612  0.26605  0.13812  1.0000
  S   S183      1.0  0.36314  0.25295  0.14146  1.0000
  S   S184      1.0  0.31610  0.28271  0.13743  1.0000
  S   S185      1.0  0.33340  0.26014  0.16733  1.0000
  Fe  Fe90      1.0  0.30364  0.42497  0.25517  1.0000
  S   S186      1.0  0.31725  0.43279  0.22851  1.0000
  S   S187      1.0  0.28670  0.43947  0.25309  1.0000
  Fe  Fe91      1.0  0.31778  0.39483  0.28264  1.0000
  S   S188      1.0  0.33271  0.39975  0.25833  1.0000
  C   C712      1.0  0.42685  0.04780  0.12656  1.0000
  Fe  Fe92      1.0  0.32460  0.43464  0.25390  1.0000
  S   S189      1.0  0.33392  0.46026  0.24735  1.0000
  Fe  Fe93      1.0  0.32396  0.39736  0.23525  1.0000
  S   S190      1.0  0.33211  0.38132  0.20743  1.0000
  S   S191      1.0  0.31037  0.42979  0.28004  1.0000
  S   S192      1.0  0.30969  0.38944  0.26011  1.0000
  C   C713      1.0  0.35180  0.32541  0.22478  1.0000
  S   S193      1.0  0.29294  0.06705  0.03532  1.0000
  Fe  Fe94      1.0  0.32690  0.12592  0.10771  1.0000
  S   S194      1.0  0.32037  0.10945  0.14078  1.0000
  S   S195      1.0  0.33203  0.15741  0.09549  1.0000
  Fe  Fe95      1.0  0.32803  0.08860  0.08920  1.0000
  S   S196      1.0  0.32186  0.06846  0.12045  1.0000
  S   S197      1.0  0.33318  0.07810  0.05844  1.0000
  Fe  Fe96      1.0  0.31008  0.09879  0.12604  1.0000
  S   S198      1.0  0.29265  0.10014  0.14115  1.0000
  Fe  Fe97      1.0  0.33255  0.08063  0.13245  1.0000
  S   S199      1.0  0.34166  0.05735  0.15553  1.0000
  S   S200      1.0  0.31545  0.11814  0.09362  1.0000
  S   S201      1.0  0.33994  0.09786  0.10058  1.0000
  S   S202      1.0  0.27568  0.01946  0.14259  1.0000
  Fe  Fe98      1.0  0.40288  0.10144  0.10482  1.0000
  S   S203      1.0  0.40537  0.08856  0.13791  1.0000
  S   S204      1.0  0.40924  0.08224  0.07942  1.0000
  Fe  Fe99      1.0  0.39146  0.14572  0.11292  1.0000
  S   S205      1.0  0.39297  0.13688  0.14672  1.0000
  S   S206      1.0  0.38197  0.17540  0.09558  1.0000
  Fe  Fe100     1.0  0.40974  0.11980  0.13459  1.0000
  S   S207      1.0  0.42483  0.12239  0.14217  1.0000
  Fe  Fe101     1.0  0.38854  0.10647  0.14726  1.0000
  S   S208      1.0  0.37677  0.09206  0.17446  1.0000
  S   S209      1.0  0.40853  0.13145  0.10042  1.0000
  S   S210      1.0  0.38572  0.11664  0.11456  1.0000
  Fe  Fe102     1.0  0.45843  0.06264  0.23089  1.0000
  S   S211      1.0  0.47290  0.03841  0.21967  1.0000
  S   S212      1.0  0.44268  0.06491  0.22277  1.0000
  Fe  Fe103     1.0  0.46960  0.07349  0.25964  1.0000
  C   C714      1.0  0.42218  0.03323  0.16412  1.0000
  S   S213      1.0  0.46801  0.09303  0.28341  1.0000
  H   H855      1.0  0.30459  0.15507  0.99259  1.0000
  Fe  Fe104     1.0  0.47427  0.02824  0.25341  1.0000
  C   C715      1.0  0.28796  0.04932  0.19748  1.0000
  S   S214      1.0  0.46756  0.08810  0.22624  1.0000
  S   S215      1.0  0.45917  0.05026  0.26528  1.0000
  S   S216      1.0  0.31853  0.37262  0.31407  1.0000
  C   C716      1.0  0.29776  0.01255  0.19974  1.0000
  C   C717      1.0  0.33024  0.13338  0.20098  1.0000
  H   H856      1.0  0.29282  0.36455  0.29173  1.0000
  H   H857      1.0  0.34030  0.13200  0.01143  1.0000
  C   C718      1.0  0.32116  0.27749  0.03325  1.0000
  H   H858      1.0  0.32149  0.12986  0.99511  1.0000
  C   C719      1.0  0.26140  0.39190  0.30348  1.0000
  N   N47       1.0  0.30312  0.42909  0.18361  1.0000
  H   H859      1.0  0.30035  0.43835  0.15214  1.0000
  C   C720      1.0  0.43786  0.08130  0.20034  1.0000
  C   C721      1.0  0.44378  0.09479  0.18460  1.0000
  C   C722      1.0  0.43962  0.10745  0.16699  1.0000
  C   C723      1.0  0.42958  0.10665  0.16489  1.0000
  C   C724      1.0  0.42369  0.09308  0.18056  1.0000
  C   C725      1.0  0.42781  0.08055  0.19822  1.0000
  H   H860      1.0  0.45150  0.09557  0.18608  1.0000
  H   H861      1.0  0.44421  0.11797  0.15499  1.0000
  H   H862      1.0  0.41596  0.09230  0.17914  1.0000
  H   H863      1.0  0.42317  0.07023  0.21036  1.0000
  C   C726      1.0  0.38557  0.08475  0.04058  1.0000
  C   C727      1.0  0.39653  0.08070  0.03198  1.0000
  C   C728      1.0  0.40375  0.07994  0.04398  1.0000
  C   C729      1.0  0.40005  0.08356  0.06453  1.0000
  C   C730      1.0  0.38909  0.08743  0.07317  1.0000
  C   C731      1.0  0.38190  0.08771  0.06135  1.0000
  H   H864      1.0  0.39948  0.07773  0.01624  1.0000
  H   H865      1.0  0.41222  0.07665  0.03727  1.0000
  H   H866      1.0  0.38617  0.08921  0.08929  1.0000
  H   H867      1.0  0.37350  0.08996  0.06848  1.0000
  C   C732      1.0  0.35148  0.06724  0.16022  1.0000
  C   C733      1.0  0.35571  0.08392  0.14557  1.0000
  C   C734      1.0  0.36380  0.09112  0.14939  1.0000
  C   C735      1.0  0.36741  0.08212  0.16818  1.0000
  C   C736      1.0  0.36307  0.06562  0.18286  1.0000
  C   C737      1.0  0.35526  0.05794  0.17873  1.0000
  H   H868      1.0  0.35284  0.09115  0.13124  1.0000
  H   H869      1.0  0.36690  0.10418  0.13821  1.0000
  H   H870      1.0  0.36578  0.05869  0.19746  1.0000
  H   H871      1.0  0.35201  0.04502  0.19009  1.0000
  C   C738      1.0  0.28785  0.07782  0.14150  1.0000
  C   C739      1.0  0.27772  0.07523  0.15361  1.0000
  C   C740      1.0  0.27392  0.05722  0.15437  1.0000
  C   C741      1.0  0.28021  0.04184  0.14288  1.0000
  C   C742      1.0  0.29027  0.04457  0.13065  1.0000
  C   C743      1.0  0.29405  0.06252  0.12990  1.0000
  H   H872      1.0  0.27284  0.08714  0.16246  1.0000
  H   H873      1.0  0.26607  0.05546  0.16351  1.0000
  H   H874      1.0  0.29515  0.03283  0.12159  1.0000
  H   H875      1.0  0.30171  0.06458  0.12010  1.0000
  C   C744      1.0  0.30460  0.06668  0.04254  1.0000
  C   C745      1.0  0.31430  0.06592  0.02773  1.0000
  C   C746      1.0  0.32331  0.06809  0.03307  1.0000
  C   C747      1.0  0.32256  0.07140  0.05309  1.0000
  C   C748      1.0  0.31300  0.07119  0.06816  1.0000
  C   C749      1.0  0.30405  0.06869  0.06295  1.0000
  H   H876      1.0  0.31482  0.06395  0.01207  1.0000
  H   H877      1.0  0.33074  0.06803  0.02143  1.0000
  H   H878      1.0  0.31237  0.07373  0.08363  1.0000
  H   H879      1.0  0.29660  0.06927  0.07451  1.0000
  H   H880      1.0  0.26854  0.01470  0.10778  1.0000
  H   H881      1.0  0.30077  0.39844  0.20362  1.0000
  H   H882      1.0  0.28423  0.03859  0.07273  1.0000
  H   H883      1.0  0.44325  0.09196  0.12730  1.0000
  C   C750      1.0  0.34328  0.46420  0.30566  1.0000
  H   H884      1.0  0.44044  0.06303  0.15427  1.0000
  S   S217      1.0  0.31792  0.23883  0.03125  1.0000
  C   C751      1.0  0.36933  0.23236  0.12758  1.0000
  C   C752      1.0  0.36620  0.23256  0.10941  1.0000
  C   C753      1.0  0.37020  0.21504  0.09968  1.0000
  C   C754      1.0  0.37764  0.19749  0.10761  1.0000
  C   C755      1.0  0.38120  0.19765  0.12519  1.0000
  C   C756      1.0  0.37701  0.21506  0.13523  1.0000
  H   H885      1.0  0.36077  0.24635  0.10270  1.0000
  H   H886      1.0  0.36742  0.21497  0.08616  1.0000
  H   H887      1.0  0.38712  0.18433  0.13116  1.0000
  H   H888      1.0  0.37958  0.21493  0.14913  1.0000
  C   C757      1.0  0.32004  0.33377  0.18632  1.0000
  C   C758      1.0  0.32899  0.34172  0.17413  1.0000
  C   C759      1.0  0.33256  0.35632  0.18079  1.0000
  C   C760      1.0  0.32707  0.36352  0.19942  1.0000
  C   C761      1.0  0.31782  0.35637  0.21111  1.0000
  C   C762      1.0  0.31435  0.34148  0.20461  1.0000
  H   H889      1.0  0.33315  0.33665  0.15955  1.0000
  H   H890      1.0  0.33964  0.36204  0.17149  1.0000
  H   H891      1.0  0.31351  0.36181  0.22544  1.0000
  H   H892      1.0  0.30735  0.33557  0.21402  1.0000
  C   C763      1.0  0.32290  0.20231  0.14109  1.0000
  C   C764      1.0  0.32038  0.18205  0.14813  1.0000
  C   C765      1.0  0.32328  0.16794  0.13437  1.0000
  C   C766      1.0  0.32851  0.17426  0.11338  1.0000
  C   C767      1.0  0.33098  0.19452  0.10634  1.0000
  C   C768      1.0  0.32819  0.20844  0.12016  1.0000
  H   H893      1.0  0.31620  0.17719  0.16426  1.0000
  H   H894      1.0  0.32136  0.15232  0.13997  1.0000
  H   H895      1.0  0.33497  0.19956  0.09010  1.0000
  H   H896      1.0  0.32996  0.22406  0.11439  1.0000
  C   C769      1.0  0.32263  0.24858  0.06392  1.0000
  C   C770      1.0  0.32485  0.26207  0.07416  1.0000
  C   C771      1.0  0.32519  0.28333  0.06408  1.0000
  C   C772      1.0  0.32333  0.29102  0.04359  1.0000
  H   H897      1.0  0.43678  0.10030  0.08725  1.0000
  H   H898      1.0  0.32238  0.23214  0.07189  1.0000
  H   H899      1.0  0.32623  0.25611  0.08992  1.0000
  H   H900      1.0  0.24580  0.04514  0.09637  1.0000
  H   H901      1.0  0.36839  0.15128  0.01477  1.0000
  C   C773      1.0  0.37862  0.20203  0.00694  1.0000
  C   C774      1.0  0.36068  0.05341  0.07075  1.0000
  H   H902      1.0  0.28084  0.06169  0.19971  1.0000
  H   H903      1.0  0.34976  0.47147  0.29541  1.0000
  H   H904      1.0  0.39772  0.03732  0.08166  1.0000
  H   H905      1.0  0.31410  0.10912  0.00691  1.0000
  H   H906      1.0  0.25735  0.40456  0.29183  1.0000
  H   H907      1.0  0.36602  0.00152  0.09692  1.0000
  H   H908      1.0  0.29015  0.42062  0.20957  1.0000
  H   H909      1.0  0.30185  0.46546  0.24644  1.0000
  H   H910      1.0  0.33771  0.33709  0.24669  1.0000
  C   C775      1.0  0.34124  0.32656  0.23567  1.0000
  C   C776      1.0  0.25888  0.05590  0.10094  1.0000
  N   N48       1.0  0.30874  0.13625  0.02165  1.0000
  C   C777      1.0  0.30323  0.12397  0.04161  1.0000
  C   C778      1.0  0.30083  0.14646  0.00822  1.0000
  C   C779      1.0  0.31732  0.12120  0.01042  1.0000
  C   C780      1.0  0.31347  0.15167  0.02629  1.0000
  C   C781      1.0  0.31110  0.17408  0.01766  1.0000
  C   C782      1.0  0.32081  0.14433  0.03976  1.0000
  C   C783      1.0  0.31558  0.18814  0.02283  1.0000
  C   C784      1.0  0.32523  0.15853  0.04479  1.0000
  C   C785      1.0  0.32258  0.18041  0.03644  1.0000
  H   H911      1.0  0.29700  0.13483  0.05091  1.0000
  H   H912      1.0  0.29927  0.11267  0.03863  1.0000
  H   H913      1.0  0.30876  0.11406  0.05187  1.0000
  H   H914      1.0  0.29402  0.15784  0.01575  1.0000
  H   H915      1.0  0.29740  0.13444  0.00502  1.0000
  H   H916      1.0  0.28895  0.43241  0.17236  1.0000
  H   H917      1.0  0.32337  0.11202  0.01985  1.0000
  H   H918      1.0  0.47382  0.03531  0.30016  1.0000
  H   H919      1.0  0.31828  0.42852  0.16132  1.0000
  C   C786      1.0  0.28842  0.36199  0.30789  1.0000
  Fe  Fe105     1.0  0.48206  0.06265  0.21781  1.0000
  C   C787      1.0  0.37855  0.20845  0.04043  1.0000
  H   H920      1.0  0.25991  0.01800  0.09049  1.0000
  H   H921      1.0  0.34052  0.25690  0.01154  1.0000
  H   H922      1.0  0.34569  0.49205  0.23784  1.0000
  H   H923      1.0  0.31422  0.04722  0.17444  1.0000
  C   C788      1.0  0.29740  0.05633  0.18701  1.0000
  C   C789      1.0  0.24018  0.06358  0.12000  1.0000
  H   H924      1.0  0.27784  0.37688  0.27368  1.0000
  C   C790      1.0  0.43418  0.05820  0.12935  1.0000
  C   C791      1.0  0.34744  0.24332  0.01362  1.0000
  C   C792      1.0  0.27914  0.00485  0.23572  1.0000
  C   C793      1.0  0.26108  0.06839  0.11265  1.0000
  C   C794      1.0  0.32832  0.15564  0.19753  1.0000
  C   C795      1.0  0.36999  0.21935  0.00470  1.0000
  C   C796      1.0  0.28536  0.46724  0.24761  1.0000
  C   C797      1.0  0.43263  0.08924  0.10055  1.0000
  H   H925      1.0  0.32432  0.12480  0.21162  1.0000
  C   C798      1.0  0.29029  0.46314  0.19110  1.0000
  N   N49       1.0  0.29435  0.23881  0.12179  1.0000
  C   C799      1.0  0.29208  0.23272  0.14523  1.0000
  C   C800      1.0  0.30260  0.25183  0.11493  1.0000
  C   C801      1.0  0.28443  0.25240  0.11550  1.0000
  C   C802      1.0  0.29800  0.22019  0.11157  1.0000
  C   C803      1.0  0.30069  0.22338  0.08922  1.0000
  C   C804      1.0  0.29879  0.19862  0.12320  1.0000
  C   C805      1.0  0.30405  0.20612  0.07918  1.0000
  C   C806      1.0  0.30212  0.18148  0.11295  1.0000
  C   C807      1.0  0.30482  0.18521  0.09101  1.0000
  H   H926      1.0  0.29926  0.22259  0.15101  1.0000
  H   H927      1.0  0.28968  0.24698  0.15247  1.0000
  H   H928      1.0  0.28550  0.22388  0.15166  1.0000
  H   H929      1.0  0.31033  0.24195  0.11848  1.0000
  H   H930      1.0  0.30037  0.26541  0.12307  1.0000
  H   H931      1.0  0.30402  0.25905  0.09775  1.0000
  H   H932      1.0  0.27814  0.24297  0.11964  1.0000
  H   H933      1.0  0.28123  0.26621  0.12344  1.0000
  H   H934      1.0  0.28572  0.25929  0.09823  1.0000
  H   H935      1.0  0.30032  0.23927  0.07924  1.0000
  H   H936      1.0  0.29706  0.19443  0.14023  1.0000
  H   H937      1.0  0.30615  0.20903  0.06210  1.0000
  H   H938      1.0  0.30287  0.16512  0.12209  1.0000
  H   H939      1.0  0.30764  0.17184  0.08320  1.0000
  H   H940      1.0  0.28363  0.45557  0.19463  1.0000
  H   H941      1.0  0.35195  0.02442  0.11944  1.0000
  C   C808      1.0  0.37096  0.03746  0.09779  1.0000
  H   H942      1.0  0.38301  0.03417  0.06876  1.0000
  H   H943      1.0  0.33063  0.15253  0.05549  1.0000
  H   H944      1.0  0.44148  0.05215  0.08878  1.0000
  H   H945      1.0  0.27540  0.47200  0.29554  1.0000
  H   H946      1.0  0.26847  0.00094  0.20885  1.0000
  N   N50       1.0  0.35630  0.25026  0.01729  1.0000
  N   N51       1.0  0.44020  0.07138  0.11090  1.0000
  H   H947      1.0  0.26452  0.07135  0.05939  1.0000
  H   H948      1.0  0.36717  0.22333  0.99030  1.0000
  Fe  Fe106     1.0  0.26004  0.01306  0.16352  1.0000
  H   H949      1.0  0.43016  0.04158  0.18335  1.0000
  H   H950      1.0  0.34930  0.05305  0.11030  1.0000
  H   H951      1.0  0.27877  0.06440  0.07869  1.0000
  C   C809      1.0  0.33276  0.43728  0.31440  1.0000
  H   H952      1.0  0.29824  0.40301  0.31410  1.0000
  H   H953      1.0  0.34118  0.17026  0.99839  1.0000
  C   C810      1.0  0.36963  0.04053  0.11849  1.0000
  H   H954      1.0  0.27313  0.40546  0.26667  1.0000
  H   H955      1.0  0.37157  0.01344  0.07018  1.0000
  H   H956      1.0  0.42735  0.09892  0.11201  1.0000
  H   H957      1.0  0.38202  0.20428  0.05418  1.0000
  H   H958      1.0  0.31353  0.20521  0.01635  1.0000
  H   H959      1.0  0.31961  0.28363  0.01756  1.0000
  C   C811      1.0  0.26897  0.48504  0.30142  1.0000
  H   H960      1.0  0.35387  0.05322  0.06441  1.0000
  C   C812      1.0  0.27762  0.39236  0.27730  1.0000
  C   C813      1.0  0.42096  0.03552  0.14373  1.0000
  H   H961      1.0  0.36777  0.05227  0.05749  1.0000
  H   H962      1.0  0.45198  0.04382  0.10299  1.0000
  H   H963      1.0  0.35795  0.26763  0.03864  1.0000
  C   C814      1.0  0.30714  0.01976  0.18922  1.0000
  H   H964      1.0  0.46703  0.11685  0.31278  1.0000
  H   H965      1.0  0.31460  0.00838  0.18579  1.0000
  H   H966      1.0  0.31315  0.49242  0.18141  1.0000
  N   N52       1.0  0.26722  0.04491  0.08546  1.0000
  H   H967      1.0  0.32589  0.19144  0.04067  1.0000
  C   C815      1.0  0.42934  0.04309  0.16741  1.0000
  C   C816      1.0  0.47718  0.09078  0.29885  1.0000
  C   C817      1.0  0.36529  0.23170  0.02038  1.0000
  Fe  Fe107     1.0  0.29437  0.07634  0.00024  1.0000
  H   H968      1.0  0.38213  0.19303  0.99456  1.0000
  C   C818      1.0  0.38824  0.04140  0.11222  1.0000
  C   C819      1.0  0.38989  0.03780  0.09207  1.0000
  H   H969      1.0  0.48386  0.00597  0.19395  1.0000
  C   C820      1.0  0.44762  0.08092  0.11645  1.0000
  H   H970      1.0  0.45775  0.00457  0.27888  1.0000
  H   H971      1.0  0.26517  0.49430  0.28796  1.0000
  C   C821      1.0  0.26833  0.03625  0.21853  1.0000
  H   H972      1.0  0.36206  0.04152  0.12964  1.0000
  C   C822      1.0  0.24812  0.05418  0.10478  1.0000
  Fe  Fe108     1.0  0.32170  0.24471  0.99570  1.0000
  N   N53       1.0  0.35454  0.28726  0.18926  1.0000
  C   C823      1.0  0.34917  0.29755  0.17143  1.0000
  C   C824      1.0  0.36620  0.28503  0.18068  1.0000
  C   C825      1.0  0.35250  0.26531  0.19803  1.0000
  C   C826      1.0  0.35023  0.30030  0.20557  1.0000
  C   C827      1.0  0.35630  0.31245  0.20999  1.0000
  C   C828      1.0  0.33944  0.30212  0.21675  1.0000
  C   C829      1.0  0.33510  0.31480  0.23177  1.0000
  H   H973      1.0  0.34046  0.29806  0.17623  1.0000
  H   H974      1.0  0.35024  0.31431  0.16484  1.0000
  H   H975      1.0  0.35241  0.28887  0.15834  1.0000
  H   H976      1.0  0.36828  0.30070  0.17194  1.0000
  H   H977      1.0  0.36922  0.27445  0.16904  1.0000
  H   H978      1.0  0.37072  0.27783  0.19343  1.0000
  H   H979      1.0  0.34388  0.26513  0.20224  1.0000
  H   H980      1.0  0.35619  0.25484  0.18638  1.0000
  H   H981      1.0  0.35579  0.25757  0.21241  1.0000
  H   H982      1.0  0.36447  0.31258  0.20196  1.0000
  H   H983      1.0  0.33415  0.29434  0.21345  1.0000
  H   H984      1.0  0.32680  0.31621  0.23983  1.0000
  N   N54       1.0  0.36391  0.14769  0.05792  1.0000
  C   C830      1.0  0.35879  0.17077  0.05425  1.0000
  C   C831      1.0  0.35701  0.13564  0.05407  1.0000
  C   C832      1.0  0.36443  0.14033  0.08059  1.0000
  C   C833      1.0  0.37451  0.14466  0.04333  1.0000
  C   C834      1.0  0.38420  0.13989  0.05019  1.0000
  C   C835      1.0  0.37536  0.14701  0.02137  1.0000
  C   C836      1.0  0.39407  0.13635  0.03614  1.0000
  C   C837      1.0  0.38528  0.14353  0.00745  1.0000
  C   C838      1.0  0.39461  0.13796  0.01488  1.0000
  H   H985      1.0  0.35795  0.17735  0.03762  1.0000
  H   H986      1.0  0.35068  0.17373  0.06463  1.0000
  H   H987      1.0  0.36358  0.18024  0.05765  1.0000
  H   H988      1.0  0.34955  0.13525  0.06651  1.0000
  H   H989      1.0  0.36122  0.11876  0.05366  1.0000
  H   H990      1.0  0.35440  0.14280  0.03894  1.0000
  H   H991      1.0  0.36851  0.15021  0.08536  1.0000
  H   H992      1.0  0.35634  0.14168  0.09119  1.0000
  H   H993      1.0  0.36866  0.12325  0.08416  1.0000
  H   H994      1.0  0.38442  0.13832  0.06643  1.0000
  C   C839      1.0  0.34273  0.13844  0.99469  1.0000
  H   H995      1.0  0.40136  0.13183  0.04194  1.0000
  C   C840      1.0  0.24256  0.46791  0.30636  1.0000
  C   C841      1.0  0.47447  0.10507  0.31225  1.0000
  C   C842      1.0  0.28786  0.02711  0.20418  1.0000
  H   H996      1.0  0.27555  0.01630  0.18568  1.0000
  H   H997      1.0  0.29829  0.99544  0.20412  1.0000
  H   H998      1.0  0.32318  0.12744  0.04652  1.0000
  H   H999      1.0  0.30579  0.18119  0.00691  1.0000
  C   C843      1.0  0.30696  0.04162  0.18282  1.0000
  N   N55       1.0  0.36206  0.03594  0.08960  1.0000
  C   C844      1.0  0.44657  0.05805  0.09546  1.0000
  H   H1000     1.0  0.28046  0.04072  0.09959  1.0000
  S   S218      1.0  0.24631  0.01240  0.15081  1.0000
  H   H1001     1.0  0.30247  0.41689  0.21680  1.0000
  H   H1002     1.0  0.35919  0.06941  0.07448  1.0000
  H   H1003     1.0  0.35774  0.01310  0.07788  1.0000
  H   H1004     1.0  0.27129  0.04645  0.05188  1.0000
  H   H1005     1.0  0.40227  0.13475  0.00412  1.0000
  H   H1006     1.0  0.34510  0.03698  0.09833  1.0000
  H   H1007     1.0  0.26057  0.37605  0.30242  1.0000
  C   C845      1.0  0.31463  0.41964  0.17703  1.0000
  C   C846      1.0  0.38290  0.19661  0.02478  1.0000
  N   N56       1.0  0.27279  0.39261  0.29990  1.0000
  C   C847      1.0  0.37814  0.04268  0.12543  1.0000
  H   H1008     1.0  0.43861  0.03722  0.31338  1.0000
  H   H1009     1.0  0.39476  0.04361  0.11745  1.0000
  H   H1010     1.0  0.26912  0.04609  0.22872  1.0000
  H   H1011     1.0  0.26665  0.04691  0.20338  1.0000
  C   C848      1.0  0.35992  0.26656  0.99857  1.0000
  H   H1012     1.0  0.34881  0.24963  0.05021  1.0000
  C   C849      1.0  0.27338  0.41316  0.30364  1.0000
  H   H1013     1.0  0.34638  0.43961  0.28840  1.0000
  H   H1014     1.0  0.30148  0.33684  0.31702  1.0000
  C   C850      1.0  0.26738  0.02161  0.09133  1.0000
  H   H1015     1.0  0.26108  0.02957  0.22667  1.0000
  C   C851      1.0  0.34137  0.44621  0.30178  1.0000
  C   C852      1.0  0.30094  0.45167  0.18551  1.0000
  H   H1016     1.0  0.42538  0.04963  0.11113  1.0000
  H   H1017     1.0  0.26304  0.47704  0.31398  1.0000
  H   H1018     1.0  0.34514  0.27460  0.03277  1.0000
  H   H1019     1.0  0.29964  0.41105  0.16511  1.0000
  H   H1020     1.0  0.48155  0.11443  0.23579  1.0000
  Fe  Fe109     1.0  0.24934  0.99754  0.20881  1.0000
  H   H1021     1.0  0.28178  0.41447  0.30094  1.0000
  H   H1022     1.0  0.34456  0.23077  0.02716  1.0000
  H   H1023     1.0  0.31811  0.47563  0.28382  1.0000
  H   H1024     1.0  0.42740  0.08360  0.09399  1.0000
  H   H1025     1.0  0.35643  0.33504  0.22754  1.0000
  S   S219      1.0  0.37629  0.08558  0.02606  1.0000
  C   C853      1.0  0.30916  0.46292  0.18193  1.0000
  S   S220      1.0  0.24994  0.03042  0.18881  1.0000
  H   H1026     1.0  0.29727  0.07335  0.18165  1.0000
  H   H1027     1.0  0.27397  0.01264  0.08074  1.0000
  H   H1028     1.0  0.25728  0.05096  0.06312  1.0000
  N   N57       1.0  0.27799  0.01901  0.21486  1.0000
  C   C854      1.0  0.35192  0.26084  0.03557  1.0000
  H   H1029     1.0  0.41523  0.02817  0.14126  1.0000
  H   H1030     1.0  0.32354  0.30751  0.03573  1.0000
  C   C855      1.0  0.35168  0.03761  0.10512  1.0000
  C   C856      1.0  0.24757  0.47777  0.28629  1.0000
  C   C857      1.0  0.38139  0.03606  0.08483  1.0000
  H   H1031     1.0  0.26945  0.42718  0.29286  1.0000
  H   H1032     1.0  0.41746  0.02407  0.17746  1.0000
  N   N58       1.0  0.35380  0.16699  0.15751  1.0000
  C   C858      1.0  0.35529  0.16257  0.13638  1.0000
  C   C859      1.0  0.35095  0.19063  0.15526  1.0000
  C   C860      1.0  0.36411  0.15902  0.16427  1.0000
  C   C861      1.0  0.34568  0.15584  0.17279  1.0000
  C   C862      1.0  0.34740  0.13319  0.17693  1.0000
  C   C863      1.0  0.33589  0.16681  0.18365  1.0000
  C   C864      1.0  0.33978  0.12217  0.19072  1.0000
  H   H1033     1.0  0.34759  0.16745  0.13120  1.0000
  H   H1034     1.0  0.36102  0.17140  0.12421  1.0000
  H   H1035     1.0  0.35848  0.14531  0.13620  1.0000
  H   H1036     1.0  0.34351  0.19790  0.14926  1.0000
  H   H1037     1.0  0.35723  0.19849  0.14376  1.0000
  H   H1038     1.0  0.34993  0.19519  0.17049  1.0000
  H   H1039     1.0  0.36746  0.14174  0.16424  1.0000
  H   H1040     1.0  0.37030  0.16765  0.15359  1.0000
  H   H1041     1.0  0.36322  0.16105  0.18054  1.0000
  H   H1042     1.0  0.35470  0.12381  0.16951  1.0000
  H   H1043     1.0  0.33381  0.18404  0.18151  1.0000
  H   H1044     1.0  0.34133  0.10482  0.19339  1.0000
  H   H1045     1.0  0.33165  0.42363  0.31016  1.0000
  C   C865      1.0  0.36447  0.01508  0.08339  1.0000
  H   H1046     1.0  0.45202  0.09074  0.10231  1.0000
  C   C866      1.0  0.27818  0.37471  0.31456  1.0000
  C   C867      1.0  0.43527  0.05544  0.15037  1.0000
  H   H1047     1.0  0.45154  0.06725  0.08177  1.0000
  H   H1048     1.0  0.25425  0.46846  0.27710  1.0000
  C   C868      1.0  0.24267  0.07517  0.13161  1.0000
  H   H1049     1.0  0.36699  0.23437  0.05097  1.0000
  H   H1050     1.0  0.26864  0.47432  0.24781  1.0000
  C   C869      1.0  0.29424  0.47581  0.24473  1.0000
  C   C870      1.0  0.27810  0.04734  0.08417  1.0000
  C   C871      1.0  0.32380  0.48584  0.27726  1.0000
  H   H1051     1.0  0.37684  0.04560  0.14110  1.0000
  H   H1052     1.0  0.45367  0.06839  0.12406  1.0000
  C   C872      1.0  0.32078  0.25623  0.04344  1.0000
  C   C873      1.0  0.36986  0.22574  0.03838  1.0000
  H   H1053     1.0  0.38969  0.18338  0.02639  1.0000
  H   H1054     1.0  0.28582  0.39533  0.27271  1.0000
  H   H1055     1.0  0.26898  0.07078  0.11079  1.0000
  C   C874      1.0  0.26493  0.05376  0.06409  1.0000
  C   C875      1.0  0.27550  0.48090  0.24570  1.0000
  H   H1056     1.0  0.26936  0.41494  0.32004  1.0000
  H   H1057     1.0  0.34971  0.23694  0.99905  1.0000
  H   H1058     1.0  0.31605  0.40265  0.17581  1.0000
  C   C876      1.0  0.29777  0.42769  0.16764  1.0000
  H   H1059     1.0  0.31751  0.45552  0.17805  1.0000
  H   H1060     1.0  0.28106  0.01339  0.24579  1.0000
  C   C877      1.0  0.29893  0.41569  0.20422  1.0000
  C   C878      1.0  0.27606  0.00649  0.20175  1.0000
  S   S221      1.0  0.48468  0.05039  0.25060  1.0000
  H   H1061     1.0  0.45539  0.04617  0.31155  1.0000
  H   H1062     1.0  0.36675  0.27186  0.00045  1.0000
  C   C879      1.0  0.30677  0.48427  0.18376  1.0000
  H   H1063     1.0  0.35344  0.28099  0.99586  1.0000
  H   H1064     1.0  0.27166  0.99916  0.24444  1.0000
  C   C880      1.0  0.33201  0.48175  0.25968  1.0000
  C   C881      1.0  0.28801  0.48457  0.19261  1.0000
  C   C882      1.0  0.47745  0.02319  0.31268  1.0000
  H   H1065     1.0  0.25499  0.08679  0.13687  1.0000
  S   S222      1.0  0.24734  0.44073  0.31672  1.0000
  H   H1066     1.0  0.31914  0.41938  0.18871  1.0000
  H   H1067     1.0  0.47857  0.00720  0.30911  1.0000
  H   H1068     1.0  0.38576  0.14484  0.99084  1.0000
  H   H1069     1.0  0.25669  0.39513  0.31908  1.0000
  Fe  Fe110     1.0  0.38222  0.08991  0.99065  1.0000
  C   C883      1.0  0.25307  0.07777  0.12778  1.0000
  H   H1070     1.0  0.48546  0.02626  0.31089  1.0000
  C   C884      1.0  0.48686  0.07557  0.29834  1.0000
  C   C885      1.0  0.29623  0.49511  0.18894  1.0000
  H   H1071     1.0  0.28747  0.49452  0.28523  1.0000
  H   H1072     1.0  0.27983  0.49296  0.19714  1.0000
  C   C886      1.0  0.33936  0.49500  0.25141  1.0000
  H   H1073     1.0  0.48681  0.13817  0.24978  1.0000
  S   S223      1.0  0.27971  0.09488  0.98847  1.0000
  Fe  Fe111     1.0  0.23966  0.42586  0.39686  1.0000
  C   C887      1.0  0.29819  0.39346  0.32986  1.0000
  H   H1074     1.0  0.46326  0.04782  0.35295  1.0000
  Fe  Fe112     1.0  0.26337  0.41264  0.38037  1.0000
  S   S224      1.0  0.25373  0.43073  0.40550  1.0000
  S   S225      1.0  0.27763  0.38688  0.38706  1.0000
  C   C888      1.0  0.27799  0.48581  0.32728  1.0000
  C   C889      1.0  0.26208  0.40511  0.58491  1.0000
  Fe  Fe113     1.0  0.25316  0.45945  0.37871  1.0000
  H   H1075     1.0  0.24661  0.31199  0.48428  1.0000
  C   C890      1.0  0.23876  0.30912  0.49249  1.0000
  H   H1076     1.0  0.27901  0.47661  0.59906  1.0000
  H   H1077     1.0  0.47859  0.00466  0.40320  1.0000
  H   H1078     1.0  0.28392  0.47144  0.32297  1.0000
  C   C891      1.0  0.27302  0.43648  0.58509  1.0000
  N   N59       1.0  0.47073  0.02414  0.33410  1.0000
  C   C892      1.0  0.27458  0.46521  0.59894  1.0000
  C   C893      1.0  0.47684  0.00942  0.34968  1.0000
  C   C894      1.0  0.31605  0.43483  0.36742  1.0000
  H   H1079     1.0  0.28230  0.40926  0.34297  1.0000
  C   C895      1.0  0.27862  0.45157  0.58485  1.0000
  N   N60       1.0  0.31636  0.43770  0.34465  1.0000
  C   C896      1.0  0.25926  0.44899  0.61363  1.0000
  S   S226      1.0  0.25516  0.49184  0.37876  1.0000
  C   C897      1.0  0.26489  0.46401  0.61319  1.0000
  S   S227      1.0  0.26401  0.44179  0.35429  1.0000
  S   S228      1.0  0.30274  0.49247  0.37496  1.0000
  H   H1080     1.0  0.32263  0.47319  0.34662  1.0000
  H   H1081     1.0  0.25728  0.39327  0.58630  1.0000
  H   H1082     1.0  0.24634  0.44075  0.58265  1.0000
  C   C898      1.0  0.28901  0.38424  0.36655  1.0000
  H   H1083     1.0  0.47637  0.05028  0.33759  1.0000
  H   H1084     1.0  0.29181  0.45813  0.38583  1.0000
  C   C899      1.0  0.27561  0.47271  0.38306  1.0000
  C   C900      1.0  0.24620  0.42913  0.59811  1.0000
  C   C901      1.0  0.46885  0.04613  0.33755  1.0000
  H   H1085     1.0  0.29927  0.44730  0.34904  1.0000
  C   C902      1.0  0.29794  0.36828  0.37061  1.0000
  H   H1086     1.0  0.47892  0.11548  0.33542  1.0000
  H   H1087     1.0  0.24158  0.43815  0.61055  1.0000
  H   H1088     1.0  0.24287  0.29901  0.52230  1.0000
  H   H1089     1.0  0.26461  0.39559  0.62501  1.0000
  H   H1090     1.0  0.48445  0.01400  0.34835  1.0000
  C   C903      1.0  0.25654  0.40374  0.62207  1.0000
  H   H1091     1.0  0.30590  0.46898  0.34291  1.0000
  H   H1092     1.0  0.31471  0.45025  0.37217  1.0000
  H   H1093     1.0  0.29784  0.35834  0.38631  1.0000
  S   S229      1.0  0.24932  0.40538  0.37375  1.0000
  H   H1094     1.0  0.26266  0.41514  0.56859  1.0000
  H   H1095     1.0  0.30941  0.42721  0.37774  1.0000
  H   H1096     1.0  0.24148  0.41737  0.59890  1.0000
  H   H1097     1.0  0.32364  0.42465  0.37149  1.0000
  H   H1098     1.0  0.27016  0.39564  0.58682  1.0000
  H   H1099     1.0  0.23897  0.37892  0.41222  1.0000
  H   H1100     1.0  0.30931  0.41009  0.35227  1.0000
  H   H1101     1.0  0.25208  0.39119  0.62383  1.0000
  Fe  Fe114     1.0  0.24902  0.43647  0.34988  1.0000
  H   H1102     1.0  0.27665  0.42638  0.57381  1.0000
  H   H1103     1.0  0.27177  0.48026  0.34093  1.0000
  H   H1104     1.0  0.32352  0.40445  0.34404  1.0000
  H   H1105     1.0  0.25235  0.41232  0.63503  1.0000
  N   N61       1.0  0.25716  0.41843  0.60099  1.0000
  H   H1106     1.0  0.28617  0.45262  0.57377  1.0000
  C   C904      1.0  0.27353  0.37042  0.33651  1.0000
  C   C905      1.0  0.26822  0.49197  0.37893  1.0000
  H   H1107     1.0  0.26184  0.47453  0.62427  1.0000
  C   C906      1.0  0.28858  0.34173  0.34364  1.0000
  C   C907      1.0  0.28918  0.39703  0.34620  1.0000
  S   S230      1.0  0.27824  0.46518  0.65013  1.0000
  H   H1108     1.0  0.23908  0.27285  0.55317  1.0000
  S   S231      1.0  0.23815  0.45645  0.37226  1.0000
  H   H1109     1.0  0.27317  0.45760  0.38711  1.0000
  C   C908      1.0  0.31616  0.41664  0.34132  1.0000
  H   H1110     1.0  0.29270  0.32965  0.35485  1.0000
  C   C909      1.0  0.30695  0.36483  0.35438  1.0000
  C   C910      1.0  0.28617  0.47302  0.38222  1.0000
  C   C911      1.0  0.26315  0.43467  0.59965  1.0000
  H   H1111     1.0  0.27504  0.35150  0.36749  1.0000
  H   H1112     1.0  0.31381  0.35237  0.35763  1.0000
  C   C912      1.0  0.28967  0.49338  0.65090  1.0000
  H   H1113     1.0  0.26613  0.38025  0.34307  1.0000
  C   C913      1.0  0.30659  0.45310  0.33956  1.0000
  H   H1114     1.0  0.29583  0.48631  0.63902  1.0000
  H   H1115     1.0  0.25187  0.44851  0.62529  1.0000
  C   C914      1.0  0.30707  0.37728  0.33396  1.0000
  C   C915      1.0  0.32786  0.46482  0.33467  1.0000
  H   H1116     1.0  0.33782  0.48798  0.32453  1.0000
  H   H1117     1.0  0.47218  0.00962  0.36613  1.0000
  C   C916      1.0  0.28941  0.49254  0.37678  1.0000
  C   C917      1.0  0.32578  0.44623  0.33144  1.0000
  C   C918      1.0  0.29350  0.34580  0.32230  1.0000
  C   C919      1.0  0.27861  0.35398  0.35071  1.0000
  C   C920      1.0  0.45717  0.00029  0.35004  1.0000
  H   H1118     1.0  0.31527  0.41778  0.32512  1.0000
  C   C921      1.0  0.46044  0.01875  0.33587  1.0000
  C   C922      1.0  0.44079  0.00888  0.33786  1.0000
  H   H1119     1.0  0.30661  0.45581  0.32253  1.0000
  H   H1120     1.0  0.31479  0.46683  0.65354  1.0000
  H   H1121     1.0  0.43341  0.00480  0.33833  1.0000
  C   C923      1.0  0.33655  0.47347  0.32208  1.0000
  H   H1122     1.0  0.46542  0.05863  0.32503  1.0000
  C   C924      1.0  0.48122  0.10430  0.32511  1.0000
  C   C925      1.0  0.44375  0.02705  0.32380  1.0000
  C   C926      1.0  0.45341  0.03198  0.32280  1.0000
  H   H1123     1.0  0.28209  0.49482  0.33306  1.0000
  C   C927      1.0  0.44749  0.99554  0.35090  1.0000
  Fe  Fe115     1.0  0.25801  0.41605  0.70469  1.0000
  S   S232      1.0  0.26773  0.38580  0.72076  1.0000
  S   S233      1.0  0.26177  0.44667  0.70523  1.0000
  C   C928      1.0  0.41692  0.04750  0.84612  1.0000
  Fe  Fe116     1.0  0.32420  0.22214  0.96015  1.0000
  S   S234      1.0  0.33193  0.24698  0.93560  1.0000
  S   S235      1.0  0.32459  0.19344  0.94815  1.0000
  H   H1124     1.0  0.47649  0.01759  0.76273  1.0000
  C   C929      1.0  0.32068  0.36652  0.86874  1.0000
  Fe  Fe117     1.0  0.47287  0.01844  0.80685  1.0000
  Fe  Fe118     1.0  0.31922  0.27053  0.95200  1.0000
  S   S236      1.0  0.30938  0.30034  0.93517  1.0000
  Fe  Fe119     1.0  0.34097  0.24517  0.95962  1.0000
  S   S237      1.0  0.35847  0.24453  0.95157  1.0000
  H   H1125     1.0  0.26086  0.39695  0.83881  1.0000
  H   H1126     1.0  0.24398  0.08513  0.86382  1.0000
  C   C930      1.0  0.28865  0.42329  0.70059  1.0000
  Fe  Fe120     1.0  0.29571  0.39558  0.80149  1.0000
  S   S238      1.0  0.30875  0.37078  0.78747  1.0000
  S   S239      1.0  0.27885  0.40613  0.79730  1.0000
  Fe  Fe121     1.0  0.30992  0.40681  0.82251  1.0000
  S   S240      1.0  0.32420  0.38326  0.81018  1.0000
  S   S241      1.0  0.31163  0.42606  0.84329  1.0000
  Fe  Fe122     1.0  0.31864  0.39547  0.77979  1.0000
  S   S242      1.0  0.33051  0.40044  0.74890  1.0000
  Fe  Fe123     1.0  0.31301  0.36091  0.81931  1.0000
  S   S243      1.0  0.31892  0.32650  0.83516  1.0000
  S   S244      1.0  0.30528  0.42106  0.79142  1.0000
  S   S245      1.0  0.29906  0.38376  0.83406  1.0000
  C   C931      1.0  0.39527  0.05815  0.90474  1.0000
  H   H1127     1.0  0.43632  0.04843  0.94823  1.0000
  H   H1128     1.0  0.28767  0.40264  0.89414  1.0000
  C   C932      1.0  0.30322  0.45388  0.71844  1.0000
  H   H1129     1.0  0.28135  0.00994  0.87464  1.0000
  C   C933      1.0  0.33698  0.37879  0.85474  1.0000
  H   H1130     1.0  0.24781  0.99677  0.81430  1.0000
  H   H1131     1.0  0.24584  0.42159  0.85049  1.0000
  Fe  Fe124     1.0  0.29063  0.11480  0.96479  1.0000
  S   S246      1.0  0.29424  0.09485  0.94055  1.0000
  H   H1132     1.0  0.30468  0.03840  0.88213  1.0000
  Fe  Fe125     1.0  0.28461  0.07311  0.96558  1.0000
  S   S247      1.0  0.27336  0.05374  0.96391  1.0000
  Fe  Fe126     1.0  0.30786  0.07614  0.95616  1.0000
  S   S248      1.0  0.32349  0.06348  0.93571  1.0000
  C   C934      1.0  0.28015  0.48605  0.65894  1.0000
  C   C935      1.0  0.23914  0.08715  0.90611  1.0000
  Fe  Fe127     1.0  0.39860  0.07691  0.95231  1.0000
  S   S249      1.0  0.38348  0.06634  0.97114  1.0000
  S   S250      1.0  0.41199  0.05036  0.94114  1.0000
  Fe  Fe128     1.0  0.38838  0.12407  0.95298  1.0000
  H   H1133     1.0  0.24328  0.09782  0.89332  1.0000
  S   S251      1.0  0.39165  0.15726  0.94137  1.0000
  H   H1134     1.0  0.34960  0.13979  0.91641  1.0000
  C   C936      1.0  0.29899  0.02827  0.88937  1.0000
  Fe  Fe129     1.0  0.37529  0.09432  0.94983  1.0000
  S   S252      1.0  0.36613  0.09251  0.92701  1.0000
  C   C937      1.0  0.30136  0.04612  0.92359  1.0000
  S   S253      1.0  0.39051  0.10369  0.93003  1.0000
  C   C938      1.0  0.41955  0.05434  0.91496  1.0000
  C   C939      1.0  0.42766  0.07702  0.88307  1.0000
  C   C940      1.0  0.42097  0.07470  0.90337  1.0000
  H   H1135     1.0  0.42899  0.09273  0.87440  1.0000
  H   H1136     1.0  0.41720  0.08854  0.91029  1.0000
  C   C941      1.0  0.33494  0.07238  0.93456  1.0000
  C   C942      1.0  0.34220  0.07523  0.91517  1.0000
  C   C943      1.0  0.35163  0.08148  0.91339  1.0000
  C   C944      1.0  0.35413  0.08424  0.93111  1.0000
  C   C945      1.0  0.34701  0.08101  0.95077  1.0000
  C   C946      1.0  0.33729  0.07544  0.95243  1.0000
  H   H1137     1.0  0.34047  0.07276  0.90138  1.0000
  H   H1138     1.0  0.35705  0.08400  0.89815  1.0000
  H   H1139     1.0  0.34899  0.08269  0.96460  1.0000
  H   H1140     1.0  0.24606  0.44231  0.86176  1.0000
  C   C947      1.0  0.26441  0.04879  0.90478  1.0000
  C   C948      1.0  0.26176  0.03474  0.92409  1.0000
  C   C949      1.0  0.26457  0.03648  0.94207  1.0000
  C   C950      1.0  0.27003  0.05223  0.94086  1.0000
  C   C951      1.0  0.27261  0.06637  0.92157  1.0000
  C   C952      1.0  0.26983  0.06458  0.90360  1.0000
  H   H1141     1.0  0.25751  0.02264  0.92519  1.0000
  H   H1142     1.0  0.26249  0.02558  0.95699  1.0000
  H   H1143     1.0  0.27664  0.07880  0.92052  1.0000
  H   H1144     1.0  0.30406  0.05532  0.90742  1.0000
  H   H1145     1.0  0.47700  0.05572  0.76314  1.0000
  H   H1146     1.0  0.36938  0.15666  0.90594  1.0000
  C   C953      1.0  0.39957  0.04780  0.87105  1.0000
  H   H1147     1.0  0.27543  0.46472  0.78597  1.0000
  C   C954      1.0  0.33181  0.42591  0.73301  1.0000
  C   C955      1.0  0.34043  0.42693  0.71570  1.0000
  C   C956      1.0  0.34146  0.44640  0.70149  1.0000
  C   C957      1.0  0.33382  0.46513  0.70424  1.0000
  C   C958      1.0  0.32527  0.46437  0.72185  1.0000
  C   C959      1.0  0.32436  0.44477  0.73645  1.0000
  H   H1148     1.0  0.34629  0.41249  0.71307  1.0000
  H   H1149     1.0  0.34814  0.44688  0.68807  1.0000
  H   H1150     1.0  0.30161  0.20814  0.96308  1.0000
  H   H1151     1.0  0.31781  0.44421  0.75005  1.0000
  C   C960      1.0  0.36736  0.21971  0.94964  1.0000
  C   C961      1.0  0.37737  0.21972  0.93613  1.0000
  C   C962      1.0  0.38468  0.20042  0.93401  1.0000
  C   C963      1.0  0.38210  0.18082  0.94541  1.0000
  C   C964      1.0  0.37218  0.18067  0.95953  1.0000
  C   C965      1.0  0.36484  0.20017  0.96173  1.0000
  H   H1152     1.0  0.37948  0.23473  0.92706  1.0000
  H   H1153     1.0  0.39237  0.20068  0.92329  1.0000
  Fe  Fe130     1.0  0.25351  0.02238  0.87806  1.0000
  C   C966      1.0  0.29336  0.02494  0.87634  1.0000
  C   C967      1.0  0.31206  0.30710  0.90736  1.0000
  C   C968      1.0  0.30480  0.32339  0.89722  1.0000
  C   C969      1.0  0.30676  0.32930  0.87506  1.0000
  C   C970      1.0  0.31601  0.31896  0.86293  1.0000
  C   C971      1.0  0.32321  0.30251  0.87307  1.0000
  C   C972      1.0  0.32127  0.29668  0.89522  1.0000
  H   H1154     1.0  0.29765  0.33147  0.90653  1.0000
  H   H1155     1.0  0.30113  0.34185  0.86736  1.0000
  H   H1156     1.0  0.33042  0.29460  0.86375  1.0000
  H   H1157     1.0  0.32703  0.28447  0.90284  1.0000
  H   H1158     1.0  0.26452  0.46294  0.74191  1.0000
  H   H1159     1.0  0.31789  0.02319  0.90095  1.0000
  C   C973      1.0  0.31361  0.18197  0.95233  1.0000
  C   C974      1.0  0.30315  0.19262  0.95936  1.0000
  H   H1160     1.0  0.24397  0.43786  0.79037  1.0000
  C   C975      1.0  0.29655  0.16286  0.95678  1.0000
  C   C976      1.0  0.30702  0.15219  0.95005  1.0000
  C   C977      1.0  0.31551  0.16176  0.94776  1.0000
  C   C978      1.0  0.28589  0.01208  0.88468  1.0000
  H   H1161     1.0  0.33258  0.41206  0.68934  1.0000
  H   H1162     1.0  0.30857  0.13672  0.94618  1.0000
  H   H1163     1.0  0.32357  0.15336  0.94244  1.0000
  H   H1164     1.0  0.37021  0.16561  0.96876  1.0000
  C   C979      1.0  0.34871  0.13321  0.95886  1.0000
  C   C980      1.0  0.29992  0.45884  0.86210  1.0000
  C   C981      1.0  0.30012  0.44562  0.84905  1.0000
  C   C982      1.0  0.29140  0.44883  0.84002  1.0000
  H   H1165     1.0  0.29278  0.05290  0.92906  1.0000
  C   C983      1.0  0.33611  0.45933  0.76615  1.0000
  H   H1166     1.0  0.30665  0.45645  0.86905  1.0000
  H   H1167     1.0  0.29152  0.43856  0.82999  1.0000
  H   H1168     1.0  0.33286  0.38767  0.89361  1.0000
  C   C984      1.0  0.27071  0.39036  0.74267  1.0000
  C   C985      1.0  0.27995  0.37845  0.74978  1.0000
  C   C986      1.0  0.28268  0.38332  0.76635  1.0000
  C   C987      1.0  0.27595  0.39955  0.77631  1.0000
  C   C988      1.0  0.26657  0.41086  0.76960  1.0000
  C   C989      1.0  0.26405  0.40658  0.75261  1.0000
  H   H1169     1.0  0.28501  0.36553  0.74246  1.0000
  H   H1170     1.0  0.28982  0.37417  0.77172  1.0000
  H   H1171     1.0  0.26121  0.42294  0.77759  1.0000
  H   H1172     1.0  0.25680  0.41548  0.74750  1.0000
  C   C990      1.0  0.32537  0.42000  0.68357  1.0000
  S   S254      1.0  0.39804  0.09815  0.97366  1.0000
  H   H1173     1.0  0.29238  0.42448  0.65942  1.0000
  H   H1174     1.0  0.32258  0.40172  0.87921  1.0000
  C   C991      1.0  0.28240  0.47889  0.85685  1.0000
  H   H1175     1.0  0.45497  0.05943  0.88507  1.0000
  H   H1176     1.0  0.39281  0.09034  0.87139  1.0000
  H   H1177     1.0  0.32303  0.45552  0.79192  1.0000
  S   S255      1.0  0.25125  0.03009  0.84474  1.0000
  H   H1178     1.0  0.27588  0.46838  0.83667  1.0000
  H   H1179     1.0  0.24865  0.08766  0.92702  1.0000
  H   H1180     1.0  0.26054  0.00110  0.71310  1.0000
  H   H1181     1.0  0.31100  0.47617  0.81451  1.0000
  H   H1182     1.0  0.46575  0.00738  0.76113  1.0000
  S   S256      1.0  0.31076  0.24564  0.97520  1.0000
  H   H1183     1.0  0.33129  0.44840  0.66638  1.0000
  H   H1184     1.0  0.48464  0.03083  0.71432  1.0000
  S   S257      1.0  0.26086  0.04776  0.88183  1.0000
  H   H1185     1.0  0.25623  0.45539  0.87320  1.0000
  S   S258      1.0  0.33431  0.21860  0.98290  1.0000
  Fe  Fe131     1.0  0.45147  0.03407  0.83496  1.0000
  N   N62       1.0  0.32997  0.36960  0.87455  1.0000
  H   H1186     1.0  0.38370  0.08101  0.86269  1.0000
  S   S259      1.0  0.28589  0.15088  0.95973  1.0000
  H   H1187     1.0  0.42392  0.05433  0.83903  1.0000
  C   C992      1.0  0.32972  0.33866  0.90604  1.0000
  H   H1188     1.0  0.29248  0.38087  0.70581  1.0000
  C   C993      1.0  0.33525  0.34889  0.88628  1.0000
  H   H1189     1.0  0.30495  0.01563  0.95709  1.0000
  H   H1190     1.0  0.42315  0.02088  0.91456  1.0000
  C   C994      1.0  0.26275  0.44300  0.87807  1.0000
  C   C995      1.0  0.24968  0.42518  0.86146  1.0000
  H   H1191     1.0  0.33956  0.36816  0.84322  1.0000
  H   H1192     1.0  0.23981  0.39298  0.67118  1.0000
  H   H1193     1.0  0.38888  0.06395  0.91776  1.0000
  C   C996      1.0  0.43287  0.05908  0.87419  1.0000
  H   H1194     1.0  0.30572  0.04950  0.93372  1.0000
  C   C997      1.0  0.26961  0.46600  0.77644  1.0000
  H   H1195     1.0  0.31958  0.01705  0.92732  1.0000
  H   H1196     1.0  0.28740  0.17994  0.91381  1.0000
  S   S260      1.0  0.32908  0.27138  0.97380  1.0000
  C   C998      1.0  0.28058  0.41370  0.88992  1.0000
  C   C999      1.0  0.23869  0.47074  0.79326  1.0000
  H   H1197     1.0  0.32156  0.34545  0.91273  1.0000
  H   H1198     1.0  0.31940  0.47880  0.72428  1.0000
  H   H1199     1.0  0.48271  0.07535  0.72613  1.0000
  H   H1200     1.0  0.41002  0.06976  0.86606  1.0000
  H   H1201     1.0  0.25303  0.00094  0.73944  1.0000
  H   H1202     1.0  0.26918  0.44962  0.77633  1.0000
  C   C1000     1.0  0.27663  0.43234  0.89775  1.0000
  N   N63       1.0  0.26147  0.42099  0.85426  1.0000
  C   C1001     1.0  0.26501  0.39899  0.85014  1.0000
  C   C1002     1.0  0.33507  0.49346  0.74148  1.0000
  C   C1003     1.0  0.26427  0.43621  0.83405  1.0000
  C   C1004     1.0  0.26647  0.42411  0.86990  1.0000
  C   C1005     1.0  0.27560  0.40952  0.87622  1.0000
  H   H1203     1.0  0.44367  0.07327  0.91629  1.0000
  H   H1204     1.0  0.35059  0.34435  0.86347  1.0000
  H   H1205     1.0  0.37787  0.04717  0.88316  1.0000
  Fe  Fe132     1.0  0.26363  0.45353  0.67032  1.0000
  H   H1206     1.0  0.26344  0.38670  0.86492  1.0000
  C   C1006     1.0  0.28748  0.48206  0.72271  1.0000
  H   H1207     1.0  0.27362  0.39540  0.84250  1.0000
  C   C1007     1.0  0.28400  0.00254  0.90610  1.0000
  H   H1208     1.0  0.28065  0.43583  0.90791  1.0000
  C   C1008     1.0  0.28258  0.46569  0.84372  1.0000
  H   H1209     1.0  0.27306  0.43392  0.82826  1.0000
  H   H1210     1.0  0.26097  0.43405  0.82150  1.0000
  H   H1211     1.0  0.26107  0.45313  0.83561  1.0000
  H   H1212     1.0  0.27920  0.39498  0.87049  1.0000
  C   C1009     1.0  0.29461  0.18315  0.96134  1.0000
  H   H1213     1.0  0.43478  0.02514  0.87839  1.0000
  C   C1010     1.0  0.28931  0.44974  0.75006  1.0000
  H   H1214     1.0  0.29043  0.42481  0.71516  1.0000
  H   H1215     1.0  0.31642  0.38168  0.85997  1.0000
  H   H1216     1.0  0.37567  0.05491  0.90753  1.0000
  H   H1217     1.0  0.46868  0.03175  0.74369  1.0000
  C   C1011     1.0  0.31537  0.45081  0.66342  1.0000
  H   H1218     1.0  0.34413  0.38174  0.85790  1.0000
  H   H1219     1.0  0.34848  0.29367  0.91817  1.0000
  H   H1220     1.0  0.35877  0.19072  0.92963  1.0000
  H   H1221     1.0  0.38002  0.08846  0.88783  1.0000
  N   N64       1.0  0.39098  0.05796  0.88677  1.0000
  N   N65       1.0  0.30742  0.24407  0.90240  1.0000
  C   C1012     1.0  0.31915  0.23860  0.89449  1.0000
  C   C1013     1.0  0.30309  0.26318  0.88725  1.0000
  C   C1014     1.0  0.30543  0.24978  0.92309  1.0000
  C   C1015     1.0  0.30210  0.22639  0.90496  1.0000
  C   C1016     1.0  0.29084  0.22944  0.91165  1.0000
  C   C1017     1.0  0.30780  0.20572  0.90152  1.0000
  C   C1018     1.0  0.28563  0.21292  0.91456  1.0000
  C   C1019     1.0  0.30248  0.18936  0.90438  1.0000
  H   H1222     1.0  0.27705  0.21541  0.92011  1.0000
  H   H1223     1.0  0.32124  0.23423  0.87884  1.0000
  H   H1224     1.0  0.32287  0.25236  0.89237  1.0000
  H   H1225     1.0  0.32303  0.22519  0.90585  1.0000
  H   H1226     1.0  0.30728  0.27646  0.88420  1.0000
  H   H1227     1.0  0.29454  0.26999  0.89309  1.0000
  H   H1228     1.0  0.30394  0.25925  0.87177  1.0000
  H   H1229     1.0  0.30841  0.23568  0.93495  1.0000
  H   H1230     1.0  0.30950  0.26269  0.92198  1.0000
  H   H1231     1.0  0.29684  0.25575  0.92952  1.0000
  H   H1232     1.0  0.28599  0.24453  0.91504  1.0000
  H   H1233     1.0  0.31637  0.20156  0.89709  1.0000
  C   C1020     1.0  0.34059  0.47260  0.74787  1.0000
  H   H1234     1.0  0.34819  0.46649  0.73821  1.0000
  H   H1235     1.0  0.30168  0.48812  0.76436  1.0000
  H   H1236     1.0  0.33971  0.16395  0.91959  1.0000
  C   C1021     1.0  0.29738  0.47396  0.71080  1.0000
  H   H1237     1.0  0.36669  0.13390  0.92624  1.0000
  C   C1022     1.0  0.35379  0.18588  0.92177  1.0000
  C   C1023     1.0  0.38670  0.08039  0.87670  1.0000
  H   H1238     1.0  0.39219  0.02223  0.87049  1.0000
  H   H1239     1.0  0.34476  0.10851  0.98624  1.0000
  C   C1024     1.0  0.31481  0.01469  0.91726  1.0000
  C   C1025     1.0  0.42445  0.03653  0.90577  1.0000
  C   C1026     1.0  0.33450  0.31910  0.91740  1.0000
  H   H1240     1.0  0.34704  0.18471  0.96096  1.0000
  C   C1027     1.0  0.34485  0.30898  0.90939  1.0000
  C   C1028     1.0  0.28947  0.00598  0.91936  1.0000
  C   C1029     1.0  0.40887  0.05625  0.86159  1.0000
  C   C1030     1.0  0.39891  0.02983  0.86423  1.0000
  C   C1031     1.0  0.38191  0.04693  0.89561  1.0000
  H   H1241     1.0  0.30387  0.42613  0.74385  1.0000
  C   C1032     1.0  0.47322  0.00192  0.72166  1.0000
  C   C1033     1.0  0.36564  0.15154  0.92290  1.0000
  C   C1034     1.0  0.34842  0.15732  0.91497  1.0000
  H   H1242     1.0  0.31096  0.44778  0.70934  1.0000
  N   N66       1.0  0.47963  0.00291  0.73603  1.0000
  C   C1035     1.0  0.29961  0.38801  0.70197  1.0000
  H   H1243     1.0  0.35851  0.31039  0.88369  1.0000
  N   N67       1.0  0.29782  0.40998  0.68857  1.0000
  Fe  Fe133     1.0  0.24446  0.46061  0.70649  1.0000
  S   S261      1.0  0.24661  0.47029  0.67129  1.0000
  H   H1244     1.0  0.40643  0.00747  0.84376  1.0000
  C   C1036     1.0  0.30716  0.42000  0.68245  1.0000
  C   C1037     1.0  0.41602  0.02998  0.83974  1.0000
  C   C1038     1.0  0.31676  0.40990  0.68962  1.0000
  H   H1245     1.0  0.33003  0.31154  0.93235  1.0000
  H   H1246     1.0  0.28732  0.99864  0.93588  1.0000
  H   H1247     1.0  0.26156  0.47304  0.78503  1.0000
  H   H1248     1.0  0.30638  0.37700  0.69386  1.0000
  S   S262      1.0  0.26093  0.42204  0.66940  1.0000
  H   H1249     1.0  0.28153  0.41605  0.70560  1.0000
  C   C1039     1.0  0.29719  0.01896  0.91134  1.0000
  S   S263      1.0  0.37255  0.11718  0.97094  1.0000
  C   C1040     1.0  0.29105  0.47533  0.86610  1.0000
  H   H1250     1.0  0.24061  0.06165  0.95665  1.0000
  H   H1251     1.0  0.26477  0.49000  0.68023  1.0000
  H   H1252     1.0  0.28802  0.40055  0.67359  1.0000
  C   C1041     1.0  0.32618  0.38570  0.88797  1.0000
  H   H1253     1.0  0.39953  0.04186  0.91153  1.0000
  H   H1254     1.0  0.31781  0.39430  0.70009  1.0000
  Fe  Fe134     1.0  0.45304  0.00715  0.80376  1.0000
  H   H1255     1.0  0.34548  0.19517  0.92551  1.0000
  C   C1042     1.0  0.43103  0.03890  0.88539  1.0000
  C   C1043     1.0  0.26770  0.44688  0.89194  1.0000
  H   H1256     1.0  0.27185  0.07556  0.88871  1.0000
  S   S264      1.0  0.45736  0.03868  0.79968  1.0000
  C   C1044     1.0  0.35048  0.31844  0.88996  1.0000
  H   H1257     1.0  0.42230  0.02329  0.82769  1.0000
  S   S265      1.0  0.44181  0.06242  0.84936  1.0000
  C   C1045     1.0  0.24120  0.45415  0.78246  1.0000
  H   H1258     1.0  0.35086  0.12216  0.94858  1.0000
  S   S266      1.0  0.30500  0.09775  0.97833  1.0000
  H   H1259     1.0  0.35691  0.19115  0.90452  1.0000
  C   C1046     1.0  0.34524  0.12521  0.98045  1.0000
  N   N68       1.0  0.30325  0.02283  0.92479  1.0000
  H   H1260     1.0  0.30696  0.17354  0.90222  1.0000
  C   C1047     1.0  0.34580  0.33809  0.87847  1.0000
  N   N69       1.0  0.24356  0.00497  0.71672  1.0000
  H   H1261     1.0  0.31990  0.38131  0.90204  1.0000
  H   H1262     1.0  0.35112  0.16406  0.89787  1.0000
  H   H1263     1.0  0.23770  0.03128  0.81481  1.0000
  C   C1048     1.0  0.44172  0.04212  0.93499  1.0000
  N   N70       1.0  0.35428  0.16242  0.92807  1.0000
  H   H1264     1.0  0.33180  0.07283  0.96756  1.0000
  C   C1049     1.0  0.29921  0.44177  0.73799  1.0000
  C   C1050     1.0  0.47237  0.01539  0.75156  1.0000
  C   C1051     1.0  0.45064  0.01157  0.91805  1.0000
  H   H1265     1.0  0.28626  0.43971  0.69117  1.0000
  H   H1266     1.0  0.24721  0.41539  0.87751  1.0000
  H   H1267     1.0  0.30112  0.38803  0.71740  1.0000
  C   C1052     1.0  0.28315  0.47027  0.74280  1.0000
  H   H1268     1.0  0.30057  0.48339  0.69558  1.0000
  H   H1269     1.0  0.33276  0.39447  0.84652  1.0000
  H   H1270     1.0  0.26487  0.46179  0.89741  1.0000
  H   H1271     1.0  0.45905  0.02141  0.88548  1.0000
  C   C1053     1.0  0.29143  0.19294  0.91090  1.0000
  C   C1054     1.0  0.34688  0.16797  0.96574  1.0000
  H   H1272     1.0  0.30483  0.46631  0.79947  1.0000
  C   C1055     1.0  0.44404  0.02014  0.93563  1.0000
  C   C1056     1.0  0.32467  0.44043  0.67059  1.0000
  H   H1273     1.0  0.31472  0.36068  0.88276  1.0000
  N   N71       1.0  0.27245  0.47889  0.75472  1.0000
  C   C1057     1.0  0.25353  0.99583  0.72470  1.0000
  H   H1274     1.0  0.38455  0.03008  0.90387  1.0000
  C   C1058     1.0  0.24023  0.45867  0.76137  1.0000
  H   H1275     1.0  0.28668  0.43945  0.76498  1.0000
  S   S267      1.0  0.46745  0.01632  0.84182  1.0000
  H   H1276     1.0  0.32324  0.35475  0.85841  1.0000
  C   C1059     1.0  0.26440  0.47937  0.74322  1.0000
  H   H1277     1.0  0.37036  0.15501  0.93234  1.0000
  C   C1060     1.0  0.32021  0.48804  0.77203  1.0000
  Fe  Fe135     1.0  0.24354  0.43791  0.67390  1.0000
  C   C1061     1.0  0.40706  0.02113  0.84882  1.0000
  S   S268      1.0  0.24116  0.46538  0.81870  1.0000
  S   S269      1.0  0.29855  0.05298  0.97941  1.0000
  H   H1278     1.0  0.24837  0.03401  0.69804  1.0000
  C   C1062     1.0  0.34981  0.15478  0.95082  1.0000
  C   C1063     1.0  0.45223  0.04834  0.89946  1.0000
  C   C1064     1.0  0.44582  0.05618  0.91698  1.0000
  H   H1279     1.0  0.35734  0.20013  0.97299  1.0000
  H   H1280     1.0  0.40094  0.06895  0.90013  1.0000
  C   C1065     1.0  0.30028  0.01233  0.94743  1.0000
  C   C1066     1.0  0.32607  0.46682  0.77814  1.0000
  H   H1281     1.0  0.34030  0.44290  0.77067  1.0000
  C   C1067     1.0  0.45454  0.02643  0.89988  1.0000
  H   H1282     1.0  0.30171  0.39927  0.65950  1.0000
  C   C1068     1.0  0.24233  0.08135  0.92532  1.0000
  S   S270      1.0  0.33545  0.48879  0.68506  1.0000
  H   H1283     1.0  0.46953  0.01817  0.71358  1.0000
  S   S271      1.0  0.24026  0.42919  0.70944  1.0000
  H   H1284     1.0  0.29091  0.48550  0.87630  1.0000
  H   H1285     1.0  0.36257  0.26040  0.98379  1.0000
  H   H1286     1.0  0.29173  0.01843  0.95433  1.0000
  C   C1069     1.0  0.30675  0.44076  0.66916  1.0000
  S   S272      1.0  0.44334  0.00324  0.78325  1.0000
  C   C1070     1.0  0.29490  0.40850  0.66943  1.0000
  H   H1287     1.0  0.29968  0.44949  0.66332  1.0000
  H   H1288     1.0  0.29465  0.03259  0.85971  1.0000
  C   C1071     1.0  0.30560  0.48100  0.80328  1.0000
  S   S273      1.0  0.44583  0.00429  0.83838  1.0000
  H   H1289     1.0  0.29760  0.48801  0.81207  1.0000
  H   H1290     1.0  0.23816  0.03164  0.77774  1.0000
  C   C1072     1.0  0.48533  0.05299  0.75525  1.0000
  H   H1291     1.0  0.24219  0.03470  0.72527  1.0000
  H   H1292     1.0  0.24017  0.06008  0.87080  1.0000
  C   C1073     1.0  0.24203  0.02861  0.71155  1.0000
  H   H1293     1.0  0.25622  0.48593  0.75151  1.0000
  C   C1074     1.0  0.24363  0.99760  0.69786  1.0000
  C   C1075     1.0  0.23784  0.06659  0.94203  1.0000
  H   H1294     1.0  0.24242  0.44593  0.75289  1.0000
  H   H1295     1.0  0.31658  0.99729  0.91737  1.0000
  H   H1296     1.0  0.26575  0.48930  0.72691  1.0000
  H   H1297     1.0  0.44028  0.01038  0.94983  1.0000
  H   H1298     1.0  0.28651  0.19144  0.96656  1.0000
  C   C1076     1.0  0.34340  0.15986  0.98733  1.0000
  Fe  Fe136     1.0  0.24395  0.49409  0.82629  1.0000
  C   C1077     1.0  0.25379  0.51939  0.31765  1.0000
  H   H1299     1.0  0.30151  0.90289  0.30469  1.0000
  C   C1078     1.0  0.47162  0.98027  0.28523  1.0000
  Fe  Fe137     1.0  0.26602  0.55726  0.23607  1.0000
  S   S274      1.0  0.26284  0.59297  0.22550  1.0000
  C   C1079     1.0  0.27830  0.60359  0.31887  1.0000
  Fe  Fe138     1.0  0.25419  0.59233  0.25912  1.0000
  S   S275      1.0  0.25495  0.61620  0.27629  1.0000
  Fe  Fe139     1.0  0.24765  0.58944  0.21998  1.0000
  C   C1080     1.0  0.27460  0.50316  0.24045  1.0000
  S   S276      1.0  0.25841  0.55678  0.27018  1.0000
  S   S277      1.0  0.25162  0.55348  0.22761  1.0000
  H   H1300     1.0  0.24639  0.96229  0.28345  1.0000
  S   S278      1.0  0.33072  0.53771  0.28865  1.0000
  S   S279      1.0  0.24989  0.99083  0.24296  1.0000
  C   C1081     1.0  0.33874  0.51192  0.26055  1.0000
  S   S280      1.0  0.26050  0.98023  0.18441  1.0000
  S   S281      1.0  0.24030  0.61017  0.19275  1.0000
  H   H1301     1.0  0.25235  0.93432  0.20320  1.0000
  C   C1082     1.0  0.25234  0.85868  0.22136  1.0000
  C   C1083     1.0  0.48281  0.97367  0.22457  1.0000
  C   C1084     1.0  0.28150  0.50756  0.29213  1.0000
  H   H1302     1.0  0.47836  0.97333  0.21302  1.0000
  H   H1303     1.0  0.30463  0.55250  0.22448  1.0000
  H   H1304     1.0  0.26701  0.51369  0.23871  1.0000
  C   C1085     1.0  0.26615  0.95545  0.23997  1.0000
  C   C1086     1.0  0.27169  0.93490  0.24792  1.0000
  C   C1087     1.0  0.26789  0.92392  0.26838  1.0000
  H   H1305     1.0  0.25471  0.84256  0.21859  1.0000
  H   H1306     1.0  0.27872  0.92722  0.23798  1.0000
  S   S282      1.0  0.28285  0.53917  0.22847  1.0000
  Fe  Fe140     1.0  0.24359  0.55667  0.26081  1.0000
  H   H1307     1.0  0.31310  0.53604  0.25252  1.0000
  H   H1308     1.0  0.28460  0.56264  0.25913  1.0000
  H   H1309     1.0  0.25903  0.92635  0.22455  1.0000
  C   C1088     1.0  0.25787  0.86510  0.23240  1.0000
  H   H1310     1.0  0.29448  0.57596  0.22423  1.0000
  H   H1311     1.0  0.30591  0.87778  0.29648  1.0000
  H   H1312     1.0  0.29408  0.53775  0.26043  1.0000
  C   C1089     1.0  0.47535  0.95992  0.29669  1.0000
  C   C1090     1.0  0.25344  0.95465  0.27349  1.0000
  C   C1091     1.0  0.27095  0.62304  0.31563  1.0000
  C   C1092     1.0  0.26388  0.61032  0.29300  1.0000
  C   C1093     1.0  0.29340  0.49798  0.23898  1.0000
  Fe  Fe141     1.0  0.25278  0.84112  0.30481  1.0000
  C   C1094     1.0  0.25121  0.93408  0.22024  1.0000
  C   C1095     1.0  0.24486  0.81012  0.25682  1.0000
  C   C1096     1.0  0.27113  0.59060  0.29639  1.0000
  H   H1313     1.0  0.23952  0.93874  0.25875  1.0000
  S   S283      1.0  0.24386  0.95165  0.16647  1.0000
  H   H1314     1.0  0.29340  0.89457  0.29247  1.0000
  H   H1315     1.0  0.27115  0.57812  0.28897  1.0000
  H   H1316     1.0  0.25583  0.92540  0.29706  1.0000
  S   S284      1.0  0.25162  0.81697  0.28833  1.0000
  H   H1317     1.0  0.26898  0.96354  0.22398  1.0000
  S   S285      1.0  0.24770  0.87645  0.29390  1.0000
  C   C1097     1.0  0.25700  0.96530  0.25273  1.0000
  H   H1318     1.0  0.44503  0.98448  0.30578  1.0000
  H   H1319     1.0  0.26458  0.85390  0.23814  1.0000
  H   H1320     1.0  0.25098  0.79557  0.25793  1.0000
  C   C1098     1.0  0.24357  0.87280  0.21440  1.0000
  N   N72       1.0  0.30098  0.56538  0.25241  1.0000
  C   C1099     1.0  0.29226  0.55399  0.26383  1.0000
  C   C1100     1.0  0.30211  0.56818  0.22935  1.0000
  C   C1101     1.0  0.31103  0.55141  0.25786  1.0000
  C   C1102     1.0  0.29833  0.58646  0.25819  1.0000
  C   C1103     1.0  0.28949  0.60235  0.25229  1.0000
  C   C1104     1.0  0.30389  0.59135  0.27084  1.0000
  C   C1105     1.0  0.28648  0.62197  0.25844  1.0000
  C   C1106     1.0  0.30076  0.61099  0.27702  1.0000
  C   C1107     1.0  0.29209  0.62626  0.27083  1.0000
  C   C1108     1.0  0.25475  0.88580  0.23621  1.0000
  H   H1321     1.0  0.25082  0.50790  0.31359  1.0000
  H   H1322     1.0  0.29091  0.55230  0.28119  1.0000
  H   H1323     1.0  0.34456  0.52188  0.25390  1.0000
  H   H1324     1.0  0.27804  0.89797  0.32078  1.0000
  H   H1325     1.0  0.30809  0.57799  0.22017  1.0000
  H   H1326     1.0  0.31041  0.54688  0.27524  1.0000
  N   N73       1.0  0.27310  0.49915  0.30947  1.0000
  H   H1327     1.0  0.31792  0.55931  0.25041  1.0000
  H   H1328     1.0  0.28454  0.59945  0.24360  1.0000
  H   H1329     1.0  0.31056  0.58015  0.27659  1.0000
  H   H1330     1.0  0.27946  0.63351  0.25440  1.0000
  H   H1331     1.0  0.30487  0.61410  0.28726  1.0000
  H   H1332     1.0  0.28947  0.64115  0.27625  1.0000
  S   S286      1.0  0.27438  0.89757  0.27732  1.0000
  H   H1333     1.0  0.25955  0.89016  0.24423  1.0000
  C   C1109     1.0  0.28361  0.51163  0.23660  1.0000
  S   S287      1.0  0.26875  0.84277  0.30794  1.0000
  N   N74       1.0  0.24276  0.92257  0.23329  1.0000
  C   C1110     1.0  0.46817  0.94869  0.31177  1.0000
  H   H1334     1.0  0.23975  0.80386  0.23199  1.0000
  H   H1335     1.0  0.28243  0.99196  0.19980  1.0000
  H   H1336     1.0  0.28604  0.51592  0.29753  1.0000
  C   C1111     1.0  0.25878  0.93380  0.28121  1.0000
  C   C1112     1.0  0.26381  0.62638  0.30276  1.0000
  S   S288      1.0  0.23862  0.59244  0.25272  1.0000
  H   H1337     1.0  0.47104  0.93307  0.32083  1.0000
  Fe  Fe142     1.0  0.24582  0.98110  0.17396  1.0000
  Fe  Fe143     1.0  0.32052  0.54410  0.31991  1.0000
  H   H1338     1.0  0.24814  0.50748  0.26309  1.0000
  H   H1339     1.0  0.24940  0.91500  0.26092  1.0000
  H   H1340     1.0  0.23918  0.86757  0.20612  1.0000
  Fe  Fe144     1.0  0.26299  0.87828  0.30015  1.0000
  C   C1113     1.0  0.23733  0.57577  0.18113  1.0000
  H   H1341     1.0  0.47998  0.96278  0.23975  1.0000
  C   C1114     1.0  0.24570  0.90048  0.22971  1.0000
  C   C1115     1.0  0.23847  0.81477  0.24219  1.0000
  H   H1342     1.0  0.30038  0.50449  0.23613  1.0000
  H   H1343     1.0  0.28402  0.57217  0.31185  1.0000
  H   H1344     1.0  0.28441  0.86398  0.31266  1.0000
  C   C1116     1.0  0.24413  0.49979  0.27841  1.0000
  C   C1117     1.0  0.45347  0.97758  0.30310  1.0000
  C   C1118     1.0  0.29882  0.88881  0.30374  1.0000
  C   C1119     1.0  0.46068  0.98897  0.28800  1.0000
  C   C1120     1.0  0.27838  0.58724  0.30932  1.0000
  C   C1121     1.0  0.24346  0.82419  0.26990  1.0000
  H   H1345     1.0  0.24102  0.56557  0.19374  1.0000
  C   C1122     1.0  0.33081  0.51586  0.27833  1.0000
  C   C1123     1.0  0.24017  0.89329  0.21872  1.0000
  C   C1124     1.0  0.32322  0.50290  0.28666  1.0000
  H   H1346     1.0  0.48041  0.98991  0.22815  1.0000
  H   H1347     1.0  0.29441  0.51159  0.19060  1.0000
  C   C1125     1.0  0.45730  0.95779  0.31554  1.0000
  C   C1126     1.0  0.26479  0.51714  0.31670  1.0000
  H   H1348     1.0  0.48380  0.95303  0.29432  1.0000
  H   H1349     1.0  0.31705  0.50582  0.30042  1.0000
  H   H1350     1.0  0.27795  0.51903  0.27912  1.0000
  H   H1351     1.0  0.25823  0.64161  0.30023  1.0000
  C   C1127     1.0  0.24178  0.92226  0.25578  1.0000
  H   H1352     1.0  0.24927  0.95095  0.22205  1.0000
  H   H1353     1.0  0.29716  0.84791  0.31532  1.0000
  H   H1354     1.0  0.28548  0.99017  0.23433  1.0000
  S   S289      1.0  0.48094  0.99457  0.26816  1.0000
  C   C1128     1.0  0.34416  0.58766  0.57961  1.0000
  H   H1355     1.0  0.45542  0.82961  0.52963  1.0000
  Fe  Fe145     1.0  0.36376  0.69865  0.56218  1.0000
  S   S290      1.0  0.37518  0.68171  0.58333  1.0000
  S   S291      1.0  0.36844  0.69571  0.52817  1.0000
  Fe  Fe146     1.0  0.34919  0.72312  0.59499  1.0000
  S   S292      1.0  0.35945  0.70803  0.61877  1.0000
  S   S293      1.0  0.33438  0.74892  0.59869  1.0000
  Fe  Fe147     1.0  0.37313  0.71376  0.59106  1.0000
  S   S294      1.0  0.38740  0.72913  0.58430  1.0000
  Fe  Fe148     1.0  0.36041  0.67764  0.60884  1.0000
  S   S295      1.0  0.35935  0.64599  0.63245  1.0000
  S   S296      1.0  0.36263  0.73074  0.56808  1.0000
  S   S297      1.0  0.34917  0.69254  0.58691  1.0000
  Fe  Fe149     1.0  0.34500  0.66334  0.45649  1.0000
  S   S298      1.0  0.35962  0.65239  0.43268  1.0000
  S   S299      1.0  0.34287  0.65215  0.49184  1.0000
  Fe  Fe150     1.0  0.33453  0.69604  0.42371  1.0000
  S   S300      1.0  0.34828  0.68835  0.39735  1.0000
  S   S301      1.0  0.32063  0.72208  0.41581  1.0000
  Fe  Fe151     1.0  0.34805  0.65385  0.41306  1.0000
  S   S302      1.0  0.35090  0.63275  0.38936  1.0000
  Fe  Fe152     1.0  0.35859  0.68765  0.41884  1.0000
  S   S303      1.0  0.37249  0.70456  0.40526  1.0000
  S   S304      1.0  0.33348  0.66184  0.43826  1.0000
  S   S305      1.0  0.34477  0.69835  0.44387  1.0000
  H   H1356     1.0  0.34994  0.75008  0.62090  1.0000
  H   H1357     1.0  0.28449  0.52690  0.36838  1.0000
  Fe  Fe153     1.0  0.26091  0.84556  0.34128  1.0000
  S   S306      1.0  0.27042  0.82590  0.36561  1.0000
  H   H1358     1.0  0.35058  0.61598  0.59611  1.0000
  Fe  Fe154     1.0  0.31867  0.88811  0.60358  1.0000
  S   S307      1.0  0.33050  0.90220  0.57611  1.0000
  Fe  Fe155     1.0  0.33516  0.84923  0.61775  1.0000
  S   S308      1.0  0.34855  0.85987  0.59201  1.0000
  H   H1359     1.0  0.38684  0.60396  0.38135  1.0000
  Fe  Fe156     1.0  0.34116  0.89225  0.59916  1.0000
  S   S309      1.0  0.35026  0.91493  0.60146  1.0000
  Fe  Fe157     1.0  0.33686  0.86854  0.57125  1.0000
  S   S310      1.0  0.34278  0.85872  0.54001  1.0000
  S   S311      1.0  0.32402  0.85528  0.59645  1.0000
  Fe  Fe158     1.0  0.30784  0.86217  0.46787  1.0000
  S   S312      1.0  0.31053  0.87756  0.43329  1.0000
  S   S313      1.0  0.30485  0.87884  0.49427  1.0000
  Fe  Fe159     1.0  0.30820  0.81891  0.46069  1.0000
  S   S314      1.0  0.31085  0.83046  0.42557  1.0000
  S   S315      1.0  0.30800  0.78493  0.47805  1.0000
  Fe  Fe160     1.0  0.32245  0.84687  0.42967  1.0000
  S   S316      1.0  0.33871  0.84199  0.40864  1.0000
  Fe  Fe161     1.0  0.29861  0.85971  0.43252  1.0000
  S   S317      1.0  0.28494  0.87591  0.41625  1.0000
  S   S318      1.0  0.32077  0.83303  0.46431  1.0000
  S   S319      1.0  0.29496  0.84676  0.46752  1.0000
  S   S320      1.0  0.47521  0.90609  0.40480  1.0000
  S   S321      1.0  0.46556  0.89431  0.37019  1.0000
  Fe  Fe162     1.0  0.45976  0.89917  0.40354  1.0000
  S   S322      1.0  0.44998  0.87846  0.43060  1.0000
  H   H1360     1.0  0.37291  0.65783  0.36001  1.0000
  Fe  Fe163     1.0  0.40989  0.80824  0.62354  1.0000
  S   S323      1.0  0.40141  0.83768  0.60430  1.0000
  C   C1129     1.0  0.38761  0.63603  0.44226  1.0000
  Fe  Fe164     1.0  0.42670  0.83216  0.62548  1.0000
  S   S324      1.0  0.41927  0.86278  0.60577  1.0000
  Fe  Fe165     1.0  0.45897  0.92967  0.36141  1.0000
  Fe  Fe166     1.0  0.40375  0.85532  0.62583  1.0000
  H   H1361     1.0  0.38041  0.72954  0.51480  1.0000
  Fe  Fe167     1.0  0.41772  0.84187  0.58607  1.0000
  S   S325      1.0  0.42000  0.85146  0.55051  1.0000
  H   H1362     1.0  0.35188  0.73607  0.45379  1.0000
  S   S326      1.0  0.42635  0.81127  0.60408  1.0000
  Fe  Fe168     1.0  0.40964  0.80955  0.43857  1.0000
  S   S327      1.0  0.40080  0.83136  0.46076  1.0000
  S   S328      1.0  0.42466  0.81747  0.41536  1.0000
  Fe  Fe169     1.0  0.39335  0.78040  0.45480  1.0000
  S   S329      1.0  0.38364  0.80044  0.47824  1.0000
  S   S330      1.0  0.38548  0.75219  0.46140  1.0000
  Fe  Fe170     1.0  0.38636  0.82855  0.45203  1.0000
  S   S331      1.0  0.37285  0.85692  0.44865  1.0000
  Fe  Fe171     1.0  0.39902  0.80098  0.48467  1.0000
  S   S332      1.0  0.40003  0.79352  0.51867  1.0000
  S   S333      1.0  0.39513  0.80894  0.42782  1.0000
  S   S334      1.0  0.40878  0.77890  0.46328  1.0000
  C   C1130     1.0  0.41507  0.83485  0.54101  1.0000
  C   C1131     1.0  0.41424  0.83986  0.51985  1.0000
  C   C1132     1.0  0.40997  0.82688  0.51249  1.0000
  C   C1133     1.0  0.40646  0.80900  0.52635  1.0000
  C   C1134     1.0  0.40766  0.80370  0.54721  1.0000
  C   C1135     1.0  0.41190  0.81659  0.55457  1.0000
  H   H1363     1.0  0.41679  0.85384  0.50918  1.0000
  H   H1364     1.0  0.40925  0.83093  0.49626  1.0000
  H   H1365     1.0  0.40521  0.78961  0.55779  1.0000
  H   H1366     1.0  0.41276  0.81226  0.57076  1.0000
  C   C1136     1.0  0.44256  0.86276  0.42544  1.0000
  C   C1137     1.0  0.43403  0.85613  0.44122  1.0000
  C   C1138     1.0  0.42852  0.84225  0.43835  1.0000
  C   C1139     1.0  0.43135  0.83512  0.41948  1.0000
  C   C1140     1.0  0.43970  0.84218  0.40348  1.0000
  C   C1141     1.0  0.44528  0.85593  0.40642  1.0000
  H   H1367     1.0  0.43173  0.86149  0.45588  1.0000
  H   H1368     1.0  0.42222  0.83680  0.45093  1.0000
  H   H1369     1.0  0.44195  0.83681  0.38879  1.0000
  H   H1370     1.0  0.45183  0.86086  0.39412  1.0000
  C   C1142     1.0  0.38601  0.73718  0.51812  1.0000
  H   H1371     1.0  0.39928  0.73827  0.54060  1.0000
  H   H1372     1.0  0.27081  0.63570  0.32297  1.0000
  H   H1373     1.0  0.35095  0.77702  0.63883  1.0000
  H   H1374     1.0  0.33745  0.58019  0.58077  1.0000
  C   C1143     1.0  0.24925  0.55238  0.32995  1.0000
  H   H1375     1.0  0.43788  0.87594  0.62262  1.0000
  C   C1144     1.0  0.34810  0.84583  0.42019  1.0000
  C   C1145     1.0  0.34491  0.85816  0.43554  1.0000
  C   C1146     1.0  0.35254  0.86158  0.44425  1.0000
  C   C1147     1.0  0.36332  0.85214  0.43808  1.0000
  C   C1148     1.0  0.36645  0.83932  0.42317  1.0000
  C   C1149     1.0  0.35887  0.83641  0.41402  1.0000
  H   H1376     1.0  0.33660  0.86559  0.44026  1.0000
  H   H1377     1.0  0.35006  0.87154  0.45576  1.0000
  H   H1378     1.0  0.37475  0.83220  0.41814  1.0000
  H   H1379     1.0  0.36136  0.82694  0.40210  1.0000
  C   C1150     1.0  0.36159  0.90447  0.61227  1.0000
  C   C1151     1.0  0.36545  0.91826  0.61917  1.0000
  C   C1152     1.0  0.37454  0.91067  0.62769  1.0000
  C   C1153     1.0  0.38001  0.88936  0.62880  1.0000
  C   C1154     1.0  0.37624  0.87548  0.62173  1.0000
  C   C1155     1.0  0.36695  0.88299  0.61364  1.0000
  H   H1380     1.0  0.38026  0.85884  0.62313  1.0000
  H   H1381     1.0  0.36401  0.87223  0.60835  1.0000
  C   C1156     1.0  0.33245  0.86597  0.52646  1.0000
  C   C1157     1.0  0.32205  0.87400  0.53650  1.0000
  C   C1158     1.0  0.31367  0.87835  0.52624  1.0000
  C   C1159     1.0  0.31565  0.87458  0.50597  1.0000
  C   C1160     1.0  0.32610  0.86700  0.49567  1.0000
  C   C1161     1.0  0.33452  0.86278  0.50590  1.0000
  H   H1382     1.0  0.32040  0.87674  0.55226  1.0000
  H   H1383     1.0  0.30561  0.88440  0.53416  1.0000
  H   H1384     1.0  0.32770  0.86453  0.47982  1.0000
  H   H1385     1.0  0.34261  0.85695  0.49794  1.0000
  C   C1162     1.0  0.27465  0.84034  0.37882  1.0000
  C   C1163     1.0  0.26858  0.86019  0.38265  1.0000
  C   C1164     1.0  0.27191  0.87109  0.39392  1.0000
  C   C1165     1.0  0.28130  0.86219  0.40140  1.0000
  C   C1166     1.0  0.28749  0.84254  0.39716  1.0000
  C   C1167     1.0  0.28413  0.83158  0.38600  1.0000
  H   H1386     1.0  0.26120  0.86694  0.37734  1.0000
  H   H1387     1.0  0.26710  0.88631  0.39715  1.0000
  H   H1388     1.0  0.29486  0.83577  0.40242  1.0000
  H   H1389     1.0  0.28890  0.81627  0.38293  1.0000
  C   C1168     1.0  0.30573  0.64595  0.37321  1.0000
  C   C1169     1.0  0.37627  0.71756  0.42086  1.0000
  C   C1170     1.0  0.38303  0.73207  0.41116  1.0000
  C   C1171     1.0  0.38596  0.74296  0.42322  1.0000
  C   C1172     1.0  0.38222  0.73918  0.44514  1.0000
  C   C1173     1.0  0.37557  0.72449  0.45482  1.0000
  C   C1174     1.0  0.37260  0.71376  0.44277  1.0000
  H   H1390     1.0  0.38592  0.73512  0.39420  1.0000
  H   H1391     1.0  0.39109  0.75422  0.41557  1.0000
  H   H1392     1.0  0.37263  0.72154  0.47176  1.0000
  H   H1393     1.0  0.36743  0.70258  0.45044  1.0000
  C   C1175     1.0  0.31702  0.73936  0.43326  1.0000
  C   C1176     1.0  0.31224  0.76084  0.42670  1.0000
  C   C1177     1.0  0.30945  0.77487  0.44043  1.0000
  C   C1178     1.0  0.31134  0.76744  0.46082  1.0000
  C   C1179     1.0  0.31585  0.74580  0.46760  1.0000
  C   C1180     1.0  0.31877  0.73180  0.45377  1.0000
  H   H1394     1.0  0.31073  0.76665  0.41095  1.0000
  H   H1395     1.0  0.30560  0.79126  0.43530  1.0000
  H   H1396     1.0  0.31718  0.73987  0.48348  1.0000
  H   H1397     1.0  0.32216  0.71505  0.45914  1.0000
  C   C1181     1.0  0.39070  0.74412  0.59881  1.0000
  C   C1182     1.0  0.38491  0.74657  0.61903  1.0000
  C   C1183     1.0  0.38819  0.75781  0.63021  1.0000
  C   C1184     1.0  0.39714  0.76714  0.62116  1.0000
  C   C1185     1.0  0.40283  0.76494  0.60083  1.0000
  C   C1186     1.0  0.39965  0.75342  0.58979  1.0000
  H   H1398     1.0  0.37804  0.73942  0.62624  1.0000
  H   H1399     1.0  0.28487  0.65315  0.36840  1.0000
  H   H1400     1.0  0.32639  0.61818  0.57437  1.0000
  H   H1401     1.0  0.40423  0.75149  0.57423  1.0000
  C   C1187     1.0  0.36084  0.68458  0.51823  1.0000
  C   C1188     1.0  0.35121  0.67922  0.53027  1.0000
  C   C1189     1.0  0.34558  0.66962  0.52196  1.0000
  C   C1190     1.0  0.34954  0.66545  0.50163  1.0000
  C   C1191     1.0  0.35906  0.67118  0.48950  1.0000
  C   C1192     1.0  0.36472  0.68058  0.49784  1.0000
  H   H1402     1.0  0.34817  0.68221  0.54602  1.0000
  H   H1403     1.0  0.33815  0.66550  0.53123  1.0000
  H   H1404     1.0  0.36219  0.66789  0.47385  1.0000
  H   H1405     1.0  0.37222  0.68441  0.48858  1.0000
  C   C1193     1.0  0.33509  0.76738  0.61224  1.0000
  C   C1194     1.0  0.34365  0.76416  0.62167  1.0000
  H   H1406     1.0  0.23884  0.92124  0.33147  1.0000
  S   S335      1.0  0.44887  0.94543  0.33748  1.0000
  H   H1407     1.0  0.29180  0.89188  0.36214  1.0000
  C   C1195     1.0  0.32707  0.78593  0.61308  1.0000
  S   S336      1.0  0.41108  0.82589  0.64672  1.0000
  H   H1408     1.0  0.32040  0.78849  0.60590  1.0000
  H   H1409     1.0  0.44609  0.90348  0.62674  1.0000
  C   C1196     1.0  0.32936  0.59433  0.40468  1.0000
  C   C1197     1.0  0.33511  0.60877  0.40580  1.0000
  C   C1198     1.0  0.34281  0.61584  0.38835  1.0000
  H   H1410     1.0  0.35176  0.57638  0.57468  1.0000
  C   C1199     1.0  0.40134  0.71634  0.49836  1.0000
  H   H1411     1.0  0.33378  0.61396  0.42034  1.0000
  H   H1412     1.0  0.45871  0.85130  0.47048  1.0000
  C   C1200     1.0  0.25990  0.55030  0.32987  1.0000
  C   C1201     1.0  0.45020  0.84501  0.52355  1.0000
  C   C1202     1.0  0.34919  0.63250  0.63501  1.0000
  H   H1413     1.0  0.32506  0.83820  0.34525  1.0000
  C   C1203     1.0  0.28919  0.63621  0.37238  1.0000
  C   C1204     1.0  0.44020  0.81370  0.51977  1.0000
  H   H1414     1.0  0.41518  0.73130  0.48901  1.0000
  H   H1415     1.0  0.38419  0.60461  0.45146  1.0000
  C   C1205     1.0  0.33522  0.78590  0.41548  1.0000
  Fe  Fe172     1.0  0.24133  0.87634  0.32829  1.0000
  H   H1416     1.0  0.34824  0.75069  0.47390  1.0000
  C   C1206     1.0  0.30629  0.87411  0.37045  1.0000
  H   H1417     1.0  0.38889  0.70006  0.50003  1.0000
  H   H1418     1.0  0.39234  0.64096  0.34828  1.0000
  S   S337      1.0  0.45229  0.93417  0.39450  1.0000
  N   N75       1.0  0.39861  0.88792  0.40864  1.0000
  C   C1207     1.0  0.38836  0.89644  0.40161  1.0000
  C   C1208     1.0  0.40228  0.86524  0.40670  1.0000
  C   C1209     1.0  0.39637  0.88866  0.43127  1.0000
  C   C1210     1.0  0.40703  0.89988  0.39635  1.0000
  C   C1211     1.0  0.41717  0.89392  0.40158  1.0000
  C   C1212     1.0  0.40554  0.91740  0.37894  1.0000
  C   C1213     1.0  0.42528  0.90483  0.39026  1.0000
  C   C1214     1.0  0.41375  0.92815  0.36765  1.0000
  C   C1215     1.0  0.42359  0.92188  0.37330  1.0000
  H   H1419     1.0  0.38931  0.89531  0.38502  1.0000
  H   H1420     1.0  0.38220  0.88717  0.41136  1.0000
  H   H1421     1.0  0.38498  0.91336  0.40313  1.0000
  H   H1422     1.0  0.40462  0.86392  0.38986  1.0000
  H   H1423     1.0  0.39598  0.85592  0.41492  1.0000
  H   H1424     1.0  0.40932  0.85694  0.41371  1.0000
  H   H1425     1.0  0.39412  0.90549  0.43331  1.0000
  H   H1426     1.0  0.38972  0.88065  0.44082  1.0000
  H   H1427     1.0  0.40333  0.88031  0.43854  1.0000
  H   H1428     1.0  0.41894  0.88065  0.41441  1.0000
  H   H1429     1.0  0.39815  0.92307  0.37365  1.0000
  C   C1216     1.0  0.28533  0.75782  0.41279  1.0000
  C   C1217     1.0  0.38892  0.65379  0.42585  1.0000
  C   C1218     1.0  0.30086  0.87158  0.33942  1.0000
  N   N76       1.0  0.36577  0.80119  0.56151  1.0000
  C   C1219     1.0  0.35415  0.80175  0.56690  1.0000
  C   C1220     1.0  0.36801  0.81732  0.54164  1.0000
  C   C1221     1.0  0.37145  0.77960  0.55772  1.0000
  C   C1222     1.0  0.36958  0.80561  0.57817  1.0000
  C   C1223     1.0  0.38046  0.80579  0.57523  1.0000
  C   C1224     1.0  0.36280  0.80949  0.59766  1.0000
  C   C1225     1.0  0.38432  0.80947  0.59085  1.0000
  C   C1226     1.0  0.36673  0.81324  0.61317  1.0000
  C   C1227     1.0  0.37749  0.81315  0.60980  1.0000
  H   H1430     1.0  0.35152  0.79865  0.55395  1.0000
  H   H1431     1.0  0.35196  0.78931  0.58121  1.0000
  H   H1432     1.0  0.34937  0.81777  0.56957  1.0000
  H   H1433     1.0  0.36445  0.83388  0.54427  1.0000
  H   H1434     1.0  0.36463  0.81547  0.52908  1.0000
  H   H1435     1.0  0.37669  0.81611  0.53503  1.0000
  H   H1436     1.0  0.37047  0.76722  0.57269  1.0000
  H   H1437     1.0  0.36848  0.77517  0.54601  1.0000
  H   H1438     1.0  0.38018  0.77837  0.55156  1.0000
  H   H1439     1.0  0.38610  0.80257  0.56096  1.0000
  H   H1440     1.0  0.35440  0.80979  0.60132  1.0000
  H   H1441     1.0  0.39273  0.80887  0.58851  1.0000
  C   C1228     1.0  0.44800  0.88716  0.63549  1.0000
  H   H1442     1.0  0.36716  0.65481  0.38755  1.0000
  H   H1443     1.0  0.26570  0.52639  0.37072  1.0000
  N   N77       1.0  0.38132  0.88200  0.55029  1.0000
  C   C1229     1.0  0.37418  0.89980  0.56005  1.0000
  C   C1230     1.0  0.38264  0.86257  0.56736  1.0000
  C   C1231     1.0  0.39183  0.88788  0.54083  1.0000
  C   C1232     1.0  0.37721  0.87747  0.53408  1.0000
  C   C1233     1.0  0.36704  0.88806  0.52955  1.0000
  C   C1234     1.0  0.38335  0.86156  0.52261  1.0000
  C   C1235     1.0  0.36345  0.88321  0.51418  1.0000
  C   C1236     1.0  0.37970  0.85692  0.50721  1.0000
  C   C1237     1.0  0.36975  0.86772  0.50302  1.0000
  H   H1444     1.0  0.36630  0.89596  0.56863  1.0000
  H   H1445     1.0  0.37753  0.90314  0.57191  1.0000
  H   H1446     1.0  0.37286  0.91501  0.54808  1.0000
  H   H1447     1.0  0.37503  0.85699  0.57431  1.0000
  H   H1448     1.0  0.38525  0.86563  0.58034  1.0000
  H   H1449     1.0  0.38879  0.84908  0.56169  1.0000
  H   H1450     1.0  0.39131  0.90187  0.52727  1.0000
  H   H1451     1.0  0.39496  0.89203  0.55255  1.0000
  H   H1452     1.0  0.39805  0.87456  0.53510  1.0000
  H   H1453     1.0  0.36161  0.89996  0.53781  1.0000
  H   H1454     1.0  0.39097  0.85242  0.52571  1.0000
  H   H1455     1.0  0.35558  0.89114  0.51125  1.0000
  H   H1456     1.0  0.38452  0.84460  0.49875  1.0000
  H   H1457     1.0  0.36680  0.86386  0.49138  1.0000
  N   N78       1.0  0.32656  0.79382  0.53124  1.0000
  C   C1238     1.0  0.32241  0.81735  0.52843  1.0000
  C   C1239     1.0  0.31972  0.78510  0.52325  1.0000
  C   C1240     1.0  0.32547  0.78482  0.55428  1.0000
  C   C1241     1.0  0.33778  0.78777  0.51996  1.0000
  C   C1242     1.0  0.34325  0.76594  0.52278  1.0000
  C   C1243     1.0  0.34346  0.80298  0.50539  1.0000
  C   C1244     1.0  0.35378  0.75979  0.51206  1.0000
  C   C1245     1.0  0.35399  0.79666  0.49474  1.0000
  C   C1246     1.0  0.35914  0.77513  0.49811  1.0000
  H   H1458     1.0  0.32206  0.82519  0.51172  1.0000
  H   H1459     1.0  0.31410  0.82151  0.53765  1.0000
  H   H1460     1.0  0.32733  0.82499  0.53381  1.0000
  H   H1461     1.0  0.32042  0.79131  0.50591  1.0000
  H   H1462     1.0  0.31115  0.78965  0.53092  1.0000
  H   H1463     1.0  0.32185  0.76732  0.52607  1.0000
  H   H1464     1.0  0.32697  0.76704  0.55835  1.0000
  H   H1465     1.0  0.33113  0.78962  0.56059  1.0000
  H   H1466     1.0  0.31731  0.79034  0.56341  1.0000
  H   H1467     1.0  0.33940  0.75337  0.53323  1.0000
  H   H1468     1.0  0.33993  0.81986  0.50179  1.0000
  H   H1469     1.0  0.35779  0.74298  0.51452  1.0000
  H   H1470     1.0  0.35816  0.80858  0.48365  1.0000
  H   H1471     1.0  0.36728  0.77029  0.48976  1.0000
  H   H1472     1.0  0.43229  0.78194  0.49782  1.0000
  N   N79       1.0  0.27323  0.80410  0.45253  1.0000
  C   C1247     1.0  0.26785  0.79399  0.47386  1.0000
  C   C1248     1.0  0.28234  0.81148  0.45454  1.0000
  C   C1249     1.0  0.26553  0.82340  0.44438  1.0000
  C   C1250     1.0  0.27714  0.78828  0.43886  1.0000
  C   C1251     1.0  0.28454  0.76896  0.44454  1.0000
  C   C1252     1.0  0.27386  0.79145  0.41969  1.0000
  C   C1253     1.0  0.28849  0.75395  0.43171  1.0000
  C   C1254     1.0  0.27800  0.77649  0.40684  1.0000
  C   C1255     1.0  0.30280  0.64146  0.34093  1.0000
  H   H1473     1.0  0.27341  0.78068  0.48200  1.0000
  H   H1474     1.0  0.26445  0.80568  0.48434  1.0000
  H   H1475     1.0  0.26125  0.78733  0.47293  1.0000
  H   H1476     1.0  0.28798  0.79839  0.46269  1.0000
  H   H1477     1.0  0.27967  0.82423  0.46381  1.0000
  H   H1478     1.0  0.28695  0.81819  0.43878  1.0000
  H   H1479     1.0  0.26918  0.83215  0.42861  1.0000
  H   H1480     1.0  0.25827  0.81919  0.44311  1.0000
  H   H1481     1.0  0.26286  0.83515  0.45480  1.0000
  H   H1482     1.0  0.28752  0.76549  0.45873  1.0000
  H   H1483     1.0  0.26828  0.80557  0.41392  1.0000
  H   H1484     1.0  0.28675  0.85027  0.33840  1.0000
  C   C1256     1.0  0.45932  0.84670  0.48733  1.0000
  H   H1485     1.0  0.35090  0.86741  0.64375  1.0000
  H   H1486     1.0  0.35820  0.78887  0.42454  1.0000
  C   C1257     1.0  0.33191  0.78429  0.39817  1.0000
  C   C1258     1.0  0.29967  0.65898  0.38786  1.0000
  H   H1487     1.0  0.33154  0.80021  0.42154  1.0000
  H   H1488     1.0  0.38879  0.66832  0.39371  1.0000
  C   C1259     1.0  0.33627  0.76636  0.38928  1.0000
  C   C1260     1.0  0.41481  0.71680  0.46509  1.0000
  H   H1489     1.0  0.26046  0.54686  0.63682  1.0000
  S   S338      1.0  0.30176  0.55444  0.37228  1.0000
  C   C1261     1.0  0.33336  0.60999  0.63893  1.0000
  H   H1490     1.0  0.35031  0.61421  0.35597  1.0000
  C   C1262     1.0  0.29702  0.90955  0.63692  1.0000
  H   H1491     1.0  0.34247  0.78776  0.46794  1.0000
  C   C1263     1.0  0.40307  0.73393  0.52497  1.0000
  H   H1492     1.0  0.41109  0.72379  0.52628  1.0000
  H   H1493     1.0  0.40396  0.74933  0.51353  1.0000
  H   H1494     1.0  0.37676  0.64349  0.55780  1.0000
  H   H1495     1.0  0.29984  0.67989  0.40722  1.0000
  C   C1264     1.0  0.38042  0.61852  0.37886  1.0000
  Fe  Fe173     1.0  0.46820  0.94067  0.39257  1.0000
  C   C1265     1.0  0.30579  0.61076  0.36920  1.0000
  S   S339      1.0  0.32886  0.88079  0.62699  1.0000
  C   C1266     1.0  0.29036  0.85929  0.32275  1.0000
  S   S340      1.0  0.40121  0.78052  0.63614  1.0000
  H   H1496     1.0  0.36135  0.93488  0.61807  1.0000
  C   C1267     1.0  0.39630  0.70450  0.49096  1.0000
  H   H1497     1.0  0.28586  0.62682  0.36534  1.0000
  C   C1268     1.0  0.48328  0.97414  0.39420  1.0000
  C   C1269     1.0  0.34050  0.64246  0.62556  1.0000
  C   C1270     1.0  0.33258  0.63133  0.62771  1.0000
  H   H1498     1.0  0.33980  0.65882  0.61677  1.0000
  H   H1499     1.0  0.32584  0.63931  0.62050  1.0000
  S   S341      1.0  0.32407  0.56765  0.38621  1.0000
  H   H1500     1.0  0.38678  0.75181  0.50539  1.0000
  C   C1271     1.0  0.27142  0.51149  0.37382  1.0000
  H   H1501     1.0  0.40281  0.69138  0.53625  1.0000
  N   N80       1.0  0.29346  0.87826  0.32487  1.0000
  N   N81       1.0  0.39656  0.72262  0.51894  1.0000
  S   S342      1.0  0.47424  0.93919  0.35865  1.0000
  C   C1272     1.0  0.34438  0.60887  0.36958  1.0000
  H   H1502     1.0  0.30187  0.60101  0.36392  1.0000
  H   H1503     1.0  0.29432  0.73951  0.43616  1.0000
  H   H1504     1.0  0.32367  0.58848  0.41849  1.0000
  H   H1505     1.0  0.38218  0.74226  0.53335  1.0000
  C   C1273     1.0  0.33845  0.59482  0.36831  1.0000
  S   S343      1.0  0.32422  0.52578  0.35129  1.0000
  C   C1274     1.0  0.34617  0.75007  0.45924  1.0000
  H   H1506     1.0  0.29952  0.65897  0.33645  1.0000
  C   C1275     1.0  0.41083  0.72217  0.48487  1.0000
  C   C1276     1.0  0.44480  0.82749  0.50133  1.0000
  H   H1507     1.0  0.39208  0.70727  0.55175  1.0000
  C   C1277     1.0  0.39514  0.70328  0.53590  1.0000
  H   H1508     1.0  0.42994  0.93018  0.36445  1.0000
  H   H1509     1.0  0.37881  0.62025  0.36307  1.0000
  C   C1278     1.0  0.44042  0.80739  0.48041  1.0000
  H   H1510     1.0  0.33807  0.74651  0.46357  1.0000
  C   C1279     1.0  0.44114  0.86595  0.49600  1.0000
  C   C1280     1.0  0.33102  0.58713  0.38601  1.0000
  H   H1511     1.0  0.38928  0.69525  0.53410  1.0000
  C   C1281     1.0  0.34302  0.76939  0.42448  1.0000
  Fe  Fe174     1.0  0.48031  0.90426  0.37054  1.0000
  S   S344      1.0  0.30107  0.90178  0.61254  1.0000
  H   H1512     1.0  0.33523  0.59925  0.54654  1.0000
  H   H1513     1.0  0.34365  0.58883  0.59602  1.0000
  H   H1514     1.0  0.34770  0.73645  0.39016  1.0000
  H   H1515     1.0  0.33990  0.58932  0.35390  1.0000
  H   H1516     1.0  0.36087  0.77363  0.44977  1.0000
  C   C1282     1.0  0.39323  0.64083  0.36424  1.0000
  H   H1517     1.0  0.33019  0.65510  0.37072  1.0000
  H   H1518     1.0  0.33141  0.78700  0.45825  1.0000
  H   H1519     1.0  0.28081  0.90669  0.64179  1.0000
  H   H1520     1.0  0.43948  0.81566  0.53550  1.0000
  C   C1283     1.0  0.40037  0.69914  0.47121  1.0000
  S   S345      1.0  0.28730  0.60103  0.33460  1.0000
  H   H1521     1.0  0.33346  0.76481  0.37630  1.0000
  C   C1284     1.0  0.32774  0.80140  0.62289  1.0000
  H   H1522     1.0  0.31143  0.63840  0.33333  1.0000
  S   S346      1.0  0.47022  0.96973  0.40116  1.0000
  H   H1523     1.0  0.41252  0.94140  0.35435  1.0000
  C   C1285     1.0  0.31550  0.66879  0.38974  1.0000
  C   C1286     1.0  0.24619  0.53690  0.32398  1.0000
  H   H1524     1.0  0.44527  0.98111  0.36146  1.0000
  H   H1525     1.0  0.34938  0.59486  0.53715  1.0000
  H   H1526     1.0  0.39611  0.69087  0.46564  1.0000
  H   H1527     1.0  0.44243  0.84701  0.53513  1.0000
  H   H1528     1.0  0.42188  0.72194  0.45480  1.0000
  N   N82       1.0  0.34658  0.77034  0.44307  1.0000
  C   C1287     1.0  0.40957  0.70542  0.45823  1.0000
  C   C1288     1.0  0.33995  0.78805  0.45348  1.0000
  H   H1529     1.0  0.32127  0.85412  0.37634  1.0000
  H   H1530     1.0  0.38379  0.75914  0.64601  1.0000
  H   H1531     1.0  0.34066  0.80401  0.44299  1.0000
  H   H1532     1.0  0.35397  0.73915  0.41966  1.0000
  C   C1289     1.0  0.31052  0.85624  0.33537  1.0000
  N   N83       1.0  0.38339  0.63788  0.38052  1.0000
  C   C1290     1.0  0.35767  0.77346  0.43625  1.0000
  H   H1533     1.0  0.26219  0.56216  0.33499  1.0000
  H   H1534     1.0  0.41251  0.70184  0.44266  1.0000
  C   C1291     1.0  0.34765  0.75186  0.41438  1.0000
  N   N84       1.0  0.34350  0.60882  0.56464  1.0000
  H   H1535     1.0  0.36546  0.63202  0.59282  1.0000
  H   H1536     1.0  0.40982  0.77171  0.59380  1.0000
  H   H1537     1.0  0.36313  0.76056  0.42854  1.0000
  H   H1538     1.0  0.43218  0.78736  0.53266  1.0000
  H   H1539     1.0  0.46193  0.98912  0.36059  1.0000
  H   H1540     1.0  0.33357  0.62519  0.58910  1.0000
  C   C1292     1.0  0.33374  0.62371  0.57305  1.0000
  C   C1293     1.0  0.34231  0.60598  0.54438  1.0000
  C   C1294     1.0  0.35538  0.62041  0.58051  1.0000
  C   C1295     1.0  0.43590  0.79730  0.51838  1.0000
  H   H1541     1.0  0.37326  0.63803  0.52581  1.0000
  C   C1296     1.0  0.35296  0.61745  0.56245  1.0000
  H   H1542     1.0  0.33315  0.64007  0.56277  1.0000
  H   H1543     1.0  0.34113  0.62158  0.53278  1.0000
  C   C1297     1.0  0.37033  0.63586  0.55914  1.0000
  C   C1298     1.0  0.36391  0.62955  0.57881  1.0000
  S   S347      1.0  0.32381  0.59606  0.63902  1.0000
  H   H1544     1.0  0.27896  0.88645  0.34761  1.0000
  H   H1545     1.0  0.29116  0.66073  0.39344  1.0000
  S   S348      1.0  0.31691  0.57618  0.32872  1.0000
  H   H1546     1.0  0.43312  0.86592  0.50669  1.0000
  C   C1299     1.0  0.36837  0.63269  0.54114  1.0000
  H   H1547     1.0  0.44372  0.88028  0.49665  1.0000
  H   H1548     1.0  0.38061  0.81551  0.62201  1.0000
  S   S349      1.0  0.24537  0.84051  0.33901  1.0000
  C   C1300     1.0  0.35981  0.62368  0.54263  1.0000
  H   H1549     1.0  0.35855  0.62247  0.52790  1.0000
  H   H1550     1.0  0.46499  0.83094  0.48980  1.0000
  C   C1301     1.0  0.45512  0.88189  0.64901  1.0000
  H   H1551     1.0  0.31240  0.83727  0.64873  1.0000
  S   S350      1.0  0.33782  0.81881  0.64213  1.0000
  H   H1552     1.0  0.44795  0.83376  0.46690  1.0000
  H   H1553     1.0  0.45380  0.85824  0.52360  1.0000
  C   C1302     1.0  0.34422  0.75030  0.39722  1.0000
  H   H1554     1.0  0.32153  0.81567  0.62331  1.0000
  H   H1555     1.0  0.28866  0.74642  0.40262  1.0000
  H   H1556     1.0  0.39534  0.65628  0.36294  1.0000
  H   H1557     1.0  0.32577  0.79688  0.39191  1.0000
  C   C1303     1.0  0.31565  0.85894  0.36609  1.0000
  H   H1558     1.0  0.27561  0.77966  0.39195  1.0000
  C   C1304     1.0  0.31688  0.64492  0.36726  1.0000
  C   C1305     1.0  0.44333  0.87153  0.63307  1.0000
  Fe  Fe175     1.0  0.31890  0.55761  0.36124  1.0000
  C   C1306     1.0  0.31775  0.84999  0.34859  1.0000
  C   C1307     1.0  0.44480  0.82374  0.48161  1.0000
  H   H1559     1.0  0.24334  0.56595  0.33481  1.0000
  H   H1560     1.0  0.29902  0.63307  0.33371  1.0000
  H   H1561     1.0  0.43298  0.89997  0.39456  1.0000
  H   H1562     1.0  0.31927  0.67738  0.39614  1.0000
  S   S351      1.0  0.25622  0.88150  0.33370  1.0000
  H   H1563     1.0  0.37635  0.67203  0.37531  1.0000
  N   N85       1.0  0.44883  0.84585  0.50219  1.0000
  Fe  Fe176     1.0  0.30694  0.52455  0.35963  1.0000
  H   H1564     1.0  0.32204  0.63513  0.35645  1.0000
  C   C1308     1.0  0.34420  0.77944  0.63190  1.0000
  H   H1565     1.0  0.30462  0.88090  0.38423  1.0000
  H   H1566     1.0  0.44021  0.86826  0.47958  1.0000
  H   H1567     1.0  0.30527  0.60463  0.38649  1.0000
  C   C1309     1.0  0.38516  0.63656  0.40161  1.0000
  C   C1310     1.0  0.30455  0.67015  0.39596  1.0000
  C   C1311     1.0  0.33634  0.79829  0.63215  1.0000
  C   C1312     1.0  0.37465  0.65647  0.37559  1.0000
  H   H1568     1.0  0.36140  0.81600  0.62795  1.0000
  H   H1569     1.0  0.28721  0.63005  0.38978  1.0000
  C   C1313     1.0  0.32164  0.65626  0.37537  1.0000
  C   C1314     1.0  0.43593  0.79425  0.49877  1.0000
  C   C1315     1.0  0.38531  0.61832  0.43859  1.0000
  H   H1570     1.0  0.39048  0.66781  0.42876  1.0000
  H   H1571     1.0  0.37292  0.61567  0.39046  1.0000
  N   N86       1.0  0.30088  0.63391  0.36422  1.0000
  C   C1316     1.0  0.29896  0.88037  0.35744  1.0000
  H   H1572     1.0  0.38204  0.60444  0.41707  1.0000
  H   H1573     1.0  0.46299  0.85903  0.48922  1.0000
  H   H1574     1.0  0.44033  0.80516  0.46512  1.0000
  H   H1575     1.0  0.40012  0.62773  0.36796  1.0000
  S   S352      1.0  0.30356  0.54117  0.32768  1.0000
  Fe  Fe177     1.0  0.30014  0.57137  0.33933  1.0000
  S   S353      1.0  0.39108  0.88025  0.64042  1.0000
  C   C1317     1.0  0.28205  0.51178  0.37245  1.0000
  H   H1576     1.0  0.31434  0.60714  0.36128  1.0000
  C   C1318     1.0  0.38786  0.65398  0.40578  1.0000
  C   C1319     1.0  0.38409  0.61846  0.41861  1.0000
  H   H1577     1.0  0.38824  0.63612  0.45790  1.0000
  H   H1578     1.0  0.31222  0.91513  0.63626  1.0000
  H   H1579     1.0  0.33625  0.68322  0.65164  1.0000
  H   H1580     1.0  0.27571  0.53194  0.32391  1.0000
  C   C1320     1.0  0.26759  0.53298  0.32334  1.0000
  C   C1321     1.0  0.28656  0.90966  0.64859  1.0000
  C   C1322     1.0  0.34194  0.60007  0.64873  1.0000
  H   H1581     1.0  0.37739  0.92140  0.63326  1.0000
  C   C1323     1.0  0.30434  0.91390  0.64560  1.0000
  H   H1582     1.0  0.28510  0.90880  0.33275  1.0000
  C   C1324     1.0  0.44586  0.85021  0.64388  1.0000
  H   H1583     1.0  0.47894  0.99264  0.34755  1.0000
  S   S354      1.0  0.44043  0.82958  0.64103  1.0000
  H   H1584     1.0  0.31846  0.68333  0.64750  1.0000
  C   C1325     1.0  0.28348  0.89354  0.33190  1.0000
  H   H1585     1.0  0.24253  0.97480  0.65093  1.0000
  H   H1586     1.0  0.29577  0.86348  0.65016  1.0000
  C   C1326     1.0  0.34980  0.61135  0.64685  1.0000
  S   S355      1.0  0.46080  0.90247  0.65122  1.0000
  C   C1327     1.0  0.48519  0.99289  0.39685  1.0000
  H   H1587     1.0  0.48480  0.90372  0.32548  1.0000
  H   H1588     1.0  0.23788  0.53845  0.32418  1.0000
  H   H1589     1.0  0.35648  0.60354  0.65426  1.0000
  H   H1590     1.0  0.29854  0.51577  0.65174  1.0000
  C   C1328     1.0  0.25682  0.54871  0.65287  1.0000
  H   H1591     1.0  0.26582  0.57149  0.65151  1.0000
  H   H1592     1.0  0.31257  0.84899  0.32188  1.0000
  C   C1329     1.0  0.41495  0.87539  0.67075  1.0000
  Fe  Fe178     1.0  0.47856  0.94087  0.68320  1.0000
  Fe  Fe179     1.0  0.25159  0.53493  0.80465  1.0000
  S   S356      1.0  0.25651  0.55163  0.77093  1.0000
  S   S357      1.0  0.30324  0.57377  0.68472  1.0000
  C   C1330     1.0  0.26265  0.97641  0.80319  1.0000
  H   H1593     1.0  0.47741  0.89177  0.83811  1.0000
  S   S358      1.0  0.32727  0.54838  0.69137  1.0000
  C   C1331     1.0  0.36048  0.83929  0.67278  1.0000
  H   H1594     1.0  0.41103  0.86751  0.66393  1.0000
  Fe  Fe180     1.0  0.31061  0.55277  0.71124  1.0000
  S   S359      1.0  0.30459  0.56065  0.74330  1.0000
  H   H1595     1.0  0.28990  0.55769  0.72061  1.0000
  H   H1596     1.0  0.24100  0.83628  0.76729  1.0000
  Fe  Fe181     1.0  0.25267  0.92867  0.75271  1.0000
  C   C1332     1.0  0.26908  0.88663  0.81375  1.0000
  S   S360      1.0  0.48153  0.97451  0.67510  1.0000
  Fe  Fe182     1.0  0.27211  0.90995  0.72279  1.0000
  S   S361      1.0  0.26481  0.88412  0.72089  1.0000
  S   S362      1.0  0.28867  0.91381  0.70587  1.0000
  Fe  Fe183     1.0  0.25016  0.91023  0.71888  1.0000
  H   H1597     1.0  0.43921  0.91978  0.66392  1.0000
  Fe  Fe184     1.0  0.25896  0.88095  0.75592  1.0000
  H   H1598     1.0  0.31834  0.58712  0.70953  1.0000
  S   S363      1.0  0.25795  0.93639  0.71759  1.0000
  S   S364      1.0  0.26754  0.90452  0.75814  1.0000
  C   C1333     1.0  0.42907  0.87407  0.68743  1.0000
  H   H1599     1.0  0.37468  0.85221  0.66818  1.0000
  H   H1600     1.0  0.44680  0.88731  0.69053  1.0000
  C   C1334     1.0  0.41651  0.90748  0.67899  1.0000
  H   H1601     1.0  0.35015  0.89184  0.67772  1.0000
  H   H1602     1.0  0.27797  0.99298  0.91255  1.0000
  C   C1335     1.0  0.46436  0.98045  0.90957  1.0000
  H   H1603     1.0  0.30497  0.81729  0.66321  1.0000
  C   C1336     1.0  0.48465  0.98159  0.74717  1.0000
  S   S365      1.0  0.46189  0.93702  0.68723  1.0000
  H   H1604     1.0  0.36167  0.88226  0.65940  1.0000
  H   H1605     1.0  0.26046  0.98096  0.69126  1.0000
  Fe  Fe185     1.0  0.46380  0.91683  0.71893  1.0000
  S   S366      1.0  0.45022  0.92087  0.74695  1.0000
  C   C1337     1.0  0.25179  0.98513  0.80476  1.0000
  S   S367      1.0  0.46906  0.98716  0.80795  1.0000
  H   H1606     1.0  0.46274  0.97162  0.77084  1.0000
  C   C1338     1.0  0.33127  0.63928  0.68973  1.0000
  H   H1607     1.0  0.45368  0.97694  0.95047  1.0000
  H   H1608     1.0  0.30182  0.99462  0.94973  1.0000
  H   H1609     1.0  0.46656  0.99363  0.73032  1.0000
  C   C1339     1.0  0.28823  0.81606  0.74198  1.0000
  H   H1610     1.0  0.23995  0.52747  0.69594  1.0000
  C   C1340     1.0  0.37157  0.83846  0.66925  1.0000
  S   S368      1.0  0.46394  0.95739  0.86814  1.0000
  C   C1341     1.0  0.32107  0.63864  0.68774  1.0000
  S   S369      1.0  0.23941  0.91466  0.69728  1.0000
  C   C1342     1.0  0.32224  0.60024  0.69903  1.0000
  H   H1611     1.0  0.24124  0.88395  0.85583  1.0000
  C   C1343     1.0  0.44573  0.97954  0.77416  1.0000
  H   H1612     1.0  0.41345  0.92440  0.67837  1.0000
  S   S370      1.0  0.46991  0.88610  0.70744  1.0000
  H   H1613     1.0  0.44095  0.97818  0.94504  1.0000
  C   C1344     1.0  0.44877  0.94363  0.75691  1.0000
  C   C1345     1.0  0.45755  0.94955  0.75951  1.0000
  H   H1614     1.0  0.33889  0.86872  0.70069  1.0000
  S   S371      1.0  0.27148  0.49967  0.86253  1.0000
  C   C1346     1.0  0.43703  0.97361  0.77136  1.0000
  C   C1347     1.0  0.43852  0.95549  0.76325  1.0000
  H   H1615     1.0  0.46546  0.94018  0.75499  1.0000
  C   C1348     1.0  0.30909  0.82890  0.66502  1.0000
  H   H1616     1.0  0.30161  0.52240  0.80012  1.0000
  H   H1617     1.0  0.43170  0.95096  0.76142  1.0000
  Fe  Fe186     1.0  0.32337  0.51986  0.68563  1.0000
  H   H1618     1.0  0.45196  0.90511  0.81982  1.0000
  H   H1619     1.0  0.38177  0.78629  0.66617  1.0000
  C   C1349     1.0  0.44973  0.97477  0.93890  1.0000
  S   S372      1.0  0.26095  0.98765  0.87790  1.0000
  H   H1620     1.0  0.44469  0.90320  0.70924  1.0000
  C   C1350     1.0  0.24105  0.93575  0.85332  1.0000
  C   C1351     1.0  0.30954  0.51586  0.79071  1.0000
  S   S373      1.0  0.25122  0.54316  0.83489  1.0000
  N   N87       1.0  0.46761  0.91077  0.81592  1.0000
  C   C1352     1.0  0.24863  0.53343  0.73093  1.0000
  C   C1353     1.0  0.29065  0.84723  0.71396  1.0000
  H   H1621     1.0  0.31608  0.81992  0.67207  1.0000
  H   H1622     1.0  0.30284  0.87309  0.68545  1.0000
  H   H1623     1.0  0.25513  0.97801  0.72885  1.0000
  H   H1624     1.0  0.30350  0.51510  0.75629  1.0000
  H   H1625     1.0  0.27152  0.87305  0.80621  1.0000
  C   C1354     1.0  0.44070  0.89405  0.70333  1.0000
  C   C1355     1.0  0.42561  0.89629  0.68749  1.0000
  H   H1626     1.0  0.47818  0.99353  0.70896  1.0000
  C   C1356     1.0  0.29132  0.91491  0.67871  1.0000
  C   C1357     1.0  0.46895  0.89677  0.83674  1.0000
  C   C1358     1.0  0.48429  0.87537  0.76714  1.0000
  H   H1627     1.0  0.31100  0.86826  0.66093  1.0000
  Fe  Fe187     1.0  0.25851  0.50829  0.84468  1.0000
  C   C1359     1.0  0.28371  0.91224  0.66954  1.0000
  C   C1360     1.0  0.27324  0.91589  0.82228  1.0000
  H   H1628     1.0  0.38754  0.81914  0.66403  1.0000
  H   H1629     1.0  0.27577  0.91133  0.67881  1.0000
  C   C1361     1.0  0.25119  0.96371  0.78154  1.0000
  C   C1362     1.0  0.25849  0.89245  0.82421  1.0000
  C   C1363     1.0  0.25241  0.97719  0.67009  1.0000
  H   H1630     1.0  0.25944  0.96702  0.66249  1.0000
  C   C1364     1.0  0.26795  0.96240  0.78961  1.0000
  C   C1365     1.0  0.26219  0.95590  0.77887  1.0000
  C   C1366     1.0  0.42378  0.91685  0.71344  1.0000
  C   C1367     1.0  0.34507  0.85423  0.69731  1.0000
  H   H1631     1.0  0.27642  0.95594  0.78803  1.0000
  H   H1632     1.0  0.26625  0.94459  0.76890  1.0000
  N   N88       1.0  0.31557  0.62158  0.70166  1.0000
  H   H1633     1.0  0.29345  0.50823  0.77886  1.0000
  H   H1634     1.0  0.28731  0.86832  0.67470  1.0000
  C   C1368     1.0  0.32193  0.67112  0.65954  1.0000
  C   C1369     1.0  0.47527  0.93710  0.86317  1.0000
  H   H1635     1.0  0.30893  0.65581  0.66914  1.0000
  H   H1636     1.0  0.41678  0.92881  0.70864  1.0000
  C   C1370     1.0  0.26986  0.55392  0.76401  1.0000
  C   C1371     1.0  0.27517  0.55441  0.77903  1.0000
  C   C1372     1.0  0.28579  0.55697  0.77272  1.0000
  C   C1373     1.0  0.29117  0.55831  0.75153  1.0000
  C   C1374     1.0  0.28590  0.55703  0.73686  1.0000
  C   C1375     1.0  0.27526  0.55520  0.74296  1.0000
  H   H1637     1.0  0.27100  0.55343  0.79538  1.0000
  H   H1638     1.0  0.28979  0.55792  0.78422  1.0000
  H   H1639     1.0  0.32130  0.61996  0.72918  1.0000
  H   H1640     1.0  0.27130  0.55459  0.73126  1.0000
  C   C1376     1.0  0.24952  0.53645  0.66557  1.0000
  N   N89       1.0  0.30177  0.84433  0.67767  1.0000
  Fe  Fe188     1.0  0.30109  0.54319  0.68027  1.0000
  C   C1377     1.0  0.33662  0.65526  0.67690  1.0000
  C   C1378     1.0  0.42374  0.86387  0.67925  1.0000
  H   H1641     1.0  0.45429  0.93017  0.80234  1.0000
  C   C1379     1.0  0.25440  0.83253  0.82031  1.0000
  H   H1642     1.0  0.28460  0.80921  0.75805  1.0000
  H   H1643     1.0  0.26071  0.93605  0.83916  1.0000
  H   H1644     1.0  0.24165  0.57255  0.74050  1.0000
  C   C1380     1.0  0.35751  0.82019  0.67321  1.0000
  C   C1381     1.0  0.45597  0.91857  0.81704  1.0000
  C   C1382     1.0  0.26262  0.92199  0.83260  1.0000
  Fe  Fe189     1.0  0.24415  0.98239  0.88964  1.0000
  C   C1383     1.0  0.45601  0.96724  0.76858  1.0000
  C   C1384     1.0  0.24291  0.98162  0.66349  1.0000
  H   H1645     1.0  0.46460  0.90504  0.84993  1.0000
  S   S374      1.0  0.24104  0.98764  0.85765  1.0000
  C   C1385     1.0  0.25539  0.56465  0.68206  1.0000
  H   H1646     1.0  0.28097  0.84840  0.74522  1.0000
  H   H1647     1.0  0.24565  0.53310  0.74815  1.0000
  C   C1386     1.0  0.43465  0.92564  0.67849  1.0000
  H   H1648     1.0  0.25311  0.88279  0.82461  1.0000
  H   H1649     1.0  0.42075  0.90397  0.72634  1.0000
  H   H1650     1.0  0.48077  0.92508  0.81304  1.0000
  H   H1651     1.0  0.46707  0.98748  0.89255  1.0000
  H   H1652     1.0  0.43863  0.88063  0.71665  1.0000
  H   H1653     1.0  0.34458  0.65500  0.67810  1.0000
  H   H1654     1.0  0.24226  0.58727  0.71364  1.0000
  H   H1655     1.0  0.36132  0.87396  0.68734  1.0000
  C   C1387     1.0  0.45296  0.84494  0.65745  1.0000
  H   H1656     1.0  0.24716  0.51895  0.72792  1.0000
  H   H1657     1.0  0.46299  0.85621  0.67052  1.0000
  S   S375      1.0  0.47983  0.92273  0.71607  1.0000
  S   S376      1.0  0.30756  0.52251  0.70810  1.0000
  H   H1658     1.0  0.25740  0.53201  0.72728  1.0000
  C   C1388     1.0  0.48403  0.94095  0.84668  1.0000
  C   C1389     1.0  0.37911  0.81950  0.66682  1.0000
  H   H1659     1.0  0.47951  0.96165  0.73236  1.0000
  H   H1660     1.0  0.31551  0.51229  0.80056  1.0000
  H   H1661     1.0  0.28808  0.84428  0.66682  1.0000
  H   H1662     1.0  0.28324  0.49763  0.71591  1.0000
  C   C1390     1.0  0.28312  0.51965  0.67287  1.0000
  H   H1663     1.0  0.27785  0.50144  0.76470  1.0000
  C   C1391     1.0  0.24781  0.55259  0.69539  1.0000
  C   C1392     1.0  0.29740  0.83430  0.69976  1.0000
  S   S377      1.0  0.24301  0.49781  0.85890  1.0000
  H   H1664     1.0  0.42782  0.92515  0.72024  1.0000
  H   H1665     1.0  0.30733  0.91908  0.67339  1.0000
  C   C1393     1.0  0.27171  0.50098  0.75671  1.0000
  H   H1666     1.0  0.46857  0.91346  0.88848  1.0000
  H   H1667     1.0  0.34071  0.84166  0.69879  1.0000
  H   H1668     1.0  0.44791  0.96868  0.90335  1.0000
  Fe  Fe190     1.0  0.31957  0.56706  0.66415  1.0000
  H   H1669     1.0  0.24284  0.95004  0.84085  1.0000
  H   H1670     1.0  0.25406  0.57045  0.72245  1.0000
  H   H1671     1.0  0.43807  0.99209  0.90893  1.0000
  H   H1672     1.0  0.32366  0.59851  0.68249  1.0000
  H   H1673     1.0  0.30596  0.62126  0.68086  1.0000
  C   C1394     1.0  0.30151  0.91651  0.66649  1.0000
  S   S378      1.0  0.26027  0.84891  0.77825  1.0000
  H   H1674     1.0  0.33530  0.62726  0.70103  1.0000
  C   C1395     1.0  0.31655  0.65509  0.67215  1.0000
  N   N90       1.0  0.24352  0.91656  0.84417  1.0000
  H   H1675     1.0  0.34927  0.81966  0.67534  1.0000
  S   S379      1.0  0.24357  0.95444  0.77014  1.0000
  H   H1676     1.0  0.42667  0.84702  0.67883  1.0000
  H   H1677     1.0  0.30930  0.61062  0.73492  1.0000
  H   H1678     1.0  0.46599  0.88190  0.83959  1.0000
  C   C1396     1.0  0.24605  0.97878  0.79401  1.0000
  H   H1679     1.0  0.46808  0.93931  0.82465  1.0000
  C   C1397     1.0  0.47320  0.89884  0.79899  1.0000
  H   H1680     1.0  0.30439  0.80062  0.69811  1.0000
  C   C1398     1.0  0.28618  0.83819  0.73472  1.0000
  H   H1681     1.0  0.33988  0.88064  0.66102  1.0000
  H   H1682     1.0  0.46631  0.96284  0.91047  1.0000
  H   H1683     1.0  0.31149  0.52910  0.77714  1.0000
  C   C1399     1.0  0.32505  0.50113  0.75334  1.0000
  H   H1684     1.0  0.34116  0.85313  0.66111  1.0000
  C   C1400     1.0  0.30508  0.62288  0.69731  1.0000
  C   C1401     1.0  0.25177  0.84891  0.80332  1.0000
  H   H1685     1.0  0.29942  0.63817  0.69982  1.0000
  Fe  Fe191     1.0  0.46914  0.90663  0.67504  1.0000
  H   H1686     1.0  0.32101  0.51732  0.74750  1.0000
  H   H1687     1.0  0.45205  0.95746  0.93839  1.0000
  N   N91       1.0  0.45282  0.98854  0.91774  1.0000
  C   C1402     1.0  0.36512  0.80134  0.67081  1.0000
  H   H1688     1.0  0.45501  0.82853  0.66589  1.0000
  H   H1689     1.0  0.46932  0.98387  0.91853  1.0000
  C   C1403     1.0  0.24544  0.57178  0.72370  1.0000
  S   S380      1.0  0.28441  0.54131  0.68131  1.0000
  C   C1404     1.0  0.34575  0.86522  0.65990  1.0000
  H   H1690     1.0  0.43603  0.86424  0.69304  1.0000
  H   H1691     1.0  0.44927  0.99441  0.88710  1.0000
  C   C1405     1.0  0.29940  0.81174  0.70770  1.0000
  S   S381      1.0  0.24063  0.95117  0.91055  1.0000
  H   H1692     1.0  0.27271  0.51253  0.74130  1.0000
  H   H1693     1.0  0.24546  0.89417  0.87338  1.0000
  N   N92       1.0  0.24349  0.55334  0.71796  1.0000
  H   H1694     1.0  0.31463  0.85228  0.68519  1.0000
  H   H1695     1.0  0.33015  0.59723  0.70284  1.0000
  H   H1696     1.0  0.24023  0.87717  0.79354  1.0000
  C   C1406     1.0  0.37588  0.80096  0.66787  1.0000
  H   H1697     1.0  0.28462  0.89403  0.80435  1.0000
  C   C1407     1.0  0.24515  0.53815  0.68655  1.0000
  C   C1408     1.0  0.29287  0.85556  0.66689  1.0000
  H   H1698     1.0  0.26161  0.82033  0.81792  1.0000
  C   C1409     1.0  0.31372  0.62286  0.72403  1.0000
  H   H1699     1.0  0.25838  0.57516  0.68758  1.0000
  N   N93       1.0  0.35219  0.85879  0.67618  1.0000
  C   C1410     1.0  0.24780  0.83195  0.84048  1.0000
  H   H1700     1.0  0.47155  0.94038  0.79671  1.0000
  H   H1701     1.0  0.27894  0.92521  0.82131  1.0000
  S   S382      1.0  0.31673  0.53810  0.65693  1.0000
  C   C1411     1.0  0.27644  0.89839  0.81271  1.0000
  S   S383      1.0  0.24363  0.90463  0.75363  1.0000
  C   C1412     1.0  0.47530  0.91647  0.87566  1.0000
  Fe  Fe192     1.0  0.46232  0.98684  0.84227  1.0000
  H   H1702     1.0  0.43994  0.93319  0.68298  1.0000
  H   H1703     1.0  0.34969  0.84860  0.70995  1.0000
  H   H1704     1.0  0.26378  0.50759  0.76606  1.0000
  H   H1705     1.0  0.24997  0.81935  0.85361  1.0000
  C   C1413     1.0  0.35656  0.87743  0.67516  1.0000
  H   H1706     1.0  0.29641  0.78564  0.73429  1.0000
  C   C1414     1.0  0.45749  0.86065  0.66016  1.0000
  S   S384      1.0  0.26931  0.98170  0.81953  1.0000
  N   N94       1.0  0.43115  0.90782  0.69557  1.0000
  H   H1707     1.0  0.45202  0.92723  0.83010  1.0000
  C   C1415     1.0  0.25488  0.91045  0.83377  1.0000
  C   C1416     1.0  0.41131  0.89713  0.67069  1.0000
  C   C1417     1.0  0.29485  0.80287  0.72854  1.0000
  H   H1708     1.0  0.24562  0.93315  0.86567  1.0000
  H   H1709     1.0  0.30901  0.63893  0.72658  1.0000
  C   C1418     1.0  0.46800  0.89629  0.78438  1.0000
  H   H1710     1.0  0.30122  0.60971  0.70798  1.0000
  H   H1711     1.0  0.42908  0.98308  0.77553  1.0000
  H   H1712     1.0  0.26742  0.51955  0.69246  1.0000
  S   S385      1.0  0.26027  0.50100  0.81336  1.0000
  C   C1419     1.0  0.27366  0.51220  0.68095  1.0000
  H   H1713     1.0  0.28867  0.86452  0.70907  1.0000
  H   H1714     1.0  0.45966  0.90305  0.78461  1.0000
  C   C1420     1.0  0.30169  0.50217  0.77031  1.0000
  C   C1421     1.0  0.47221  0.92968  0.81240  1.0000
  H   H1715     1.0  0.36268  0.78697  0.67109  1.0000
  C   C1422     1.0  0.29122  0.51001  0.65807  1.0000
  C   C1423     1.0  0.24043  0.89861  0.86153  1.0000
  H   H1716     1.0  0.34268  0.58357  0.65732  1.0000
  H   H1717     1.0  0.42789  0.93862  0.67410  1.0000
  C   C1424     1.0  0.30782  0.86011  0.67735  1.0000
  C   C1425     1.0  0.44675  0.98584  0.90370  1.0000
  C   C1426     1.0  0.24240  0.86467  0.80659  1.0000
  C   C1427     1.0  0.25286  0.98525  0.68685  1.0000
  H   H1718     1.0  0.48369  0.88346  0.88058  1.0000
  C   C1428     1.0  0.48426  0.88941  0.79667  1.0000
  H   H1719     1.0  0.33844  0.50347  0.72684  1.0000
  H   H1720     1.0  0.24751  0.52502  0.65935  1.0000
  C   C1429     1.0  0.48384  0.89951  0.87120  1.0000
  C   C1430     1.0  0.48383  0.96205  0.74356  1.0000
  C   C1431     1.0  0.33194  0.67118  0.66190  1.0000
  H   H1721     1.0  0.40450  0.90598  0.66387  1.0000
  H   H1722     1.0  0.48412  0.95694  0.83717  1.0000
  H   H1723     1.0  0.23906  0.93461  0.81505  1.0000
  C   C1432     1.0  0.47352  0.88479  0.76869  1.0000
  H   H1724     1.0  0.46939  0.88317  0.75763  1.0000
  Fe  Fe193     1.0  0.48600  0.89398  0.70167  1.0000
  S   S386      1.0  0.48586  0.91238  0.66818  1.0000
  C   C1433     1.0  0.23837  0.84738  0.84372  1.0000
  H   H1725     1.0  0.23761  0.90743  0.82184  1.0000
  N   N95       1.0  0.30947  0.49646  0.78397  1.0000
  H   H1726     1.0  0.23760  0.98536  0.79569  1.0000
  Fe  Fe194     1.0  0.25731  0.99508  0.84591  1.0000
  C   C1434     1.0  0.25977  0.56270  0.66113  1.0000
  C   C1435     1.0  0.27218  0.49537  0.67412  1.0000
  H   H1727     1.0  0.70207  0.43362  0.28762  1.0000
  C   C1436     1.0  0.52159  0.07592  0.25889  1.0000
  H   H1728     1.0  0.52517  0.07327  0.27225  1.0000
  C   C1437     1.0  0.52634  0.06349  0.24381  1.0000
  H   H1729     1.0  0.71174  0.42065  0.26848  1.0000
  H   H1730     1.0  0.52061  0.00086  0.30989  1.0000
  C   C1438     1.0  0.73469  0.03710  0.22127  1.0000
  N   N96       1.0  0.71377  0.45199  0.26825  1.0000
  C   C1439     1.0  0.72511  0.02995  0.25757  1.0000
  H   H1731     1.0  0.67652  0.45576  0.31164  1.0000
  C   C1440     1.0  0.72153  0.38541  0.30277  1.0000
  C   C1441     1.0  0.51243  0.08202  0.22468  1.0000
  H   H1732     1.0  0.50863  0.03823  0.25598  1.0000
  H   H1733     1.0  0.72830  0.42276  0.24688  1.0000
  H   H1734     1.0  0.51573  0.99620  0.22019  1.0000
  S   S387      1.0  0.53977  0.03407  0.28963  1.0000
  C   C1442     1.0  0.72112  0.36231  0.28102  1.0000
  H   H1735     1.0  0.73057  0.33163  0.31717  1.0000
  N   N97       1.0  0.73303  0.02018  0.24069  1.0000
  C   C1443     1.0  0.50929  0.02362  0.26806  1.0000
  H   H1736     1.0  0.49162  0.11571  0.26866  1.0000
  C   C1444     1.0  0.54282  0.00719  0.28770  1.0000
  H   H1737     1.0  0.72056  0.01239  0.23129  1.0000
  H   H1738     1.0  0.70223  0.46808  0.29160  1.0000
  C   C1445     1.0  0.70699  0.43659  0.27126  1.0000
  C   C1446     1.0  0.72136  0.44276  0.28245  1.0000
  C   C1447     1.0  0.54284  0.00211  0.26889  1.0000
  H   H1739     1.0  0.49171  0.03003  0.16323  1.0000
  C   C1448     1.0  0.71570  0.37647  0.29440  1.0000
  H   H1740     1.0  0.73413  0.11160  0.23830  1.0000
  C   C1449     1.0  0.67820  0.47149  0.30856  1.0000
  C   C1450     1.0  0.71975  0.45601  0.24602  1.0000
  H   H1741     1.0  0.49977  0.02639  0.22003  1.0000
  H   H1742     1.0  0.71749  0.39615  0.31323  1.0000
  C   C1451     1.0  0.52515  0.01226  0.19213  1.0000
  C   C1452     1.0  0.50700  0.02789  0.20822  1.0000
  C   C1453     1.0  0.50734  0.04676  0.19256  1.0000
  C   C1454     1.0  0.51663  0.04842  0.17695  1.0000
  C   C1455     1.0  0.52546  0.03121  0.17667  1.0000
  H   H1743     1.0  0.50184  0.11876  0.20214  1.0000
  C   C1456     1.0  0.52170  0.06635  0.22686  1.0000
  H   H1744     1.0  0.51695  0.06291  0.16482  1.0000
  H   H1745     1.0  0.53252  0.03247  0.16422  1.0000
  H   H1746     1.0  0.49097  0.09374  0.22414  1.0000
  C   C1457     1.0  0.72703  0.43891  0.23746  1.0000
  H   H1747     1.0  0.72377  0.01774  0.27257  1.0000
  H   H1748     1.0  0.67807  0.47866  0.27543  1.0000
  H   H1749     1.0  0.50113  0.06310  0.31094  1.0000
  H   H1750     1.0  0.71340  0.49079  0.23733  1.0000
  H   H1751     1.0  0.70065  0.47920  0.26515  1.0000
  H   H1752     1.0  0.71138  0.48363  0.27374  1.0000
  H   H1753     1.0  0.71667  0.35536  0.27447  1.0000
  H   H1754     1.0  0.52528  0.05629  0.21537  1.0000
  S   S388      1.0  0.49630  0.06852  0.19193  1.0000
  H   H1755     1.0  0.73356  0.99724  0.22295  1.0000
  H   H1756     1.0  0.48908  0.06447  0.28799  1.0000
  H   H1757     1.0  0.51852  0.03362  0.28358  1.0000
  C   C1458     1.0  0.73298  0.44233  0.21669  1.0000
  C   C1459     1.0  0.72827  0.00464  0.23612  1.0000
  H   H1758     1.0  0.72764  0.04296  0.26106  1.0000
  H   H1759     1.0  0.72460  0.47656  0.31227  1.0000
  C   C1460     1.0  0.51586  0.00201  0.29890  1.0000
  C   C1461     1.0  0.49404  0.12558  0.25259  1.0000
  H   H1760     1.0  0.72680  0.45364  0.28001  1.0000
  H   H1761     1.0  0.50714  0.13382  0.21364  1.0000
  C   C1462     1.0  0.49222  0.00093  0.18734  1.0000
  C   C1463     1.0  0.73182  0.08544  0.17984  1.0000
  H   H1762     1.0  0.53357  0.05145  0.24546  1.0000
  C   C1464     1.0  0.48913  0.10240  0.23709  1.0000
  H   H1763     1.0  0.72732  0.04397  0.21502  1.0000
  C   C1465     1.0  0.51597  0.01075  0.20819  1.0000
  C   C1466     1.0  0.67903  0.48451  0.28811  1.0000
  S   S389      1.0  0.72950  0.07909  0.27467  1.0000
  H   H1764     1.0  0.50060  0.00906  0.25562  1.0000
  H   H1765     1.0  0.72182  0.07242  0.16879  1.0000
  N   N98       1.0  0.49790  0.11236  0.23633  1.0000
  C   C1467     1.0  0.50737  0.00984  0.15990  1.0000
  C   C1468     1.0  0.73168  0.46273  0.20372  1.0000
  H   H1766     1.0  0.72643  0.42705  0.27975  1.0000
  C   C1469     1.0  0.49368  0.07474  0.31143  1.0000
  H   H1767     1.0  0.71725  0.03722  0.25323  1.0000
  H   H1768     1.0  0.70142  0.44267  0.26031  1.0000
  C   C1470     1.0  0.70673  0.47161  0.27492  1.0000
  H   H1769     1.0  0.71720  0.44005  0.29936  1.0000
  C   C1471     1.0  0.50752  0.09540  0.23944  1.0000
  H   H1770     1.0  0.50020  0.13385  0.25273  1.0000
  Fe  Fe195     1.0  0.73065  0.05395  0.30440  1.0000
  C   C1472     1.0  0.73229  0.35641  0.27679  1.0000
  H   H1771     1.0  0.50912  0.08353  0.21130  1.0000
  S   S390      1.0  0.70170  0.38188  0.30146  1.0000
  C   C1473     1.0  0.51479  0.02105  0.28361  1.0000
  H   H1772     1.0  0.54125  0.01470  0.25540  1.0000
  C   C1474     1.0  0.51228  0.09157  0.25694  1.0000
  H   H1773     1.0  0.50899  0.10038  0.26937  1.0000
  C   C1475     1.0  0.50014  0.12699  0.21539  1.0000
  H   H1774     1.0  0.49322  0.14052  0.21295  1.0000
  C   C1476     1.0  0.72445  0.47980  0.21146  1.0000
  C   C1477     1.0  0.71860  0.47666  0.23232  1.0000
  H   H1775     1.0  0.73641  0.46541  0.18774  1.0000
  H   H1776     1.0  0.73644  0.34485  0.26707  1.0000
  C   C1478     1.0  0.73269  0.38020  0.29785  1.0000
  C   C1479     1.0  0.49661  0.01487  0.16940  1.0000
  C   C1480     1.0  0.50476  0.00719  0.26787  1.0000
  C   C1481     1.0  0.72985  0.07135  0.17015  1.0000
  H   H1777     1.0  0.72528  0.09744  0.18612  1.0000
  H   H1778     1.0  0.51083  0.02102  0.14645  1.0000
  H   H1779     1.0  0.73704  0.05073  0.22403  1.0000
  H   H1780     1.0  0.73662  0.04442  0.15531  1.0000
  H   H1781     1.0  0.48753  0.09072  0.25228  1.0000
  H   H1782     1.0  0.73713  0.38699  0.30459  1.0000
  S   S391      1.0  0.73706  0.02015  0.30086  1.0000
  S   S392      1.0  0.59387  0.17835  0.53853  1.0000
  Fe  Fe196     1.0  0.57831  0.12225  0.47480  1.0000
  S   S393      1.0  0.57000  0.14734  0.45126  1.0000
  S   S394      1.0  0.57394  0.11793  0.51020  1.0000
  Fe  Fe197     1.0  0.59502  0.10265  0.44100  1.0000
  S   S395      1.0  0.58801  0.12586  0.41470  1.0000
  S   S396      1.0  0.61036  0.07852  0.43454  1.0000
  Fe  Fe198     1.0  0.58664  0.15067  0.43306  1.0000
  S   S397      1.0  0.59425  0.17934  0.41567  1.0000
  Fe  Fe199     1.0  0.57210  0.12009  0.43513  1.0000
  S   S398      1.0  0.55761  0.11339  0.42764  1.0000
  S   S399      1.0  0.59462  0.12746  0.45790  1.0000
  S   S400      1.0  0.57943  0.09500  0.46024  1.0000
  Fe  Fe200     1.0  0.52141  0.01603  0.36601  1.0000
  C   C1482     1.0  0.72172  0.02505  0.62398  1.0000
  C   C1483     1.0  0.61009  0.23379  0.54494  1.0000
  H   H1783     1.0  0.55503  0.02901  0.60575  1.0000
  H   H1784     1.0  0.53418  0.01098  0.59481  1.0000
  Fe  Fe201     1.0  0.53265  0.03738  0.32309  1.0000
  Fe  Fe202     1.0  0.53394  0.05042  0.36255  1.0000
  S   S401      1.0  0.54681  0.06173  0.37105  1.0000
  H   H1785     1.0  0.59168  0.22970  0.56654  1.0000
  C   C1484     1.0  0.65376  0.17043  0.41264  1.0000
  S   S402      1.0  0.53851  0.01883  0.35228  1.0000
  H   H1786     1.0  0.71281  0.10384  0.64866  1.0000
  H   H1787     1.0  0.69336  0.02307  0.36748  1.0000
  Fe  Fe203     1.0  0.72827  0.04202  0.35199  1.0000
  S   S403      1.0  0.72409  0.05137  0.38353  1.0000
  S   S404      1.0  0.69280  0.11418  0.58412  1.0000
  S   S405      1.0  0.70971  0.08477  0.61387  1.0000
  Fe  Fe204     1.0  0.69750  0.07947  0.59980  1.0000
  S   S406      1.0  0.70404  0.05110  0.58445  1.0000
  Fe  Fe205     1.0  0.65246  0.07195  0.49332  1.0000
  S   S407      1.0  0.65592  0.10240  0.47113  1.0000
  S   S408      1.0  0.63557  0.06728  0.50483  1.0000
  Fe  Fe206     1.0  0.67517  0.05617  0.49942  1.0000
  S   S409      1.0  0.68057  0.08514  0.47758  1.0000
  S   S410      1.0  0.68698  0.03038  0.51524  1.0000
  Fe  Fe207     1.0  0.66519  0.10305  0.49386  1.0000
  S   S411      1.0  0.66383  0.13221  0.50565  1.0000
  Fe  Fe208     1.0  0.67095  0.08152  0.45685  1.0000
  S   S412      1.0  0.67552  0.08744  0.42136  1.0000
  S   S413      1.0  0.66050  0.07438  0.51740  1.0000
  S   S414      1.0  0.66676  0.05075  0.47730  1.0000
  C   C1485     1.0  0.57291  0.22958  0.54194  1.0000
  S   S415      1.0  0.66605  0.29262  0.54395  1.0000
  Fe  Fe209     1.0  0.62459  0.24892  0.45123  1.0000
  S   S416      1.0  0.63615  0.22718  0.47046  1.0000
  S   S417      1.0  0.60881  0.23855  0.45801  1.0000
  Fe  Fe210     1.0  0.63870  0.28264  0.43453  1.0000
  S   S418      1.0  0.65112  0.26310  0.45269  1.0000
  S   S419      1.0  0.64062  0.31460  0.41247  1.0000
  Fe  Fe211     1.0  0.64884  0.23591  0.44206  1.0000
  S   S420      1.0  0.66275  0.21165  0.42940  1.0000
  Fe  Fe212     1.0  0.63728  0.25644  0.47933  1.0000
  S   S421      1.0  0.63534  0.25545  0.51390  1.0000
  S   S422      1.0  0.63731  0.25563  0.42189  1.0000
  S   S423      1.0  0.62484  0.27803  0.46204  1.0000
  C   C1486     1.0  0.73327  0.42677  0.36187  1.0000
  S   S424      1.0  0.70124  0.37174  0.35949  1.0000
  C   C1487     1.0  0.51789  0.09991  0.37322  1.0000
  Fe  Fe213     1.0  0.68454  0.42913  0.35501  1.0000
  S   S425      1.0  0.68966  0.41010  0.38511  1.0000
  S   S426      1.0  0.67690  0.46418  0.35130  1.0000
  Fe  Fe214     1.0  0.70542  0.40028  0.36388  1.0000
  S   S427      1.0  0.72216  0.39624  0.36716  1.0000
  Fe  Fe215     1.0  0.68496  0.38289  0.37847  1.0000
  S   S428      1.0  0.67870  0.35768  0.40626  1.0000
  H   H1788     1.0  0.72158  0.31532  0.33274  1.0000
  S   S429      1.0  0.67867  0.40267  0.34972  1.0000
  H   H1789     1.0  0.65456  0.38081  0.45759  1.0000
  H   H1790     1.0  0.71978  0.34403  0.63099  1.0000
  C   C1488     1.0  0.63199  0.20634  0.63310  1.0000
  C   C1489     1.0  0.63583  0.34037  0.45841  1.0000
  H   H1791     1.0  0.68640  0.20202  0.60391  1.0000
  C   C1490     1.0  0.65115  0.32663  0.41107  1.0000
  C   C1491     1.0  0.65304  0.34454  0.39485  1.0000
  C   C1492     1.0  0.66150  0.35420  0.39301  1.0000
  C   C1493     1.0  0.66809  0.34605  0.40751  1.0000
  C   C1494     1.0  0.66618  0.32820  0.42378  1.0000
  C   C1495     1.0  0.65774  0.31854  0.42558  1.0000
  H   H1792     1.0  0.64795  0.35095  0.38358  1.0000
  H   H1793     1.0  0.66287  0.36800  0.38047  1.0000
  H   H1794     1.0  0.67123  0.32180  0.43507  1.0000
  H   H1795     1.0  0.65626  0.30506  0.43838  1.0000
  C   C1496     1.0  0.65765  0.28187  0.53571  1.0000
  C   C1497     1.0  0.64871  0.27537  0.54990  1.0000
  C   C1498     1.0  0.64190  0.26741  0.54294  1.0000
  C   C1499     1.0  0.64406  0.26564  0.52187  1.0000
  C   C1500     1.0  0.65305  0.27194  0.50772  1.0000
  C   C1501     1.0  0.65983  0.28006  0.51464  1.0000
  H   H1796     1.0  0.64699  0.27670  0.56618  1.0000
  H   H1797     1.0  0.63493  0.26261  0.55393  1.0000
  H   H1798     1.0  0.65479  0.27055  0.49149  1.0000
  H   H1799     1.0  0.66684  0.28466  0.50369  1.0000
  C   C1502     1.0  0.72944  0.45089  0.38552  1.0000
  C   C1503     1.0  0.72028  0.44297  0.39659  1.0000
  C   C1504     1.0  0.71764  0.42695  0.39036  1.0000
  C   C1505     1.0  0.72429  0.41850  0.37327  1.0000
  H   H1800     1.0  0.71184  0.01347  0.41884  1.0000
  H   H1801     1.0  0.71528  0.44905  0.41020  1.0000
  H   H1802     1.0  0.71067  0.42063  0.39922  1.0000
  C   C1506     1.0  0.60890  0.07168  0.57267  1.0000
  S   S430      1.0  0.66489  0.13820  0.61825  1.0000
  H   H1803     1.0  0.50037  0.12600  0.36159  1.0000
  C   C1507     1.0  0.66472  0.15424  0.48449  1.0000
  C   C1508     1.0  0.66873  0.15125  0.46381  1.0000
  C   C1509     1.0  0.66890  0.16904  0.44684  1.0000
  C   C1510     1.0  0.66457  0.18972  0.45053  1.0000
  C   C1511     1.0  0.66092  0.19268  0.47126  1.0000
  C   C1512     1.0  0.66107  0.17494  0.48825  1.0000
  H   H1804     1.0  0.67163  0.13523  0.46086  1.0000
  H   H1805     1.0  0.67203  0.16667  0.43089  1.0000
  H   H1806     1.0  0.65790  0.20864  0.47424  1.0000
  H   H1807     1.0  0.65801  0.17727  0.50426  1.0000
  C   C1513     1.0  0.69838  0.04547  0.56648  1.0000
  C   C1514     1.0  0.70403  0.02841  0.55672  1.0000
  C   C1515     1.0  0.70030  0.02379  0.54140  1.0000
  C   C1516     1.0  0.69091  0.03629  0.53549  1.0000
  C   C1517     1.0  0.68508  0.05323  0.54546  1.0000
  C   C1518     1.0  0.68880  0.05778  0.56107  1.0000
  H   H1808     1.0  0.71141  0.01878  0.56089  1.0000
  H   H1809     1.0  0.70480  0.01063  0.53389  1.0000
  H   H1810     1.0  0.67771  0.06272  0.54126  1.0000
  H   H1811     1.0  0.68431  0.07078  0.56880  1.0000
  C   C1519     1.0  0.71067  0.06249  0.39356  1.0000
  C   C1520     1.0  0.70713  0.06149  0.41531  1.0000
  C   C1521     1.0  0.69635  0.06901  0.42398  1.0000
  C   C1522     1.0  0.68910  0.07811  0.41084  1.0000
  C   C1523     1.0  0.69269  0.07966  0.38900  1.0000
  C   C1524     1.0  0.70344  0.07166  0.38038  1.0000
  H   H1812     1.0  0.71270  0.05426  0.42555  1.0000
  H   H1813     1.0  0.69365  0.06756  0.44084  1.0000
  H   H1814     1.0  0.68712  0.08684  0.37874  1.0000
  H   H1815     1.0  0.70613  0.07280  0.36355  1.0000
  C   C1525     1.0  0.70180  0.20763  0.60191  1.0000
  H   H1816     1.0  0.57750  0.01267  0.38315  1.0000
  H   H1817     1.0  0.52359  0.16769  0.39790  1.0000
  C   C1526     1.0  0.70367  0.12274  0.51368  1.0000
  H   H1818     1.0  0.68871  0.47903  0.41327  1.0000
  H   H1819     1.0  0.71464  0.08253  0.51442  1.0000
  H   H1820     1.0  0.69766  0.32658  0.33581  1.0000
  H   H1821     1.0  0.69014  0.13808  0.48294  1.0000
  C   C1527     1.0  0.67803  0.30602  0.37334  1.0000
  C   C1528     1.0  0.55480  0.09904  0.41161  1.0000
  C   C1529     1.0  0.54458  0.09458  0.41623  1.0000
  C   C1530     1.0  0.54193  0.08336  0.40403  1.0000
  C   C1531     1.0  0.54949  0.07642  0.38690  1.0000
  C   C1532     1.0  0.55967  0.08111  0.38212  1.0000
  C   C1533     1.0  0.56229  0.09240  0.39427  1.0000
  H   H1822     1.0  0.53865  0.09983  0.42941  1.0000
  H   H1823     1.0  0.53407  0.07997  0.40798  1.0000
  H   H1824     1.0  0.56558  0.07596  0.36887  1.0000
  H   H1825     1.0  0.57004  0.09627  0.38997  1.0000
  C   C1534     1.0  0.59839  0.19527  0.42789  1.0000
  C   C1535     1.0  0.60688  0.20544  0.41666  1.0000
  C   C1536     1.0  0.61036  0.21831  0.42577  1.0000
  C   C1537     1.0  0.60505  0.22196  0.44587  1.0000
  C   C1538     1.0  0.59641  0.21217  0.45689  1.0000
  C   C1539     1.0  0.59327  0.19846  0.44821  1.0000
  H   H1826     1.0  0.61080  0.20331  0.40082  1.0000
  H   H1827     1.0  0.61693  0.22593  0.41699  1.0000
  H   H1828     1.0  0.59219  0.21498  0.47238  1.0000
  H   H1829     1.0  0.58666  0.19094  0.45696  1.0000
  C   C1540     1.0  0.61743  0.07413  0.45429  1.0000
  C   C1541     1.0  0.61196  0.07702  0.47455  1.0000
  C   C1542     1.0  0.61762  0.07437  0.49006  1.0000
  C   C1543     1.0  0.62877  0.06944  0.48525  1.0000
  C   C1544     1.0  0.63428  0.06663  0.46497  1.0000
  C   C1545     1.0  0.62859  0.06857  0.44962  1.0000
  H   H1830     1.0  0.60334  0.08110  0.47836  1.0000
  H   H1831     1.0  0.61332  0.07641  0.50576  1.0000
  H   H1832     1.0  0.64290  0.06268  0.46121  1.0000
  H   H1833     1.0  0.63286  0.06619  0.43400  1.0000
  C   C1546     1.0  0.58862  0.16094  0.53088  1.0000
  C   C1547     1.0  0.58601  0.14233  0.54488  1.0000
  C   C1548     1.0  0.58171  0.12885  0.53836  1.0000
  C   C1549     1.0  0.58006  0.13392  0.51779  1.0000
  C   C1550     1.0  0.58276  0.15241  0.50375  1.0000
  C   C1551     1.0  0.58701  0.16592  0.51031  1.0000
  H   H1834     1.0  0.58701  0.13859  0.56087  1.0000
  H   H1835     1.0  0.57967  0.11452  0.54926  1.0000
  H   H1836     1.0  0.58136  0.15661  0.48794  1.0000
  H   H1837     1.0  0.58900  0.18033  0.49944  1.0000
  C   C1552     1.0  0.65242  0.36306  0.49880  1.0000
  C   C1553     1.0  0.64309  0.32793  0.49584  1.0000
  C   C1554     1.0  0.63502  0.31940  0.49393  1.0000
  C   C1555     1.0  0.63142  0.32557  0.47523  1.0000
  H   H1838     1.0  0.64996  0.35233  0.51430  1.0000
  S   S431      1.0  0.55084  0.08027  0.62253  1.0000
  H   H1839     1.0  0.64538  0.37614  0.49595  1.0000
  H   H1840     1.0  0.64565  0.32249  0.51065  1.0000
  H   H1841     1.0  0.63163  0.30769  0.50692  1.0000
  H   H1842     1.0  0.53256  0.02985  0.57090  1.0000
  N   N99       1.0  0.70572  0.36929  0.62859  1.0000
  C   C1556     1.0  0.66448  0.17919  0.64819  1.0000
  C   C1557     1.0  0.57569  0.02163  0.39539  1.0000
  C   C1558     1.0  0.69980  0.35792  0.62124  1.0000
  C   C1559     1.0  0.69177  0.36968  0.60987  1.0000
  C   C1560     1.0  0.68604  0.35935  0.60283  1.0000
  C   C1561     1.0  0.62405  0.30037  0.63321  1.0000
  Fe  Fe216     1.0  0.69556  0.39383  0.33155  1.0000
  C   C1562     1.0  0.72456  0.32946  0.33230  1.0000
  C   C1563     1.0  0.68627  0.00604  0.43154  1.0000
  C   C1564     1.0  0.55143  0.01984  0.59911  1.0000
  C   C1565     1.0  0.61103  0.05281  0.64357  1.0000
  H   H1843     1.0  0.66865  0.20970  0.63415  1.0000
  H   H1844     1.0  0.68977  0.38697  0.60661  1.0000
  H   H1845     1.0  0.67974  0.36859  0.59472  1.0000
  N   N100      1.0  0.62910  0.13459  0.42858  1.0000
  C   C1566     1.0  0.63233  0.11764  0.41617  1.0000
  C   C1567     1.0  0.62748  0.12439  0.45135  1.0000
  C   C1568     1.0  0.61869  0.14791  0.42435  1.0000
  C   C1569     1.0  0.63746  0.14711  0.42315  1.0000
  C   C1570     1.0  0.63512  0.16988  0.41910  1.0000
  C   C1571     1.0  0.64828  0.13656  0.42266  1.0000
  C   C1572     1.0  0.64319  0.18128  0.41383  1.0000
  H   H1846     1.0  0.63910  0.10477  0.42081  1.0000
  H   H1847     1.0  0.62577  0.10931  0.41851  1.0000
  H   H1848     1.0  0.63465  0.12453  0.39897  1.0000
  H   H1849     1.0  0.63479  0.11291  0.45538  1.0000
  H   H1850     1.0  0.62100  0.11532  0.45631  1.0000
  H   H1851     1.0  0.62526  0.13661  0.46114  1.0000
  H   H1852     1.0  0.61950  0.15743  0.40781  1.0000
  H   H1853     1.0  0.61282  0.13803  0.42647  1.0000
  H   H1854     1.0  0.61489  0.15899  0.43534  1.0000
  H   H1855     1.0  0.62710  0.17927  0.41997  1.0000
  H   H1856     1.0  0.65069  0.11928  0.42645  1.0000
  N   N101      1.0  0.69981  0.10503  0.51086  1.0000
  C   C1573     1.0  0.68845  0.10677  0.52194  1.0000
  C   C1574     1.0  0.70083  0.10660  0.48808  1.0000
  C   C1575     1.0  0.69530  0.12507  0.47586  1.0000
  C   C1576     1.0  0.70716  0.09008  0.47742  1.0000
  C   C1577     1.0  0.69607  0.12689  0.45436  1.0000
  C   C1578     1.0  0.70783  0.09206  0.45593  1.0000
  C   C1579     1.0  0.70227  0.11037  0.44445  1.0000
  H   H1857     1.0  0.68351  0.12294  0.51720  1.0000
  H   H1858     1.0  0.68739  0.10374  0.53938  1.0000
  H   H1859     1.0  0.68491  0.09510  0.51849  1.0000
  H   H1860     1.0  0.70323  0.07055  0.52043  1.0000
  H   H1861     1.0  0.71151  0.07525  0.48535  1.0000
  H   H1862     1.0  0.69166  0.14102  0.44543  1.0000
  H   H1863     1.0  0.71254  0.07915  0.44817  1.0000
  H   H1864     1.0  0.69885  0.13874  0.50786  1.0000
  S   S432      1.0  0.70075  0.42181  0.33463  1.0000
  H   H1865     1.0  0.53096  0.06082  0.58672  1.0000
  H   H1866     1.0  0.55641  0.05684  0.51188  1.0000
  C   C1580     1.0  0.67359  0.25237  0.37171  1.0000
  S   S433      1.0  0.58906  0.18249  0.59740  1.0000
  C   C1581     1.0  0.68820  0.33708  0.60662  1.0000
  H   H1867     1.0  0.51146  0.15441  0.38634  1.0000
  H   H1868     1.0  0.53981  0.05850  0.60336  1.0000
  H   H1869     1.0  0.72407  0.35006  0.38292  1.0000
  C   C1582     1.0  0.70410  0.32405  0.40707  1.0000
  H   H1870     1.0  0.52612  0.09047  0.36888  1.0000
  H   H1871     1.0  0.69744  0.32406  0.42061  1.0000
  H   H1872     1.0  0.51976  0.14103  0.33034  1.0000
  H   H1873     1.0  0.62279  0.06189  0.54924  1.0000
  C   C1583     1.0  0.72083  0.32576  0.37040  1.0000
  H   H1874     1.0  0.70959  0.34849  0.41365  1.0000
  H   H1875     1.0  0.67311  0.25478  0.35499  1.0000
  C   C1584     1.0  0.51993  0.12415  0.33914  1.0000
  H   H1876     1.0  0.71716  0.37313  0.59908  1.0000
  H   H1877     1.0  0.61860  0.23501  0.54022  1.0000
  Fe  Fe217     1.0  0.72462  0.01183  0.32945  1.0000
  H   H1878     1.0  0.67195  0.31067  0.38651  1.0000
  H   H1879     1.0  0.68164  0.24299  0.37385  1.0000
  H   H1880     1.0  0.70265  0.11156  0.42791  1.0000
  H   H1881     1.0  0.53871  0.11241  0.35494  1.0000
  C   C1585     1.0  0.70814  0.48953  0.35786  1.0000
  S   S434      1.0  0.69708  0.23219  0.60990  1.0000
  H   H1882     1.0  0.71624  0.39143  0.61521  1.0000
  H   H1883     1.0  0.70711  0.01651  0.45537  1.0000
  H   H1884     1.0  0.62077  0.18845  0.63267  1.0000
  H   H1885     1.0  0.62208  0.08399  0.63050  1.0000
  H   H1886     1.0  0.53093  0.04063  0.61065  1.0000
  N   N102      1.0  0.58972  0.04903  0.41945  1.0000
  C   C1586     1.0  0.58949  0.04335  0.44242  1.0000
  C   C1587     1.0  0.60075  0.04060  0.40845  1.0000
  C   C1588     1.0  0.58750  0.07266  0.41236  1.0000
  C   C1589     1.0  0.58150  0.04070  0.41519  1.0000
  C   C1590     1.0  0.58377  0.02830  0.39970  1.0000
  C   C1591     1.0  0.57070  0.04587  0.42599  1.0000
  H   H1887     1.0  0.64579  0.26636  0.65157  1.0000
  H   H1888     1.0  0.64287  0.15660  0.62038  1.0000
  C   C1592     1.0  0.73584  0.44300  0.36792  1.0000
  H   H1889     1.0  0.59057  0.02573  0.44858  1.0000
  H   H1890     1.0  0.59592  0.04863  0.44597  1.0000
  H   H1891     1.0  0.58193  0.05115  0.45181  1.0000
  H   H1892     1.0  0.60291  0.02280  0.41286  1.0000
  H   H1893     1.0  0.60673  0.04672  0.41260  1.0000
  H   H1894     1.0  0.60184  0.04581  0.39098  1.0000
  H   H1895     1.0  0.58755  0.07758  0.39519  1.0000
  H   H1896     1.0  0.57959  0.08042  0.42081  1.0000
  H   H1897     1.0  0.59357  0.07960  0.41501  1.0000
  H   H1898     1.0  0.59168  0.02387  0.39040  1.0000
  H   H1899     1.0  0.56823  0.05616  0.43718  1.0000
  S   S435      1.0  0.64544  0.22977  0.63570  1.0000
  H   H1900     1.0  0.70258  0.17827  0.64095  1.0000
  H   H1901     1.0  0.71802  0.36369  0.64578  1.0000
  N   N103      1.0  0.54805  0.14619  0.56333  1.0000
  C   C1593     1.0  0.53627  0.15122  0.57057  1.0000
  C   C1594     1.0  0.55185  0.12262  0.56688  1.0000
  C   C1595     1.0  0.55306  0.15472  0.57540  1.0000
  C   C1596     1.0  0.56105  0.16693  0.56553  1.0000
  C   C1597     1.0  0.55032  0.15006  0.59782  1.0000
  C   C1598     1.0  0.56584  0.17413  0.57748  1.0000
  H   H1902     1.0  0.53320  0.16869  0.57000  1.0000
  H   H1903     1.0  0.70242  0.39130  0.64904  1.0000
  H   H1904     1.0  0.53351  0.14250  0.58698  1.0000
  H   H1905     1.0  0.54970  0.11466  0.58384  1.0000
  C   C1599     1.0  0.63621  0.22482  0.62407  1.0000
  H   H1906     1.0  0.56394  0.17075  0.54863  1.0000
  H   H1907     1.0  0.54479  0.13985  0.60656  1.0000
  H   H1908     1.0  0.57214  0.18288  0.56965  1.0000
  H   H1909     1.0  0.62889  0.06195  0.60795  1.0000
  H   H1910     1.0  0.70273  0.15125  0.64103  1.0000
  C   C1600     1.0  0.53618  0.04918  0.59693  1.0000
  H   H1911     1.0  0.71123  0.02394  0.38374  1.0000
  Fe  Fe218     1.0  0.69646  0.08911  0.64195  1.0000
  Fe  Fe219     1.0  0.66524  0.29059  0.62098  1.0000
  C   C1601     1.0  0.62305  0.06462  0.59866  1.0000
  H   H1912     1.0  0.68788  0.26858  0.34278  1.0000
  C   C1602     1.0  0.62685  0.06144  0.57802  1.0000
  S   S436      1.0  0.66239  0.31882  0.63684  1.0000
  H   H1913     1.0  0.53226  0.14653  0.56064  1.0000
  C   C1603     1.0  0.67052  0.26784  0.40150  1.0000
  H   H1914     1.0  0.61980  0.04676  0.64130  1.0000
  C   C1604     1.0  0.61978  0.06472  0.56513  1.0000
  C   C1605     1.0  0.59647  0.08165  0.63531  1.0000
  C   C1606     1.0  0.69129  0.01154  0.46115  1.0000
  Fe  Fe220     1.0  0.65683  0.25223  0.61915  1.0000
  C   C1607     1.0  0.69817  0.38320  0.64253  1.0000
  C   C1608     1.0  0.71398  0.31122  0.37544  1.0000
  H   H1915     1.0  0.55803  0.00895  0.59049  1.0000
  H   H1916     1.0  0.69752  0.30770  0.62093  1.0000
  H   H1917     1.0  0.63534  0.05644  0.57196  1.0000
  H   H1918     1.0  0.50397  0.15061  0.35977  1.0000
  N   N104      1.0  0.65860  0.19608  0.57105  1.0000
  C   C1609     1.0  0.64897  0.21148  0.56505  1.0000
  C   C1610     1.0  0.65881  0.17527  0.56660  1.0000
  C   C1611     1.0  0.65739  0.19347  0.59405  1.0000
  C   C1612     1.0  0.66869  0.20308  0.55988  1.0000
  C   C1613     1.0  0.67862  0.18941  0.56290  1.0000
  C   C1614     1.0  0.66899  0.22375  0.54669  1.0000
  C   C1615     1.0  0.68822  0.19606  0.55333  1.0000
  C   C1616     1.0  0.67861  0.23042  0.53759  1.0000
  C   C1617     1.0  0.68820  0.21663  0.54094  1.0000
  H   H1919     1.0  0.64784  0.22702  0.56946  1.0000
  H   H1920     1.0  0.64937  0.21450  0.54780  1.0000
  H   H1921     1.0  0.64156  0.20549  0.57345  1.0000
  H   H1922     1.0  0.66062  0.17612  0.54930  1.0000
  H   H1923     1.0  0.65104  0.17032  0.57353  1.0000
  H   H1924     1.0  0.66479  0.16191  0.57352  1.0000
  H   H1925     1.0  0.65704  0.20886  0.59804  1.0000
  H   H1926     1.0  0.65001  0.18783  0.60324  1.0000
  H   H1927     1.0  0.66412  0.18164  0.60005  1.0000
  H   H1928     1.0  0.67901  0.17362  0.57311  1.0000
  H   H1929     1.0  0.66189  0.23523  0.54345  1.0000
  H   H1930     1.0  0.69570  0.18541  0.55597  1.0000
  H   H1931     1.0  0.67860  0.24656  0.52820  1.0000
  H   H1932     1.0  0.69563  0.22197  0.53413  1.0000
  H   H1933     1.0  0.69362  0.16544  0.59669  1.0000
  H   H1934     1.0  0.63474  0.19499  0.64642  1.0000
  S   S437      1.0  0.69165  0.12432  0.63021  1.0000
  C   C1618     1.0  0.71095  0.33781  0.40313  1.0000
  H   H1935     1.0  0.59353  0.23491  0.49994  1.0000
  C   C1619     1.0  0.64494  0.14301  0.61306  1.0000
  H   H1936     1.0  0.72967  0.48635  0.34798  1.0000
  H   H1937     1.0  0.54845  0.11545  0.55783  1.0000
  N   N105      1.0  0.62592  0.12718  0.52063  1.0000
  C   C1620     1.0  0.62099  0.13450  0.54064  1.0000
  C   C1621     1.0  0.61898  0.11500  0.51724  1.0000
  C   C1622     1.0  0.63621  0.11226  0.52334  1.0000
  C   C1623     1.0  0.62702  0.14589  0.50284  1.0000
  C   C1624     1.0  0.61784  0.16121  0.49804  1.0000
  C   C1625     1.0  0.63699  0.14934  0.48965  1.0000
  C   C1626     1.0  0.61855  0.17885  0.48124  1.0000
  C   C1627     1.0  0.63761  0.16697  0.47263  1.0000
  C   C1628     1.0  0.62839  0.18170  0.46844  1.0000
  H   H1938     1.0  0.61300  0.14513  0.54051  1.0000
  H   H1939     1.0  0.61994  0.12073  0.55428  1.0000
  H   H1940     1.0  0.62612  0.14337  0.54387  1.0000
  H   H1941     1.0  0.61060  0.12408  0.51815  1.0000
  H   H1942     1.0  0.61869  0.09980  0.52926  1.0000
  H   H1943     1.0  0.62199  0.11068  0.50153  1.0000
  H   H1944     1.0  0.64171  0.12024  0.52666  1.0000
  H   H1945     1.0  0.63512  0.09837  0.53684  1.0000
  H   H1946     1.0  0.64019  0.10551  0.50915  1.0000
  H   H1947     1.0  0.61000  0.15970  0.50731  1.0000
  H   H1948     1.0  0.64444  0.13877  0.49222  1.0000
  H   H1949     1.0  0.61140  0.19045  0.47838  1.0000
  H   H1950     1.0  0.64530  0.16934  0.46279  1.0000
  H   H1951     1.0  0.62886  0.19550  0.45540  1.0000
  N   N106      1.0  0.51681  0.12275  0.36230  1.0000
  H   H1952     1.0  0.60977  0.21845  0.55673  1.0000
  C   C1629     1.0  0.62409  0.20254  0.62528  1.0000
  H   H1953     1.0  0.54306  0.15413  0.38833  1.0000
  C   C1630     1.0  0.60707  0.25492  0.51127  1.0000
  C   C1631     1.0  0.53774  0.14842  0.38265  1.0000
  N   N107      1.0  0.72920  0.32699  0.35067  1.0000
  H   H1954     1.0  0.59199  0.07030  0.63419  1.0000
  C   C1632     1.0  0.66031  0.28468  0.37467  1.0000
  C   C1633     1.0  0.66878  0.34453  0.65501  1.0000
  H   H1955     1.0  0.66695  0.28202  0.40873  1.0000
  C   C1634     1.0  0.70135  0.01331  0.44871  1.0000
  H   H1956     1.0  0.55889  0.02238  0.40243  1.0000
  H   H1957     1.0  0.65768  0.30016  0.37985  1.0000
  C   C1635     1.0  0.58933  0.23349  0.51628  1.0000
  C   C1636     1.0  0.51986  0.14807  0.38134  1.0000
  C   C1637     1.0  0.61824  0.29769  0.62013  1.0000
  C   C1638     1.0  0.57869  0.23184  0.52113  1.0000
  N   N108      1.0  0.60818  0.07381  0.62925  1.0000
  C   C1639     1.0  0.53508  0.12502  0.36362  1.0000
  C   C1640     1.0  0.54188  0.13318  0.37025  1.0000
  H   H1958     1.0  0.55042  0.12711  0.36634  1.0000
  S   S438      1.0  0.57903  0.13349  0.64123  1.0000
  C   C1641     1.0  0.69404  0.48207  0.39796  1.0000
  C   C1642     1.0  0.71829  0.47474  0.32701  1.0000
  C   C1643     1.0  0.64394  0.34896  0.46009  1.0000
  H   H1959     1.0  0.56770  0.08040  0.55270  1.0000
  C   C1644     1.0  0.58840  0.23058  0.55330  1.0000
  Fe  Fe221     1.0  0.60509  0.18369  0.60151  1.0000
  H   H1960     1.0  0.56469  0.22809  0.54567  1.0000
  N   N109      1.0  0.54429  0.03397  0.58513  1.0000
  H   H1961     1.0  0.60344  0.07442  0.56248  1.0000
  C   C1645     1.0  0.56519  0.02693  0.40635  1.0000
  H   H1962     1.0  0.51248  0.09229  0.36920  1.0000
  C   C1646     1.0  0.55054  0.04613  0.56620  1.0000
  C   C1647     1.0  0.55053  0.04565  0.54525  1.0000
  C   C1648     1.0  0.55679  0.05924  0.56839  1.0000
  C   C1649     1.0  0.55654  0.05734  0.52774  1.0000
  C   C1650     1.0  0.56285  0.07069  0.55075  1.0000
  C   C1651     1.0  0.56272  0.06971  0.53048  1.0000
  C   C1652     1.0  0.50534  0.13325  0.36735  1.0000
  C   C1653     1.0  0.62445  0.23587  0.59944  1.0000
  C   C1654     1.0  0.63262  0.23930  0.60680  1.0000
  H   H1963     1.0  0.56664  0.17481  0.60875  1.0000
  C   C1655     1.0  0.55775  0.09706  0.64847  1.0000
  H   H1964     1.0  0.72120  0.02737  0.60770  1.0000
  H   H1965     1.0  0.68929  0.01323  0.47741  1.0000
  H   H1966     1.0  0.56742  0.07863  0.51683  1.0000
  H   H1967     1.0  0.55704  0.06074  0.58382  1.0000
  C   C1656     1.0  0.69259  0.31537  0.34463  1.0000
  C   C1657     1.0  0.65791  0.11282  0.60132  1.0000
  H   H1968     1.0  0.66020  0.28853  0.35760  1.0000
  H   H1969     1.0  0.54646  0.14895  0.53155  1.0000
  C   C1658     1.0  0.52676  0.15592  0.38811  1.0000
  S   S439      1.0  0.60892  0.21532  0.60080  1.0000
  C   C1659     1.0  0.67094  0.19383  0.64357  1.0000
  Fe  Fe222     1.0  0.59827  0.16743  0.57008  1.0000
  S   S440      1.0  0.71542  0.14107  0.58729  1.0000
  H   H1970     1.0  0.72541  0.17282  0.58972  1.0000
  C   C1660     1.0  0.70595  0.08458  0.52140  1.0000
  H   H1971     1.0  0.71209  0.12242  0.50501  1.0000
  H   H1972     1.0  0.70496  0.08377  0.53854  1.0000
  Fe  Fe223     1.0  0.70385  0.11951  0.60089  1.0000
  S   S441      1.0  0.68460  0.08087  0.62929  1.0000
  H   H1973     1.0  0.60567  0.24726  0.55289  1.0000
  H   H1974     1.0  0.62525  0.31878  0.47368  1.0000
  C   C1661     1.0  0.65630  0.14811  0.41730  1.0000
  C   C1662     1.0  0.61392  0.27960  0.62522  1.0000
  C   C1663     1.0  0.69927  0.48028  0.36107  1.0000
  H   H1975     1.0  0.63311  0.34484  0.44374  1.0000
  S   S442      1.0  0.60006  0.13368  0.58861  1.0000
  C   C1664     1.0  0.71001  0.16673  0.59267  1.0000
  C   C1665     1.0  0.71689  0.17906  0.59294  1.0000
  C   C1666     1.0  0.67875  0.28687  0.36706  1.0000
  H   H1976     1.0  0.68355  0.32907  0.60167  1.0000
  C   C1667     1.0  0.71245  0.02890  0.63934  1.0000
  C   C1668     1.0  0.71155  0.38292  0.61020  1.0000
  Fe  Fe224     1.0  0.68092  0.11609  0.61490  1.0000
  H   H1977     1.0  0.49706  0.01069  0.39394  1.0000
  H   H1978     1.0  0.50215  0.13125  0.38470  1.0000
  H   H1979     1.0  0.56804  0.10004  0.59602  1.0000
  H   H1980     1.0  0.65205  0.09380  0.58759  1.0000
  C   C1669     1.0  0.55499  0.15774  0.60956  1.0000
  C   C1670     1.0  0.56279  0.16962  0.59944  1.0000
  H   H1981     1.0  0.55292  0.15364  0.62669  1.0000
  H   H1982     1.0  0.70027  0.30002  0.39651  1.0000
  H   H1983     1.0  0.60511  0.25580  0.49604  1.0000
  Fe  Fe225     1.0  0.54032  0.06082  0.64931  1.0000
  H   H1984     1.0  0.72889  0.10145  0.61149  1.0000
  H   H1985     1.0  0.66594  0.10321  0.59932  1.0000
  S   S443      1.0  0.73500  0.00706  0.35209  1.0000
  H   H1986     1.0  0.66430  0.35858  0.44839  1.0000
  H   H1987     1.0  0.54704  0.00966  0.61300  1.0000
  H   H1988     1.0  0.70327  0.12167  0.53065  1.0000
  C   C1671     1.0  0.70396  0.01146  0.42763  1.0000
  H   H1989     1.0  0.61540  0.25706  0.50724  1.0000
  S   S444      1.0  0.61396  0.17121  0.57247  1.0000
  Fe  Fe226     1.0  0.66632  0.28012  0.57858  1.0000
  H   H1990     1.0  0.57894  0.12128  0.60264  1.0000
  C   C1672     1.0  0.65007  0.10754  0.59467  1.0000
  C   C1673     1.0  0.64786  0.34288  0.47893  1.0000
  C   C1674     1.0  0.70176  0.33518  0.62494  1.0000
  C   C1675     1.0  0.69609  0.32505  0.61751  1.0000
  H   H1991     1.0  0.54428  0.00812  0.57153  1.0000
  S   S445      1.0  0.66965  0.24455  0.59118  1.0000
  H   H1992     1.0  0.61139  0.20075  0.52728  1.0000
  H   H1993     1.0  0.55918  0.15033  0.53320  1.0000
  C   C1676     1.0  0.56690  0.10242  0.61176  1.0000
  H   H1994     1.0  0.56067  0.11825  0.56181  1.0000
  H   H1995     1.0  0.64125  0.19865  0.41075  1.0000
  H   H1996     1.0  0.66452  0.13960  0.41684  1.0000
  C   C1677     1.0  0.68679  0.28255  0.34897  1.0000
  C   C1678     1.0  0.63720  0.13799  0.60607  1.0000
  C   C1679     1.0  0.61200  0.07140  0.60702  1.0000
  C   C1680     1.0  0.63972  0.12016  0.59706  1.0000
  C   C1681     1.0  0.65530  0.13056  0.61055  1.0000
  C   C1682     1.0  0.56272  0.03886  0.42174  1.0000
  H   H1997     1.0  0.66810  0.32312  0.47471  1.0000
  H   H1998     1.0  0.63576  0.25364  0.59975  1.0000
  H   H1999     1.0  0.70609  0.39555  0.60123  1.0000
  C   C1683     1.0  0.70249  0.49168  0.39527  1.0000
  Fe  Fe227     1.0  0.61488  0.13881  0.59381  1.0000
  S   S446      1.0  0.62986  0.11366  0.58901  1.0000
  H   H2000     1.0  0.70481  0.03437  0.63478  1.0000
  C   C1684     1.0  0.61253  0.21643  0.51669  1.0000
  H   H2001     1.0  0.71784  0.34371  0.33127  1.0000
  S   S447      1.0  0.65273  0.28764  0.60563  1.0000
  C   C1685     1.0  0.59454  0.23284  0.53221  1.0000
  H   H2002     1.0  0.62929  0.14795  0.60774  1.0000
  H   H2003     1.0  0.64712  0.35997  0.44621  1.0000
  C   C1686     1.0  0.55909  0.09389  0.62817  1.0000
  H   H2004     1.0  0.66731  0.37257  0.46424  1.0000
  C   C1687     1.0  0.71927  0.33860  0.38520  1.0000
  H   H2005     1.0  0.66333  0.32314  0.50234  1.0000
  N   N110      1.0  0.71522  0.49375  0.33667  1.0000
  H   H2006     1.0  0.62728  0.31463  0.62815  1.0000
  C   C1688     1.0  0.69489  0.19561  0.60098  1.0000
  H   H2007     1.0  0.65997  0.17942  0.40832  1.0000
  N   N111      1.0  0.65649  0.35143  0.48132  1.0000
  H   H2008     1.0  0.71816  0.20848  0.59867  1.0000
  Fe  Fe228     1.0  0.51303  0.06251  0.34719  1.0000
  N   N112      1.0  0.60585  0.23445  0.52657  1.0000
  C   C1689     1.0  0.66547  0.33349  0.48646  1.0000
  H   H2009     1.0  0.62137  0.24764  0.58671  1.0000
  C   C1690     1.0  0.71279  0.19927  0.59791  1.0000
  C   C1691     1.0  0.52384  0.13228  0.36886  1.0000
  C   C1692     1.0  0.57316  0.11435  0.61553  1.0000
  H   H2010     1.0  0.65860  0.37031  0.50068  1.0000
  S   S448      1.0  0.49882  0.08931  0.34190  1.0000
  S   S449      1.0  0.51715  0.04602  0.37892  1.0000
  C   C1693     1.0  0.55056  0.15509  0.54021  1.0000
  H   H2011     1.0  0.61060  0.21699  0.50155  1.0000
  N   N113      1.0  0.67100  0.27305  0.37844  1.0000
  H   H2012     1.0  0.55448  0.04359  0.42969  1.0000
  H   H2013     1.0  0.60764  0.04051  0.64081  1.0000
  C   C1694     1.0  0.69241  0.47646  0.38088  1.0000
  Fe  Fe229     1.0  0.59181  0.14857  0.61642  1.0000
  H   H2014     1.0  0.54816  0.17289  0.53650  1.0000
  C   C1695     1.0  0.62008  0.21758  0.60876  1.0000
  H   H2015     1.0  0.61163  0.10503  0.62190  1.0000
  H   H2016     1.0  0.59388  0.09755  0.62523  1.0000
  C   C1696     1.0  0.57166  0.11790  0.63578  1.0000
  C   C1697     1.0  0.66080  0.36649  0.46205  1.0000
  H   H2017     1.0  0.67248  0.33928  0.48672  1.0000
  H   H2018     1.0  0.57326  0.22704  0.57419  1.0000
  H   H2019     1.0  0.62116  0.21659  0.51307  1.0000
  C   C1698     1.0  0.57774  0.22900  0.55797  1.0000
  H   H2020     1.0  0.52804  0.11457  0.33411  1.0000
  H   H2021     1.0  0.57499  0.23200  0.50867  1.0000
  S   S450      1.0  0.60695  0.15110  0.62348  1.0000
  H   H2022     1.0  0.60184  0.26885  0.51777  1.0000
  H   H2023     1.0  0.71490  0.30039  0.36541  1.0000
  H   H2024     1.0  0.65410  0.27526  0.38347  1.0000
  S   S451      1.0  0.67842  0.28603  0.59251  1.0000
  C   C1699     1.0  0.69898  0.17491  0.59690  1.0000
  S   S452      1.0  0.51601  0.03250  0.33595  1.0000
  H   H2025     1.0  0.66543  0.25605  0.41023  1.0000
  Fe  Fe230     1.0  0.68056  0.25094  0.60752  1.0000
  C   C1700     1.0  0.61328  0.08930  0.63291  1.0000
  H   H2026     1.0  0.66785  0.24202  0.38126  1.0000
  H   H2027     1.0  0.68574  0.46923  0.38293  1.0000
  C   C1701     1.0  0.68487  0.31994  0.36237  1.0000
  H   H2028     1.0  0.54593  0.03642  0.54193  1.0000
  C   C1702     1.0  0.70285  0.16191  0.65109  1.0000
  S   S453      1.0  0.66814  0.25568  0.63688  1.0000
  C   C1703     1.0  0.53863  0.02019  0.58019  1.0000
  C   C1704     1.0  0.60500  0.07501  0.59329  1.0000
  C   C1705     1.0  0.73220  0.01570  0.65051  1.0000
  C   C1706     1.0  0.70566  0.31064  0.39337  1.0000
  H   H2029     1.0  0.68401  0.33463  0.36742  1.0000
  H   H2030     1.0  0.69256  0.39614  0.63424  1.0000
  H   H2031     1.0  0.69183  0.03922  0.38599  1.0000
  H   H2032     1.0  0.67857  0.26081  0.40497  1.0000
  H   H2033     1.0  0.73468  0.38958  0.41635  1.0000
  S   S454      1.0  0.52652  0.00038  0.63961  1.0000
  H   H2034     1.0  0.65721  0.18365  0.64239  1.0000
  H   H2035     1.0  0.70743  0.32478  0.63400  1.0000
  H   H2036     1.0  0.72854  0.36085  0.34494  1.0000
  C   C1707     1.0  0.73590  0.09760  0.61805  1.0000
  H   H2037     1.0  0.71139  0.00647  0.36794  1.0000
  C   C1708     1.0  0.68377  0.00786  0.45259  1.0000
  C   C1709     1.0  0.69142  0.02316  0.38463  1.0000
  H   H2038     1.0  0.51594  0.09804  0.39068  1.0000
  S   S455      1.0  0.71699  0.04608  0.33127  1.0000
  H   H2039     1.0  0.72142  0.46007  0.33809  1.0000
  H   H2040     1.0  0.59649  0.08039  0.59806  1.0000
  C   C1710     1.0  0.67053  0.32384  0.65127  1.0000
  C   C1711     1.0  0.68042  0.18801  0.65067  1.0000
  H   H2041     1.0  0.69745  0.47611  0.34829  1.0000
  C   C1712     1.0  0.67898  0.47931  0.32519  1.0000
  C   C1713     1.0  0.69357  0.29668  0.33799  1.0000
  S   S456      1.0  0.52386  0.06029  0.64710  1.0000
  C   C1714     1.0  0.73158  0.01846  0.62954  1.0000
  H   H2042     1.0  0.61232  0.24966  0.64691  1.0000
  H   H2043     1.0  0.61719  0.30958  0.60578  1.0000
  C   C1715     1.0  0.69645  0.00778  0.41837  1.0000
  H   H2044     1.0  0.51450  0.11778  0.33367  1.0000
  S   S457      1.0  0.52929  0.06898  0.33188  1.0000
  C   C1716     1.0  0.70983  0.00799  0.38457  1.0000
  H   H2045     1.0  0.67591  0.00673  0.46231  1.0000
  C   C1717     1.0  0.71364  0.35467  0.64065  1.0000
  C   C1718     1.0  0.72901  0.44514  0.64802  1.0000
  C   C1719     1.0  0.56399  0.10900  0.65222  1.0000
  H   H2046     1.0  0.68012  0.00351  0.42555  1.0000
  C   C1720     1.0  0.49081  0.08912  0.32498  1.0000
  H   H2047     1.0  0.68529  0.19982  0.64612  1.0000
  H   H2048     1.0  0.64187  0.30699  0.64292  1.0000
  H   H2049     1.0  0.73521  0.06455  0.63045  1.0000
  C   C1721     1.0  0.73446  0.34528  0.34609  1.0000
  H   H2050     1.0  0.59382  0.08398  0.65186  1.0000
  H   H2051     1.0  0.72393  0.45915  0.64057  1.0000
  H   H2052     1.0  0.66260  0.35709  0.64895  1.0000
  H   H2053     1.0  0.61029  0.09215  0.64924  1.0000
  N   N114      1.0  0.69884  0.00600  0.39606  1.0000
  H   H2054     1.0  0.68300  0.02162  0.39085  1.0000
  H   H2055     1.0  0.69950  0.29333  0.32397  1.0000
  H   H2056     1.0  0.73425  0.29267  0.35430  1.0000
  H   H2057     1.0  0.60960  0.27733  0.61484  1.0000
  S   S458      1.0  0.73274  0.47033  0.39433  1.0000
  C   C1722     1.0  0.61540  0.26407  0.64339  1.0000
  C   C1723     1.0  0.62573  0.28477  0.65189  1.0000
  C   C1724     1.0  0.49563  0.99636  0.39154  1.0000
  H   H2058     1.0  0.71153  0.47180  0.32251  1.0000
  S   S459      1.0  0.54567  0.02510  0.65394  1.0000
  H   H2059     1.0  0.70387  0.46903  0.65424  1.0000
  Fe  Fe231     1.0  0.52893  0.02445  0.65477  1.0000
  S   S460      1.0  0.71283  0.42449  0.65483  1.0000
  H   H2060     1.0  0.72691  0.48155  0.79747  1.0000
  H   H2061     1.0  0.65904  0.48910  0.76748  1.0000
  H   H2062     1.0  0.64653  0.26982  0.67654  1.0000
  H   H2063     1.0  0.68001  0.29180  0.65676  1.0000
  H   H2064     1.0  0.66250  0.14717  0.66307  1.0000
  H   H2065     1.0  0.51526  0.04399  0.72715  1.0000
  H   H2066     1.0  0.70835  0.44375  0.89223  1.0000
  C   C1725     1.0  0.72292  0.45089  0.89314  1.0000
  C   C1726     1.0  0.52313  0.05078  0.76843  1.0000
  C   C1727     1.0  0.66667  0.47837  0.76368  1.0000
  C   C1728     1.0  0.69573  0.13959  0.68359  1.0000
  C   C1729     1.0  0.49937  0.06062  0.72407  1.0000
  H   H2067     1.0  0.71985  0.42301  0.78516  1.0000
  H   H2068     1.0  0.73370  0.00973  0.85076  1.0000
  H   H2069     1.0  0.73353  0.38947  0.90298  1.0000
  S   S461      1.0  0.73363  0.00896  0.74670  1.0000
  H   H2070     1.0  0.52396  0.04895  0.81985  1.0000
  H   H2071     1.0  0.72696  0.11629  0.65630  1.0000
  S   S462      1.0  0.53571  0.06042  0.68416  1.0000
  H   H2072     1.0  0.69942  0.44655  0.79693  1.0000
  C   C1730     1.0  0.70796  0.46540  0.69284  1.0000
  C   C1731     1.0  0.53247  0.99588  0.74013  1.0000
  C   C1732     1.0  0.68571  0.46868  0.76099  1.0000
  N   N115      1.0  0.69388  0.16134  0.66983  1.0000
  H   H2073     1.0  0.72908  0.44481  0.79403  1.0000
  H   H2074     1.0  0.73224  0.42627  0.83642  1.0000
  C   C1733     1.0  0.71641  0.43718  0.89456  1.0000
  H   H2075     1.0  0.70922  0.03798  0.77905  1.0000
  S   S463      1.0  0.72570  0.38433  0.81794  1.0000
  C   C1734     1.0  0.52470  0.03408  0.78647  1.0000
  H   H2076     1.0  0.71182  0.45056  0.68666  1.0000
  C   C1735     1.0  0.72980  0.46968  0.74224  1.0000
  C   C1736     1.0  0.67854  0.30780  0.65936  1.0000
  H   H2077     1.0  0.72637  0.04902  0.68085  1.0000
  C   C1737     1.0  0.73255  0.35104  0.77190  1.0000
  C   C1738     1.0  0.62511  0.28719  0.68741  1.0000
  H   H2078     1.0  0.60797  0.05380  0.66047  1.0000
  H   H2079     1.0  0.70535  0.42647  0.81685  1.0000
  C   C1739     1.0  0.69121  0.40120  0.82019  1.0000
  H   H2080     1.0  0.72963  0.03319  0.70534  1.0000
  H   H2081     1.0  0.52817  0.02034  0.82644  1.0000
  C   C1740     1.0  0.49565  0.99981  0.66863  1.0000
  Fe  Fe232     1.0  0.70598  0.40201  0.68362  1.0000
  S   S464      1.0  0.68872  0.40083  0.69121  1.0000
  H   H2082     1.0  0.55176  0.09062  0.66124  1.0000
  Fe  Fe233     1.0  0.71034  0.36973  0.72321  1.0000
  S   S465      1.0  0.69343  0.36555  0.73414  1.0000
  S   S466      1.0  0.72388  0.35196  0.73934  1.0000
  Fe  Fe234     1.0  0.69430  0.36495  0.70025  1.0000
  S   S467      1.0  0.69096  0.33762  0.68964  1.0000
  Fe  Fe235     1.0  0.68946  0.40165  0.72399  1.0000
  S   S468      1.0  0.67643  0.42375  0.74229  1.0000
  S   S469      1.0  0.71167  0.36650  0.69035  1.0000
  S   S470      1.0  0.70627  0.40562  0.71542  1.0000
  H   H2083     1.0  0.70874  0.03716  0.69937  1.0000
  C   C1741     1.0  0.73222  0.40773  0.66569  1.0000
  C   C1742     1.0  0.66718  0.46031  0.75638  1.0000
  C   C1743     1.0  0.67690  0.44631  0.75096  1.0000
  C   C1744     1.0  0.68625  0.45048  0.75325  1.0000
  C   C1745     1.0  0.73087  0.02723  0.84517  1.0000
  C   C1746     1.0  0.53090  0.05186  0.74961  1.0000
  H   H2084     1.0  0.65992  0.45725  0.75479  1.0000
  H   H2085     1.0  0.69379  0.43959  0.74935  1.0000
  S   S471      1.0  0.69867  0.07614  0.67524  1.0000
  H   H2086     1.0  0.51588  0.06292  0.76820  1.0000
  C   C1747     1.0  0.67584  0.48272  0.76616  1.0000
  C   C1748     1.0  0.72290  0.01936  0.66662  1.0000
  H   H2087     1.0  0.54635  0.03727  0.73347  1.0000
  H   H2088     1.0  0.50659  0.02013  0.66395  1.0000
  C   C1749     1.0  0.72417  0.45727  0.73762  1.0000
  C   C1750     1.0  0.54045  0.03669  0.74824  1.0000
  H   H2089     1.0  0.72264  0.46083  0.72194  1.0000
  C   C1751     1.0  0.48857  0.06414  0.73437  1.0000
  H   H2090     1.0  0.70900  0.99946  0.79168  1.0000
  H   H2091     1.0  0.49275  0.01750  0.73297  1.0000
  H   H2092     1.0  0.72113  0.07939  0.71981  1.0000
  H   H2093     1.0  0.71625  0.43073  0.74944  1.0000
  C   C1752     1.0  0.71292  0.46969  0.84604  1.0000
  C   C1753     1.0  0.71765  0.44881  0.84346  1.0000
  C   C1754     1.0  0.72257  0.10559  0.66850  1.0000
  H   H2094     1.0  0.48900  0.01020  0.67671  1.0000
  H   H2095     1.0  0.64120  0.30740  0.66940  1.0000
  H   H2096     1.0  0.71278  0.43763  0.84509  1.0000
  C   C1755     1.0  0.68292  0.33307  0.67470  1.0000
  C   C1756     1.0  0.72514  0.37474  0.79647  1.0000
  H   H2097     1.0  0.73609  0.41655  0.71949  1.0000
  C   C1757     1.0  0.51359  0.01116  0.81215  1.0000
  C   C1758     1.0  0.72393  0.36007  0.76200  1.0000
  C   C1759     1.0  0.71582  0.37628  0.76955  1.0000
  C   C1760     1.0  0.71640  0.38345  0.78683  1.0000
  N   N116      1.0  0.68836  0.43828  0.82615  1.0000
  H   H2098     1.0  0.68345  0.46855  0.68558  1.0000
  H   H2099     1.0  0.70912  0.38330  0.76204  1.0000
  H   H2100     1.0  0.71015  0.39607  0.79240  1.0000
  H   H2101     1.0  0.70632  0.06861  0.71290  1.0000
  C   C1761     1.0  0.71945  0.03751  0.79895  1.0000
  H   H2102     1.0  0.68329  0.47071  0.83099  1.0000
  C   C1762     1.0  0.71350  0.02834  0.79114  1.0000
  C   C1763     1.0  0.67496  0.34917  0.66648  1.0000
  H   H2103     1.0  0.71401  0.47551  0.68782  1.0000
  H   H2104     1.0  0.70150  0.45390  0.81891  1.0000
  C   C1764     1.0  0.72520  0.00294  0.82091  1.0000
  C   C1765     1.0  0.72509  0.09834  0.68841  1.0000
  H   H2105     1.0  0.62223  0.27208  0.69484  1.0000
  H   H2106     1.0  0.70853  0.00917  0.70433  1.0000
  H   H2107     1.0  0.68707  0.17793  0.69530  1.0000
  C   C1766     1.0  0.71930  0.08481  0.70432  1.0000
  H   H2108     1.0  0.69382  0.49323  0.65547  1.0000
  Fe  Fe236     1.0  0.51967  0.05704  0.68230  1.0000
  H   H2109     1.0  0.50671  0.00993  0.82586  1.0000
  H   H2110     1.0  0.56277  0.11160  0.66794  1.0000
  H   H2111     1.0  0.73559  0.06371  0.82274  1.0000
  H   H2112     1.0  0.52814  0.00909  0.73030  1.0000
  H   H2113     1.0  0.54962  0.00821  0.76434  1.0000
  C   C1767     1.0  0.71095  0.07864  0.70036  1.0000
  S   S472      1.0  0.50347  0.07369  0.69777  1.0000
  C   C1768     1.0  0.69913  0.44138  0.81420  1.0000
  S   S473      1.0  0.73659  0.06583  0.74933  1.0000
  H   H2114     1.0  0.51128  0.00821  0.79876  1.0000
  Fe  Fe237     1.0  0.53988  0.02454  0.68842  1.0000
  H   H2115     1.0  0.69788  0.39572  0.82785  1.0000
  C   C1769     1.0  0.68855  0.43000  0.84887  1.0000
  C   C1770     1.0  0.50370  0.03565  0.75565  1.0000
  C   C1771     1.0  0.68463  0.31238  0.67103  1.0000
  C   C1772     1.0  0.52122  0.03367  0.82373  1.0000
  C   C1773     1.0  0.72872  0.44221  0.83894  1.0000
  C   C1774     1.0  0.62121  0.26654  0.65655  1.0000
  N   N117      1.0  0.51664  0.03221  0.80664  1.0000
  H   H2116     1.0  0.71940  0.05427  0.79240  1.0000
  H   H2117     1.0  0.67864  0.13646  0.67629  1.0000
  N   N118      1.0  0.69810  0.47665  0.68513  1.0000
  C   C1775     1.0  0.64106  0.26817  0.66755  1.0000
  H   H2118     1.0  0.73267  0.06377  0.79882  1.0000
  N   N119      1.0  0.72383  0.01694  0.68857  1.0000
  C   C1776     1.0  0.50676  0.04919  0.80606  1.0000
  H   H2119     1.0  0.69493  0.41546  0.85166  1.0000
  C   C1777     1.0  0.72547  0.02502  0.81422  1.0000
  C   C1778     1.0  0.71456  0.09858  0.66422  1.0000
  C   C1779     1.0  0.73208  0.46540  0.76255  1.0000
  C   C1780     1.0  0.68099  0.45966  0.82410  1.0000
  N   N120      1.0  0.73242  0.03382  0.82181  1.0000
  C   C1781     1.0  0.72254  0.43612  0.77315  1.0000
  H   H2120     1.0  0.50839  0.06543  0.80305  1.0000
  C   C1782     1.0  0.73343  0.44262  0.89545  1.0000
  H   H2121     1.0  0.50963  0.02514  0.76390  1.0000
  C   C1783     1.0  0.73513  0.45604  0.83800  1.0000
  H   H2122     1.0  0.68935  0.13814  0.69822  1.0000
  H   H2123     1.0  0.50283  0.04884  0.79370  1.0000
  H   H2124     1.0  0.67267  0.45851  0.83245  1.0000
  H   H2125     1.0  0.67853  0.48570  0.71421  1.0000
  H   H2126     1.0  0.69012  0.44195  0.85576  1.0000
  H   H2127     1.0  0.68108  0.46776  0.80728  1.0000
  C   C1784     1.0  0.72057  0.44044  0.75303  1.0000
  C   C1785     1.0  0.50691  0.04642  0.73482  1.0000
  C   C1786     1.0  0.68533  0.42272  0.81806  1.0000
  H   H2128     1.0  0.52942  0.06434  0.73585  1.0000
  H   H2129     1.0  0.62948  0.28929  0.69831  1.0000
  H   H2130     1.0  0.63852  0.25277  0.67537  1.0000
  H   H2131     1.0  0.61798  0.30058  0.68680  1.0000
  H   H2132     1.0  0.69288  0.47208  0.76255  1.0000
  C   C1787     1.0  0.73090  0.40666  0.90066  1.0000
  C   C1788     1.0  0.71929  0.48408  0.84379  1.0000
  H   H2133     1.0  0.71544  0.40456  0.89852  1.0000
  C   C1789     1.0  0.67691  0.42846  0.80717  1.0000
  C   C1790     1.0  0.68894  0.38649  0.81159  1.0000
  C   C1791     1.0  0.67464  0.41352  0.79888  1.0000
  C   C1792     1.0  0.68071  0.39269  0.80085  1.0000
  C   C1793     1.0  0.69110  0.46107  0.69069  1.0000
  H   H2134     1.0  0.69074  0.29975  0.67729  1.0000
  H   H2135     1.0  0.73536  0.48800  0.83909  1.0000
  S   S474      1.0  0.52352  0.02115  0.68960  1.0000
  H   H2136     1.0  0.68934  0.45412  0.70795  1.0000
  C   C1794     1.0  0.48804  0.01472  0.72318  1.0000
  H   H2137     1.0  0.68079  0.42599  0.85814  1.0000
  H   H2138     1.0  0.73559  0.03472  0.85125  1.0000
  H   H2139     1.0  0.72204  0.06499  0.82229  1.0000
  H   H2140     1.0  0.70618  0.46069  0.71039  1.0000
  H   H2141     1.0  0.67210  0.44450  0.80438  1.0000
  H   H2142     1.0  0.69377  0.37033  0.81283  1.0000
  H   H2143     1.0  0.66833  0.41830  0.79024  1.0000
  H   H2144     1.0  0.67911  0.38144  0.79374  1.0000
  H   H2145     1.0  0.70732  0.49231  0.65598  1.0000
  C   C1795     1.0  0.73324  0.35854  0.78892  1.0000
  H   H2146     1.0  0.69330  0.37370  0.65609  1.0000
  C   C1796     1.0  0.72803  0.44856  0.77800  1.0000
  S   S475      1.0  0.69905  0.47751  0.85213  1.0000
  H   H2147     1.0  0.69609  0.12709  0.67519  1.0000
  H   H2148     1.0  0.72963  0.39273  0.67199  1.0000
  H   H2149     1.0  0.71987  0.46807  0.88960  1.0000
  C   C1797     1.0  0.54228  0.02032  0.76568  1.0000
  H   H2150     1.0  0.72234  0.03170  0.85303  1.0000
  C   C1798     1.0  0.72981  0.03258  0.68891  1.0000
  S   S476      1.0  0.55037  0.00101  0.70903  1.0000
  C   C1799     1.0  0.49293  0.03851  0.76582  1.0000
  C   C1800     1.0  0.70872  0.08511  0.68019  1.0000
  H   H2151     1.0  0.70546  0.02992  0.67126  1.0000
  H   H2152     1.0  0.73225  0.48258  0.72961  1.0000
  H   H2153     1.0  0.70345  0.13547  0.68859  1.0000
  H   H2154     1.0  0.62998  0.32130  0.65797  1.0000
  H   H2155     1.0  0.69492  0.44718  0.68300  1.0000
  H   H2156     1.0  0.71072  0.15664  0.65559  1.0000
  H   H2157     1.0  0.67346  0.36512  0.66923  1.0000
  H   H2158     1.0  0.50074  0.04703  0.82119  1.0000
  C   C1801     1.0  0.73042  0.47713  0.84012  1.0000
  H   H2159     1.0  0.52017  0.99755  0.81634  1.0000
  C   C1802     1.0  0.67683  0.15273  0.66747  1.0000
  C   C1803     1.0  0.50560  0.00553  0.66129  1.0000
  C   C1804     1.0  0.72043  0.41514  0.89809  1.0000
  H   H2160     1.0  0.69409  0.19320  0.67189  1.0000
  S   S477      1.0  0.48951  0.02349  0.79168  1.0000
  C   C1805     1.0  0.63637  0.30650  0.65871  1.0000
  C   C1806     1.0  0.73049  0.05760  0.81619  1.0000
  H   H2161     1.0  0.73304  0.39368  0.73981  1.0000
  S   S478      1.0  0.73560  0.10593  0.69319  1.0000
  C   C1807     1.0  0.71340  0.02059  0.70366  1.0000
  C   C1808     1.0  0.69410  0.17679  0.68186  1.0000
  C   C1809     1.0  0.72556  0.42581  0.65619  1.0000
  C   C1810     1.0  0.73068  0.49142  0.78253  1.0000
  H   H2162     1.0  0.71438  0.01855  0.72003  1.0000
  C   C1811     1.0  0.71297  0.02618  0.66036  1.0000
  H   H2163     1.0  0.49370  0.00577  0.71142  1.0000
  C   C1812     1.0  0.70088  0.48315  0.66174  1.0000
  H   H2164     1.0  0.51529  0.03287  0.83906  1.0000
  H   H2165     1.0  0.70971  0.34456  0.65530  1.0000
  C   C1813     1.0  0.66743  0.15869  0.66005  1.0000
  N   N121      1.0  0.63196  0.28680  0.66602  1.0000
  H   H2166     1.0  0.62237  0.25372  0.67013  1.0000
  C   C1814     1.0  0.68367  0.16726  0.66288  1.0000
  C   C1815     1.0  0.71336  0.00664  0.79823  1.0000
  H   H2167     1.0  0.53615  0.00534  0.79724  1.0000
  H   H2168     1.0  0.70142  0.17205  0.68834  1.0000
  C   C1816     1.0  0.53451  0.01885  0.78445  1.0000
  H   H2169     1.0  0.72875  0.67994  0.11187  1.0000
  Fe  Fe238     1.0  0.62273  0.86885  0.09925  1.0000
  S   S479      1.0  0.60956  0.85632  0.12432  1.0000
  S   S480      1.0  0.63475  0.88370  0.10426  1.0000
  Fe  Fe239     1.0  0.61490  0.86352  0.06303  1.0000
  S   S481      1.0  0.60087  0.85117  0.08486  1.0000
  S   S482      1.0  0.61930  0.86782  0.02758  1.0000
  Fe  Fe240     1.0  0.59905  0.87669  0.10221  1.0000
  S   S483      1.0  0.58359  0.90000  0.11065  1.0000
  Fe  Fe241     1.0  0.61257  0.83202  0.10466  1.0000
  S   S484      1.0  0.61349  0.79685  0.11462  1.0000
  S   S485      1.0  0.61205  0.89099  0.07843  1.0000
  S   S486      1.0  0.62680  0.84259  0.08171  1.0000
  C   C1817     1.0  0.71333  0.88066  0.99631  1.0000
  Fe  Fe242     1.0  0.54821  0.91289  0.21959  1.0000
  S   S487      1.0  0.55913  0.88471  0.20672  1.0000
  S   S488      1.0  0.54041  0.90541  0.25399  1.0000
  Fe  Fe243     1.0  0.68645  0.82927  0.13735  1.0000
  S   S489      1.0  0.69475  0.81858  0.10724  1.0000
  S   S490      1.0  0.67012  0.82208  0.15148  1.0000
  Fe  Fe244     1.0  0.70584  0.84337  0.14055  1.0000
  S   S491      1.0  0.71569  0.83400  0.11014  1.0000
  S   S492      1.0  0.71234  0.85071  0.16507  1.0000
  Fe  Fe245     1.0  0.70072  0.84890  0.09777  1.0000
  S   S493      1.0  0.69967  0.86735  0.06464  1.0000
  Fe  Fe246     1.0  0.70884  0.80448  0.12185  1.0000
  S   S494      1.0  0.71905  0.77179  0.11924  1.0000
  S   S495      1.0  0.69131  0.86097  0.12714  1.0000
  S   S496      1.0  0.70009  0.81237  0.15305  1.0000
  H   H2170     1.0  0.54456  0.97690  0.25309  1.0000
  N   N122      1.0  0.70322  0.72684  0.00373  1.0000
  N   N123      1.0  0.51244  0.96439  0.31482  1.0000
  H   H2171     1.0  0.51421  0.94485  0.29275  1.0000
  S   S497      1.0  0.72393  0.92821  0.26904  1.0000
  H   H2172     1.0  0.64128  0.75824  0.06114  1.0000
  Fe  Fe247     1.0  0.52554  0.92560  0.24410  1.0000
  C   C1818     1.0  0.54368  0.84841  0.24127  1.0000
  Fe  Fe248     1.0  0.71527  0.54912  0.23015  1.0000
  S   S498      1.0  0.70026  0.55840  0.21817  1.0000
  S   S499      1.0  0.73055  0.53134  0.21297  1.0000
  Fe  Fe249     1.0  0.69726  0.58859  0.22981  1.0000
  S   S500      1.0  0.69086  0.62276  0.21422  1.0000
  C   C1819     1.0  0.49698  0.94501  0.21426  1.0000
  S   S501      1.0  0.71313  0.58058  0.23862  1.0000
  C   C1820     1.0  0.60101  0.93475  0.17601  1.0000
  Fe  Fe250     1.0  0.53687  0.95969  0.21421  1.0000
  H   H2173     1.0  0.57755  0.93918  0.21248  1.0000
  Fe  Fe251     1.0  0.66874  0.72991  0.10553  1.0000
  S   S502      1.0  0.67670  0.73954  0.07170  1.0000
  S   S503      1.0  0.66089  0.75620  0.12311  1.0000
  Fe  Fe252     1.0  0.67692  0.68247  0.10683  1.0000
  S   S504      1.0  0.68543  0.68804  0.07270  1.0000
  S   S505      1.0  0.67846  0.64821  0.12524  1.0000
  Fe  Fe253     1.0  0.69054  0.71398  0.08016  1.0000
  S   S506      1.0  0.70752  0.71733  0.06859  1.0000
  Fe  Fe254     1.0  0.67077  0.71306  0.06701  1.0000
  S   S507      1.0  0.66351  0.72261  0.03843  1.0000
  S   S508      1.0  0.68319  0.70663  0.11465  1.0000
  S   S509      1.0  0.66165  0.70518  0.10057  1.0000
  C   C1821     1.0  0.70493  0.71250  0.98917  1.0000
  H   H2174     1.0  0.67624  0.56500  0.23674  1.0000
  H   H2175     1.0  0.54894  0.95666  0.31685  1.0000
  C   C1822     1.0  0.66723  0.70446  0.02160  1.0000
  C   C1823     1.0  0.67303  0.68365  0.02743  1.0000
  C   C1824     1.0  0.67597  0.66954  0.01365  1.0000
  S   S510      1.0  0.73230  0.95713  0.20947  1.0000
  C   C1825     1.0  0.69912  0.74925  0.99345  1.0000
  H   H2176     1.0  0.67518  0.67832  0.04262  1.0000
  H   H2177     1.0  0.68043  0.65341  0.01827  1.0000
  C   C1826     1.0  0.68774  0.62944  0.18924  1.0000
  C   C1827     1.0  0.68820  0.61369  0.17871  1.0000
  C   C1828     1.0  0.68533  0.61964  0.15906  1.0000
  C   C1829     1.0  0.68214  0.64133  0.14973  1.0000
  C   C1830     1.0  0.68185  0.65707  0.16012  1.0000
  C   C1831     1.0  0.68461  0.65112  0.17987  1.0000
  H   H2178     1.0  0.69074  0.59697  0.18568  1.0000
  H   H2179     1.0  0.68557  0.60742  0.15105  1.0000
  H   H2180     1.0  0.67925  0.67379  0.15323  1.0000
  H   H2181     1.0  0.68421  0.66333  0.18802  1.0000
  C   C1832     1.0  0.49301  0.90353  0.31743  1.0000
  C   C1833     1.0  0.61428  0.85891  0.99469  1.0000
  C   C1834     1.0  0.72509  0.84856  0.01056  1.0000
  C   C1835     1.0  0.72154  0.94602  0.28575  1.0000
  C   C1836     1.0  0.71216  0.94735  0.30139  1.0000
  C   C1837     1.0  0.61240  0.85605  0.01666  1.0000
  H   H2182     1.0  0.70707  0.63093  0.14486  1.0000
  C   C1838     1.0  0.58315  0.91643  0.19243  1.0000
  C   C1839     1.0  0.71562  0.75802  0.10412  1.0000
  C   C1840     1.0  0.70508  0.76105  0.10244  1.0000
  C   C1841     1.0  0.70250  0.74877  0.09134  1.0000
  C   C1842     1.0  0.71054  0.73401  0.08129  1.0000
  C   C1843     1.0  0.72109  0.73133  0.08263  1.0000
  C   C1844     1.0  0.72359  0.74302  0.09432  1.0000
  H   H2183     1.0  0.69891  0.77251  0.11004  1.0000
  H   H2184     1.0  0.69432  0.75082  0.09045  1.0000
  H   H2185     1.0  0.72733  0.71995  0.07492  1.0000
  N   N124      1.0  0.72449  0.86828  0.99356  1.0000
  C   C1845     1.0  0.71677  0.87359  0.16498  1.0000
  C   C1846     1.0  0.71725  0.89098  0.14770  1.0000
  C   C1847     1.0  0.72140  0.90822  0.14805  1.0000
  C   C1848     1.0  0.72498  0.90836  0.16575  1.0000
  C   C1849     1.0  0.72419  0.89128  0.18323  1.0000
  C   C1850     1.0  0.72020  0.87392  0.18276  1.0000
  H   H2186     1.0  0.71458  0.89098  0.13397  1.0000
  H   H2187     1.0  0.72364  0.49581  0.20150  1.0000
  C   C1851     1.0  0.50953  0.97694  0.18637  1.0000
  H   H2188     1.0  0.71974  0.86067  0.19628  1.0000
  C   C1852     1.0  0.70488  0.81506  0.04058  1.0000
  C   C1853     1.0  0.70490  0.82873  0.05309  1.0000
  C   C1854     1.0  0.69954  0.85016  0.04910  1.0000
  C   C1855     1.0  0.69412  0.85787  0.03253  1.0000
  H   H2189     1.0  0.70906  0.79847  0.04379  1.0000
  H   H2190     1.0  0.70925  0.82272  0.06560  1.0000
  H   H2191     1.0  0.68989  0.87442  0.02953  1.0000
  C   C1856     1.0  0.50644  0.90853  0.28475  1.0000
  C   C1857     1.0  0.49579  0.90892  0.29525  1.0000
  H   H2192     1.0  0.60766  0.94258  0.17045  1.0000
  H   H2193     1.0  0.62427  0.91340  0.13069  1.0000
  Fe  Fe255     1.0  0.69270  0.54449  0.25158  1.0000
  C   C1858     1.0  0.57691  0.89571  0.13743  1.0000
  C   C1859     1.0  0.57932  0.87594  0.15118  1.0000
  C   C1860     1.0  0.57377  0.87272  0.17238  1.0000
  C   C1861     1.0  0.56588  0.88932  0.18002  1.0000
  C   C1862     1.0  0.56358  0.90920  0.16636  1.0000
  C   C1863     1.0  0.56903  0.91232  0.14506  1.0000
  H   H2194     1.0  0.58532  0.86299  0.14541  1.0000
  H   H2195     1.0  0.57560  0.85732  0.18289  1.0000
  H   H2196     1.0  0.55756  0.92214  0.17214  1.0000
  H   H2197     1.0  0.56717  0.92769  0.13452  1.0000
  C   C1864     1.0  0.62644  0.78489  0.11795  1.0000
  C   C1865     1.0  0.63178  0.79515  0.12596  1.0000
  C   C1866     1.0  0.64227  0.78585  0.12812  1.0000
  C   C1867     1.0  0.64757  0.76680  0.12143  1.0000
  C   C1868     1.0  0.64227  0.75676  0.11304  1.0000
  C   C1869     1.0  0.63164  0.76561  0.11164  1.0000
  H   H2198     1.0  0.62776  0.81006  0.13084  1.0000
  H   H2199     1.0  0.64632  0.79356  0.13472  1.0000
  H   H2200     1.0  0.64629  0.74210  0.10783  1.0000
  H   H2201     1.0  0.62751  0.75773  0.10535  1.0000
  C   C1870     1.0  0.64421  0.86679  0.11838  1.0000
  C   C1871     1.0  0.64264  0.84688  0.13102  1.0000
  C   C1872     1.0  0.65050  0.83350  0.14174  1.0000
  C   C1873     1.0  0.66003  0.83976  0.13938  1.0000
  C   C1874     1.0  0.66151  0.85978  0.12696  1.0000
  C   C1875     1.0  0.65354  0.87340  0.11674  1.0000
  H   H2202     1.0  0.63540  0.84177  0.13250  1.0000
  H   H2203     1.0  0.64928  0.81815  0.15161  1.0000
  H   H2204     1.0  0.66880  0.86481  0.12521  1.0000
  H   H2205     1.0  0.65476  0.88887  0.10709  1.0000
  H   H2206     1.0  0.66058  0.65294  0.18555  1.0000
  H   H2207     1.0  0.69823  0.70501  0.03268  1.0000
  C   C1876     1.0  0.60496  0.84409  0.02957  1.0000
  H   H2208     1.0  0.72190  0.92145  0.13450  1.0000
  C   C1877     1.0  0.72069  0.55972  0.30229  1.0000
  C   C1878     1.0  0.72069  0.62760  0.18125  1.0000
  H   H2209     1.0  0.59346  0.82630  0.03068  1.0000
  H   H2210     1.0  0.60365  0.84126  0.04646  1.0000
  H   H2211     1.0  0.66771  0.82563  0.00605  1.0000
  S   S511      1.0  0.52793  0.95627  0.24790  1.0000
  H   H2212     1.0  0.71944  0.83882  0.01112  1.0000
  H   H2213     1.0  0.65084  0.85267  0.00787  1.0000
  C   C1879     1.0  0.63633  0.75871  0.02332  1.0000
  C   C1880     1.0  0.66433  0.71106  0.00199  1.0000
  C   C1881     1.0  0.59045  0.89784  0.00731  1.0000
  H   H2214     1.0  0.52629  0.95086  0.29382  1.0000
  H   H2215     1.0  0.64655  0.77964  0.06226  1.0000
  H   H2216     1.0  0.64227  0.86632  0.04046  1.0000
  H   H2217     1.0  0.69446  0.73244  0.03446  1.0000
  H   H2218     1.0  0.63548  0.73458  0.00842  1.0000
  C   C1882     1.0  0.50560  0.98824  0.28328  1.0000
  H   H2219     1.0  0.52226  0.98727  0.16126  1.0000
  H   H2220     1.0  0.66420  0.62470  0.21606  1.0000
  H   H2221     1.0  0.56896  0.87502  0.99740  1.0000
  H   H2222     1.0  0.50844  0.96172  0.22946  1.0000
  H   H2223     1.0  0.49379  0.94387  0.20116  1.0000
  H   H2224     1.0  0.72968  0.53024  0.25597  1.0000
  C   C1883     1.0  0.65595  0.63310  0.17093  1.0000
  H   H2225     1.0  0.66131  0.54992  0.24022  1.0000
  H   H2226     1.0  0.65500  0.58099  0.19013  1.0000
  C   C1884     1.0  0.72692  0.97118  0.29896  1.0000
  C   C1885     1.0  0.68238  0.51243  0.30048  1.0000
  H   H2227     1.0  0.64787  0.59474  0.24615  1.0000
  H   H2228     1.0  0.69372  0.69211  0.00852  1.0000
  N   N125      1.0  0.66837  0.82190  0.07628  1.0000
  C   C1886     1.0  0.67126  0.83947  0.08158  1.0000
  C   C1887     1.0  0.66035  0.81309  0.09425  1.0000
  C   C1888     1.0  0.67805  0.80447  0.07395  1.0000
  C   C1889     1.0  0.66385  0.83040  0.05717  1.0000
  C   C1890     1.0  0.65428  0.84642  0.05741  1.0000
  C   C1891     1.0  0.66866  0.82326  0.03799  1.0000
  C   C1892     1.0  0.64968  0.85436  0.03978  1.0000
  C   C1893     1.0  0.66399  0.83139  0.02046  1.0000
  C   C1894     1.0  0.65452  0.84680  0.02138  1.0000
  H   H2229     1.0  0.66439  0.85306  0.08401  1.0000
  H   H2230     1.0  0.67424  0.83399  0.09642  1.0000
  H   H2231     1.0  0.67758  0.84602  0.06880  1.0000
  H   H2232     1.0  0.65313  0.82544  0.09849  1.0000
  H   H2233     1.0  0.66354  0.80605  0.10885  1.0000
  H   H2234     1.0  0.65775  0.80024  0.09057  1.0000
  H   H2235     1.0  0.68464  0.81013  0.06136  1.0000
  H   H2236     1.0  0.68116  0.79841  0.08867  1.0000
  H   H2237     1.0  0.67639  0.79049  0.07032  1.0000
  H   H2238     1.0  0.65024  0.85294  0.07129  1.0000
  H   H2239     1.0  0.67606  0.81147  0.03606  1.0000
  S   S512      1.0  0.53613  0.99054  0.18975  1.0000
  C   C1895     1.0  0.69948  0.69553  0.99397  1.0000
  C   C1896     1.0  0.51379  0.99078  0.16821  1.0000
  N   N126      1.0  0.58091  0.89599  0.04595  1.0000
  C   C1897     1.0  0.59060  0.90088  0.04861  1.0000
  C   C1898     1.0  0.57187  0.91402  0.05045  1.0000
  C   C1899     1.0  0.57889  0.87634  0.06203  1.0000
  C   C1900     1.0  0.59924  0.83547  0.02061  1.0000
  C   C1901     1.0  0.63245  0.78014  0.02619  1.0000
  C   C1902     1.0  0.68113  0.50499  0.28402  1.0000
  Fe  Fe256     1.0  0.73566  0.93142  0.23774  1.0000
  H   H2240     1.0  0.69908  0.66123  0.12392  1.0000
  N   N127      1.0  0.49451  0.96749  0.21671  1.0000
  H   H2241     1.0  0.48964  0.91360  0.28629  1.0000
  H   H2242     1.0  0.58984  0.90220  0.06509  1.0000
  H   H2243     1.0  0.59774  0.88806  0.04499  1.0000
  H   H2244     1.0  0.57305  0.92911  0.03868  1.0000
  H   H2245     1.0  0.57095  0.91692  0.06645  1.0000
  H   H2246     1.0  0.56419  0.91095  0.04994  1.0000
  H   H2247     1.0  0.58494  0.86197  0.05794  1.0000
  H   H2248     1.0  0.57914  0.87742  0.07809  1.0000
  H   H2249     1.0  0.57093  0.87327  0.06370  1.0000
  C   C1903     1.0  0.58188  0.89295  0.02450  1.0000
  C   C1904     1.0  0.67314  0.67613  0.99396  1.0000
  H   H2250     1.0  0.52615  0.84363  0.31562  1.0000
  H   H2251     1.0  0.54506  0.99453  0.31951  1.0000
  C   C1905     1.0  0.65443  0.61277  0.17249  1.0000
  N   N128      1.0  0.71375  0.66954  0.12301  1.0000
  C   C1906     1.0  0.72374  0.67211  0.10702  1.0000
  C   C1907     1.0  0.70701  0.66235  0.11329  1.0000
  C   C1908     1.0  0.70798  0.69073  0.12776  1.0000
  C   C1909     1.0  0.71625  0.65464  0.14266  1.0000
  C   C1910     1.0  0.71218  0.63571  0.15180  1.0000
  C   C1911     1.0  0.72272  0.65929  0.15363  1.0000
  C   C1912     1.0  0.54713  0.96928  0.30353  1.0000
  H   H2252     1.0  0.49353  0.93433  0.22901  1.0000
  H   H2253     1.0  0.72207  0.68243  0.09170  1.0000
  H   H2254     1.0  0.53795  0.84442  0.28103  1.0000
  H   H2255     1.0  0.59216  0.91646  0.03841  1.0000
  S   S513      1.0  0.73072  0.92970  0.16517  1.0000
  H   H2256     1.0  0.73545  0.50104  0.28482  1.0000
  H   H2257     1.0  0.70537  0.70203  0.11376  1.0000
  H   H2258     1.0  0.70073  0.68927  0.14059  1.0000
  H   H2259     1.0  0.71299  0.69867  0.13249  1.0000
  H   H2260     1.0  0.59333  0.95547  0.19802  1.0000
  H   H2261     1.0  0.71025  0.88423  0.01239  1.0000
  C   C1913     1.0  0.58390  0.93322  0.20014  1.0000
  C   C1914     1.0  0.57396  0.88528  0.02015  1.0000
  S   S514      1.0  0.54858  0.93745  0.28377  1.0000
  C   C1915     1.0  0.61337  0.88606  0.15879  1.0000
  C   C1916     1.0  0.51155  0.89645  0.31867  1.0000
  C   C1917     1.0  0.54493  0.99074  0.30504  1.0000
  C   C1918     1.0  0.62649  0.79449  0.05781  1.0000
  H   H2262     1.0  0.49853  0.98513  0.23457  1.0000
  C   C1919     1.0  0.49862  0.98160  0.19658  1.0000
  H   H2263     1.0  0.68741  0.72302  0.02112  1.0000
  H   H2264     1.0  0.59026  0.89577  0.17094  1.0000
  H   H2265     1.0  0.62874  0.79999  0.06981  1.0000
  S   S515      1.0  0.53299  0.93075  0.20943  1.0000
  C   C1920     1.0  0.60048  0.91763  0.16774  1.0000
  H   H2266     1.0  0.50568  0.93803  0.21112  1.0000
  C   C1921     1.0  0.59128  0.90874  0.17645  1.0000
  H   H2267     1.0  0.72606  0.67343  0.14764  1.0000
  C   C1922     1.0  0.72866  0.55649  0.28434  1.0000
  C   C1923     1.0  0.65917  0.63722  0.18707  1.0000
  H   H2268     1.0  0.69715  0.76042  0.00431  1.0000
  C   C1924     1.0  0.49973  0.96834  0.23308  1.0000
  H   H2269     1.0  0.65151  0.76794  0.03955  1.0000
  C   C1925     1.0  0.73397  0.51483  0.25275  1.0000
  C   C1926     1.0  0.50742  0.85607  0.28664  1.0000
  N   N129      1.0  0.67818  0.75559  0.16545  1.0000
  C   C1927     1.0  0.66882  0.74570  0.17041  1.0000
  C   C1928     1.0  0.67605  0.76990  0.18022  1.0000
  C   C1929     1.0  0.67899  0.76879  0.14361  1.0000
  C   C1930     1.0  0.68828  0.73973  0.16738  1.0000
  C   C1931     1.0  0.68866  0.71756  0.17650  1.0000
  C   C1932     1.0  0.69809  0.74649  0.16109  1.0000
  C   C1933     1.0  0.69829  0.70327  0.17928  1.0000
  C   C1934     1.0  0.70767  0.73204  0.16371  1.0000
  C   C1935     1.0  0.70776  0.71053  0.17298  1.0000
  H   H2270     1.0  0.66699  0.73726  0.18724  1.0000
  H   H2271     1.0  0.66146  0.75795  0.16766  1.0000
  H   H2272     1.0  0.67006  0.73433  0.16008  1.0000
  H   H2273     1.0  0.67584  0.76064  0.19673  1.0000
  H   H2274     1.0  0.66828  0.78159  0.17994  1.0000
  H   H2275     1.0  0.68221  0.77964  0.17607  1.0000
  H   H2276     1.0  0.68150  0.75853  0.13179  1.0000
  H   H2277     1.0  0.67122  0.77969  0.14131  1.0000
  H   H2278     1.0  0.68462  0.77959  0.13966  1.0000
  H   H2279     1.0  0.68163  0.71088  0.18187  1.0000
  H   H2280     1.0  0.69846  0.76311  0.15431  1.0000
  H   H2281     1.0  0.71504  0.73777  0.15865  1.0000
  H   H2282     1.0  0.71518  0.69949  0.17535  1.0000
  C   C1936     1.0  0.52530  0.85226  0.26342  1.0000
  H   H2283     1.0  0.61495  0.79606  0.99309  1.0000
  H   H2284     1.0  0.61647  0.88364  0.17317  1.0000
  N   N130      1.0  0.60899  0.90908  0.15088  1.0000
  H   H2285     1.0  0.69838  0.68647  0.18652  1.0000
  C   C1937     1.0  0.69409  0.84414  0.01999  1.0000
  H   H2286     1.0  0.60733  0.87612  0.16288  1.0000
  C   C1938     1.0  0.65963  0.60002  0.20676  1.0000
  H   H2287     1.0  0.64226  0.74739  0.03125  1.0000
  C   C1939     1.0  0.51432  0.90218  0.29653  1.0000
  C   C1940     1.0  0.72487  0.64595  0.17266  1.0000
  C   C1941     1.0  0.69951  0.82273  0.02400  1.0000
  H   H2288     1.0  0.52256  0.90146  0.28863  1.0000
  H   H2289     1.0  0.49883  0.86004  0.28857  1.0000
  S   S516      1.0  0.50978  0.91572  0.25696  1.0000
  H   H2290     1.0  0.65802  0.57649  0.25912  1.0000
  C   C1942     1.0  0.54683  0.96424  0.28493  1.0000
  H   H2291     1.0  0.51023  0.86087  0.25332  1.0000
  H   H2292     1.0  0.59846  0.90145  0.13604  1.0000
  C   C1943     1.0  0.71010  0.96062  0.31559  1.0000
  H   H2293     1.0  0.62210  0.91844  0.15626  1.0000
  H   H2294     1.0  0.73323  0.83819  0.00842  1.0000
  H   H2295     1.0  0.52201  0.83948  0.23112  1.0000
  C   C1944     1.0  0.52282  0.84695  0.30185  1.0000
  N   N131      1.0  0.63582  0.78852  0.04093  1.0000
  S   S517      1.0  0.69966  0.80489  0.00899  1.0000
  C   C1945     1.0  0.51403  0.85659  0.26651  1.0000
  S   S518      1.0  0.68222  0.52102  0.25826  1.0000
  H   H2296     1.0  0.68398  0.52822  0.29748  1.0000
  C   C1946     1.0  0.73614  0.51146  0.23234  1.0000
  C   C1947     1.0  0.51119  0.98504  0.29931  1.0000
  C   C1948     1.0  0.52952  0.84751  0.28176  1.0000
  S   S519      1.0  0.55282  0.94212  0.22170  1.0000
  H   H2297     1.0  0.52115  0.87754  0.22507  1.0000
  H   H2298     1.0  0.71113  0.60823  0.17770  1.0000
  H   H2299     1.0  0.53553  0.83606  0.21674  1.0000
  H   H2300     1.0  0.73068  0.50138  0.32126  1.0000
  H   H2301     1.0  0.65207  0.60963  0.15969  1.0000
  H   H2302     1.0  0.72222  0.61739  0.19616  1.0000
  C   C1949     1.0  0.63250  0.75107  0.01013  1.0000
  H   H2303     1.0  0.54857  0.84891  0.22487  1.0000
  H   H2304     1.0  0.67657  0.59237  0.22428  1.0000
  C   C1950     1.0  0.51181  0.85119  0.30428  1.0000
  H   H2305     1.0  0.73644  0.95592  0.27329  1.0000
  H   H2306     1.0  0.70644  0.93807  0.30252  1.0000
  C   C1951     1.0  0.60103  0.83853  0.99865  1.0000
  C   C1952     1.0  0.57483  0.88178  0.00018  1.0000
  Fe  Fe257     1.0  0.54352  0.93634  0.25517  1.0000
  H   H2307     1.0  0.53493  0.87617  0.21253  1.0000
  C   C1953     1.0  0.54469  0.98067  0.26760  1.0000
  Fe  Fe258     1.0  0.70462  0.56497  0.27028  1.0000
  H   H2308     1.0  0.66407  0.55518  0.21226  1.0000
  H   H2309     1.0  0.72658  0.89154  0.19716  1.0000
  H   H2310     1.0  0.72853  0.88483  0.01272  1.0000
  H   H2311     1.0  0.72974  0.64988  0.18090  1.0000
  H   H2312     1.0  0.62026  0.80774  0.05156  1.0000
  H   H2313     1.0  0.54568  0.86070  0.24701  1.0000
  H   H2314     1.0  0.52929  0.88706  0.23571  1.0000
  C   C1954     1.0  0.68106  0.49981  0.32111  1.0000
  C   C1955     1.0  0.52924  0.87422  0.22817  1.0000
  C   C1956     1.0  0.71445  0.62243  0.17077  1.0000
  H   H2315     1.0  0.72657  0.55999  0.26925  1.0000
  H   H2316     1.0  0.53217  0.82013  0.24296  1.0000
  S   S520      1.0  0.70791  0.53280  0.26259  1.0000
  H   H2317     1.0  0.61081  0.90599  0.11897  1.0000
  S   S521      1.0  0.68849  0.57537  0.26243  1.0000
  N   N132      1.0  0.53210  0.85279  0.24189  1.0000
  H   H2318     1.0  0.54651  0.83225  0.25069  1.0000
  C   C1957     1.0  0.59281  0.94236  0.19195  1.0000
  H   H2319     1.0  0.61539  0.93750  0.13646  1.0000
  H   H2320     1.0  0.62008  0.87926  0.14675  1.0000
  C   C1958     1.0  0.73108  0.88148  0.99655  1.0000
  C   C1959     1.0  0.53036  0.83642  0.23279  1.0000
  C   C1960     1.0  0.60452  0.91127  0.13239  1.0000
  C   C1961     1.0  0.61803  0.92020  0.14336  1.0000
  H   H2321     1.0  0.60059  0.92819  0.12667  1.0000
  H   H2322     1.0  0.65489  0.64557  0.15693  1.0000
  H   H2323     1.0  0.50200  0.97593  0.28225  1.0000
  H   H2324     1.0  0.51500  0.96305  0.19287  1.0000
  H   H2325     1.0  0.70538  0.67379  0.09842  1.0000
  H   H2326     1.0  0.59694  0.90353  0.00898  1.0000
  H   H2327     1.0  0.57619  0.90938  0.19886  1.0000
  H   H2328     1.0  0.64687  0.80441  0.01588  1.0000
  C   C1962     1.0  0.66112  0.62093  0.20460  1.0000
  S   S522      1.0  0.70720  0.56738  0.30094  1.0000
  C   C1963     1.0  0.65941  0.56235  0.22603  1.0000
  C   C1964     1.0  0.71741  0.97267  0.31444  1.0000
  C   C1965     1.0  0.65619  0.59640  0.19013  1.0000
  H   H2329     1.0  0.68983  0.85008  0.00734  1.0000
  H   H2330     1.0  0.65075  0.56466  0.22689  1.0000
  C   C1966     1.0  0.64415  0.77288  0.05134  1.0000
  H   H2331     1.0  0.67838  0.57338  0.20850  1.0000
  H   H2332     1.0  0.71089  0.64653  0.10910  1.0000
  C   C1967     1.0  0.65662  0.58965  0.24514  1.0000
  H   H2333     1.0  0.65940  0.60315  0.24709  1.0000
  C   C1968     1.0  0.67385  0.57822  0.22358  1.0000
  N   N133      1.0  0.66225  0.58279  0.22501  1.0000
  C   C1969     1.0  0.64016  0.80787  0.02944  1.0000
  C   C1970     1.0  0.69546  0.72150  0.02384  1.0000
  H   H2334     1.0  0.65979  0.72711  0.99749  1.0000
  C   C1971     1.0  0.62097  0.78564  0.00147  1.0000
  H   H2335     1.0  0.49645  0.95902  0.24891  1.0000
  H   H2336     1.0  0.62147  0.80988  0.01588  1.0000
  C   C1972     1.0  0.72899  0.95778  0.28466  1.0000
  H   H2337     1.0  0.56709  0.88162  0.03222  1.0000
  C   C1973     1.0  0.62476  0.79342  0.01461  1.0000
  H   H2338     1.0  0.72860  0.65632  0.10392  1.0000
  H   H2339     1.0  0.63410  0.82144  0.02303  1.0000
  H   H2340     1.0  0.62270  0.78062  0.06636  1.0000
  H   H2341     1.0  0.70788  0.87188  0.99413  1.0000
  H   H2342     1.0  0.64315  0.81400  0.03998  1.0000
  H   H2343     1.0  0.72297  0.85230  0.02653  1.0000
  H   H2344     1.0  0.73174  0.74065  0.09555  1.0000
  C   C1974     1.0  0.51856  0.94712  0.30353  1.0000
  H   H2345     1.0  0.71457  0.51656  0.30703  1.0000
  H   H2346     1.0  0.71687  0.70894  0.01658  1.0000
  H   H2347     1.0  0.71232  0.73590  0.02049  1.0000
  H   H2348     1.0  0.73276  0.97996  0.29829  1.0000
  C   C1975     1.0  0.71342  0.72564  0.00911  1.0000
  C   C1976     1.0  0.62474  0.76443  0.99943  1.0000
  H   H2349     1.0  0.73507  0.83746  0.12974  1.0000
  H   H2350     1.0  0.49726  0.95788  0.31557  1.0000
  H   H2351     1.0  0.72655  0.99169  0.25024  1.0000
  H   H2352     1.0  0.70222  0.50861  0.32074  1.0000
  H   H2353     1.0  0.50663  0.85133  0.31981  1.0000
  H   H2354     1.0  0.52039  0.93148  0.31461  1.0000
  H   H2355     1.0  0.62166  0.75838  0.98946  1.0000
  H   H2356     1.0  0.65288  0.89218  0.99265  1.0000
  H   H2357     1.0  0.71945  0.73121  0.99505  1.0000
  C   C1977     1.0  0.52381  0.90659  0.38294  1.0000
  H   H2358     1.0  0.51878  0.94845  0.34250  1.0000
  H   H2359     1.0  0.70274  0.97158  0.40401  1.0000
  C   C1978     1.0  0.52131  0.87784  0.41352  1.0000
  H   H2360     1.0  0.71735  0.55882  0.33557  1.0000
  H   H2361     1.0  0.51415  0.97683  0.33976  1.0000
  C   C1979     1.0  0.50088  0.89742  0.32917  1.0000
  C   C1980     1.0  0.50271  0.96829  0.65372  1.0000
  H   H2362     1.0  0.50260  0.94414  0.33816  1.0000
  C   C1981     1.0  0.52607  0.89594  0.36609  1.0000
  C   C1982     1.0  0.51399  0.91384  0.41821  1.0000
  H   H2363     1.0  0.69973  0.98275  0.37834  1.0000
  H   H2364     1.0  0.50818  0.90861  0.43292  1.0000
  C   C1983     1.0  0.51264  0.97424  0.64597  1.0000
  H   H2365     1.0  0.68156  0.50602  0.33395  1.0000
  N   N134      1.0  0.51643  0.89966  0.40309  1.0000
  H   H2366     1.0  0.52123  0.91391  0.42325  1.0000
  H   H2367     1.0  0.70278  0.96153  0.32756  1.0000
  S   S523      1.0  0.49756  0.89083  0.35692  1.0000
  H   H2368     1.0  0.49983  0.89717  0.41366  1.0000
  C   C1984     1.0  0.52924  0.92331  0.37962  1.0000
  C   C1985     1.0  0.53656  0.92867  0.36075  1.0000
  H   H2369     1.0  0.49696  0.97240  0.33469  1.0000
  H   H2370     1.0  0.52789  0.93278  0.39120  1.0000
  C   C1986     1.0  0.50224  0.96218  0.38137  1.0000
  H   H2371     1.0  0.51605  0.87196  0.42883  1.0000
  H   H2372     1.0  0.54052  0.94164  0.35850  1.0000
  H   H2373     1.0  0.50315  0.91378  0.38796  1.0000
  H   H2374     1.0  0.52220  0.88318  0.36738  1.0000
  H   H2375     1.0  0.51038  0.93062  0.41135  1.0000
  C   C1987     1.0  0.53342  0.90144  0.34731  1.0000
  H   H2376     1.0  0.70678  0.52650  0.32999  1.0000
  S   S524      1.0  0.51755  0.98308  0.37997  1.0000
  H   H2377     1.0  0.52909  0.87758  0.41669  1.0000
  H   H2378     1.0  0.71581  0.50286  0.37477  1.0000
  C   C1988     1.0  0.51411  0.99285  0.64979  1.0000
  C   C1989     1.0  0.49181  0.95908  0.38593  1.0000
  H   H2379     1.0  0.51768  0.89137  0.32766  1.0000
  C   C1990     1.0  0.50186  0.95958  0.32624  1.0000
  H   H2380     1.0  0.72364  0.51445  0.34215  1.0000
  C   C1991     1.0  0.53870  0.91766  0.34470  1.0000
  H   H2381     1.0  0.52283  0.86596  0.40362  1.0000
  C   C1992     1.0  0.50618  0.89897  0.39900  1.0000
  H   H2382     1.0  0.50880  0.95002  0.37585  1.0000
  H   H2383     1.0  0.50687  0.88532  0.39184  1.0000
  C   C1993     1.0  0.51821  0.96394  0.33084  1.0000
  C   C1994     1.0  0.50423  0.98074  0.38424  1.0000
  H   H2384     1.0  0.49031  0.94486  0.38350  1.0000
  H   H2385     1.0  0.51918  0.96440  0.63700  1.0000
  S   S525      1.0  0.71432  0.98880  0.33306  1.0000
  H   H2386     1.0  0.53508  0.89305  0.33467  1.0000
  H   H2387     1.0  0.54441  0.92178  0.33011  1.0000
  H   H2388     1.0  0.50160  0.95405  0.65053  1.0000
  C   C1995     1.0  0.69754  0.98488  0.39497  1.0000
  H   H2389     1.0  0.68921  0.98280  0.40137  1.0000
  H   H2390     1.0  0.73624  0.54546  0.33829  1.0000
  C   C1996     1.0  0.70946  0.51205  0.32298  1.0000
  C   C1997     1.0  0.72523  0.49913  0.33711  1.0000
  H   H2391     1.0  0.52654  0.96575  0.32352  1.0000
  C   C1998     1.0  0.73417  0.54828  0.32327  1.0000
  H   H2392     1.0  0.70382  0.49594  0.40858  1.0000
  C   C1999     1.0  0.72348  0.55603  0.32169  1.0000
  C   C2000     1.0  0.70941  0.49552  0.37555  1.0000
  H   H2393     1.0  0.71592  0.99533  0.39194  1.0000
  Fe  Fe259     1.0  0.61515  0.84003  0.91282  1.0000
  H   H2394     1.0  0.65881  0.63272  0.90100  1.0000
  S   S526      1.0  0.63069  0.85091  0.90013  1.0000
  Fe  Fe260     1.0  0.59178  0.85050  0.91053  1.0000
  C   C2001     1.0  0.56413  0.82522  0.91123  1.0000
  S   S527      1.0  0.57797  0.87429  0.89775  1.0000
  H   H2395     1.0  0.57918  0.76065  0.88960  1.0000
  H   H2396     1.0  0.73034  0.89742  0.98542  1.0000
  H   H2397     1.0  0.73555  0.84869  0.91667  1.0000
  S   S528      1.0  0.60060  0.86070  0.92885  1.0000
  S   S529      1.0  0.60658  0.83239  0.89228  1.0000
  Fe  Fe261     1.0  0.54171  0.88103  0.82057  1.0000
  S   S530      1.0  0.52824  0.90333  0.83739  1.0000
  S   S531      1.0  0.55673  0.85971  0.83075  1.0000
  Fe  Fe262     1.0  0.53132  0.89017  0.78270  1.0000
  S   S532      1.0  0.51712  0.91312  0.79605  1.0000
  S   S533      1.0  0.53468  0.88311  0.75037  1.0000
  Fe  Fe263     1.0  0.52882  0.92520  0.80537  1.0000
  S   S534      1.0  0.52623  0.96072  0.79924  1.0000
  Fe  Fe264     1.0  0.51759  0.88946  0.82678  1.0000
  S   S535      1.0  0.50251  0.88103  0.84811  1.0000
  S   S536      1.0  0.54313  0.90440  0.78926  1.0000
  S   S537      1.0  0.53092  0.86501  0.81271  1.0000
  H   H2398     1.0  0.65881  0.55488  0.87662  1.0000
  C   C2002     1.0  0.64604  0.58252  0.87970  1.0000
  C   C2003     1.0  0.69853  0.51290  0.68917  1.0000
  H   H2399     1.0  0.71936  0.97691  0.81811  1.0000
  C   C2004     1.0  0.56937  0.91872  0.76371  1.0000
  C   C2005     1.0  0.56532  0.89171  0.75115  1.0000
  Fe  Fe265     1.0  0.69445  0.50610  0.82741  1.0000
  H   H2400     1.0  0.60984  0.85292  0.96878  1.0000
  H   H2401     1.0  0.51870  0.99193  0.76542  1.0000
  S   S538      1.0  0.61399  0.80999  0.93802  1.0000
  H   H2402     1.0  0.53026  0.95158  0.73954  1.0000
  H   H2403     1.0  0.63651  0.88616  0.98704  1.0000
  Fe  Fe266     1.0  0.67334  0.82789  0.96128  1.0000
  H   H2404     1.0  0.71118  0.51188  0.71761  1.0000
  S   S539      1.0  0.65556  0.83303  0.97225  1.0000
  Fe  Fe267     1.0  0.69339  0.84177  0.93485  1.0000
  S   S540      1.0  0.70413  0.81205  0.94885  1.0000
  S   S541      1.0  0.69955  0.86702  0.90773  1.0000
  Fe  Fe268     1.0  0.69263  0.79469  0.94586  1.0000
  S   S542      1.0  0.69835  0.76118  0.94056  1.0000
  C   C2006     1.0  0.72306  0.84827  0.96803  1.0000
  C   C2007     1.0  0.71317  0.89838  0.93351  1.0000
  S   S543      1.0  0.68278  0.82379  0.92900  1.0000
  S   S544      1.0  0.68315  0.84804  0.96611  1.0000
  H   H2405     1.0  0.63478  0.88852  0.95092  1.0000
  C   C2008     1.0  0.49432  0.94119  0.76930  1.0000
  H   H2406     1.0  0.72413  0.50236  0.77516  1.0000
  C   C2009     1.0  0.70695  0.88546  0.93133  1.0000
  H   H2407     1.0  0.53283  0.89282  0.68284  1.0000
  H   H2408     1.0  0.65820  0.92153  0.89838  1.0000
  C   C2010     1.0  0.64702  0.60522  0.90207  1.0000
  Fe  Fe269     1.0  0.70264  0.53606  0.78761  1.0000
  S   S545      1.0  0.68628  0.55150  0.78204  1.0000
  S   S546      1.0  0.71674  0.54845  0.76595  1.0000
  H   H2409     1.0  0.58422  0.88311  0.96849  1.0000
  H   H2410     1.0  0.66129  0.93727  0.91277  1.0000
  S   S547      1.0  0.68226  0.79719  0.97767  1.0000
  H   H2411     1.0  0.56818  0.85511  0.73669  1.0000
  Fe  Fe270     1.0  0.68186  0.55138  0.81676  1.0000
  S   S548      1.0  0.67165  0.58170  0.82726  1.0000
  S   S549      1.0  0.66294  0.64793  0.93803  1.0000
  S   S550      1.0  0.69852  0.53802  0.82163  1.0000
  S   S551      1.0  0.68443  0.66667  0.91552  1.0000
  Fe  Fe271     1.0  0.65379  0.67966  0.92320  1.0000
  S   S552      1.0  0.66462  0.68022  0.89100  1.0000
  S   S553      1.0  0.63606  0.68342  0.92825  1.0000
  Fe  Fe272     1.0  0.67443  0.64974  0.90652  1.0000
  S   S554      1.0  0.68225  0.61874  0.89486  1.0000
  Fe  Fe273     1.0  0.67359  0.69693  0.90280  1.0000
  S   S555      1.0  0.67917  0.72688  0.88378  1.0000
  H   H2412     1.0  0.57233  0.78140  0.87204  1.0000
  S   S556      1.0  0.66191  0.69884  0.93371  1.0000
  C   C2011     1.0  0.67488  0.59206  0.84568  1.0000
  C   C2012     1.0  0.67026  0.61334  0.84756  1.0000
  C   C2013     1.0  0.67262  0.62197  0.86217  1.0000
  C   C2014     1.0  0.67938  0.60917  0.87547  1.0000
  C   C2015     1.0  0.68417  0.58803  0.87327  1.0000
  C   C2016     1.0  0.68197  0.57952  0.85839  1.0000
  H   H2413     1.0  0.66489  0.62324  0.83755  1.0000
  H   H2414     1.0  0.66930  0.63855  0.86302  1.0000
  H   H2415     1.0  0.68950  0.57809  0.88333  1.0000
  H   H2416     1.0  0.68557  0.56311  0.85713  1.0000
  C   C2017     1.0  0.72480  0.52634  0.70413  1.0000
  H   H2417     1.0  0.55574  0.85511  0.92019  1.0000
  C   C2018     1.0  0.49271  0.92395  0.84245  1.0000
  C   C2019     1.0  0.71953  0.54093  0.74174  1.0000
  C   C2020     1.0  0.71323  0.52899  0.73847  1.0000
  C   C2021     1.0  0.71588  0.52167  0.71973  1.0000
  C   C2022     1.0  0.72840  0.54583  0.72607  1.0000
  N   N135      1.0  0.64328  0.62509  0.91032  1.0000
  H   H2418     1.0  0.70633  0.52525  0.75040  1.0000
  H   H2419     1.0  0.51473  0.89919  0.67675  1.0000
  C   C2023     1.0  0.69243  0.75267  0.92502  1.0000
  C   C2024     1.0  0.69111  0.73152  0.93076  1.0000
  C   C2025     1.0  0.68704  0.72365  0.91810  1.0000
  C   C2026     1.0  0.68436  0.73684  0.89945  1.0000
  C   C2027     1.0  0.68555  0.75815  0.89376  1.0000
  C   C2028     1.0  0.68953  0.76613  0.90662  1.0000
  H   H2420     1.0  0.69313  0.72123  0.94517  1.0000
  H   H2421     1.0  0.68603  0.70730  0.92280  1.0000
  H   H2422     1.0  0.68342  0.76844  0.87940  1.0000
  H   H2423     1.0  0.69063  0.78244  0.90201  1.0000
  H   H2424     1.0  0.71627  0.72857  0.96418  1.0000
  H   H2425     1.0  0.65150  0.61459  0.93620  1.0000
  C   C2029     1.0  0.72595  0.84310  0.94819  1.0000
  C   C2030     1.0  0.70763  0.88204  0.91140  1.0000
  C   C2031     1.0  0.71455  0.89155  0.89379  1.0000
  H   H2426     1.0  0.71504  0.88911  0.87831  1.0000
  H   H2427     1.0  0.71260  0.90113  0.94884  1.0000
  H   H2428     1.0  0.53562  0.92840  0.72860  1.0000
  C   C2032     1.0  0.73110  0.53836  0.70733  1.0000
  H   H2429     1.0  0.51796  0.98148  0.72494  1.0000
  H   H2430     1.0  0.73479  0.50149  0.78692  1.0000
  C   C2033     1.0  0.65979  0.89928  0.93856  1.0000
  H   H2431     1.0  0.48881  0.89082  0.80703  1.0000
  H   H2432     1.0  0.63469  0.61099  0.88415  1.0000
  H   H2433     1.0  0.55752  0.96633  0.74131  1.0000
  C   C2034     1.0  0.57305  0.88151  0.78190  1.0000
  C   C2035     1.0  0.67794  0.90696  0.92528  1.0000
  H   H2434     1.0  0.65094  0.64323  0.88127  1.0000
  H   H2435     1.0  0.57571  0.87033  0.79535  1.0000
  C   C2036     1.0  0.57307  0.90299  0.78005  1.0000
  H   H2436     1.0  0.50002  0.95922  0.78428  1.0000
  H   H2437     1.0  0.55282  0.86060  0.76540  1.0000
  C   C2037     1.0  0.57533  0.83698  0.78388  1.0000
  C   C2038     1.0  0.53281  0.97037  0.77354  1.0000
  H   H2438     1.0  0.64821  0.77704  0.97234  1.0000
  H   H2439     1.0  0.72635  0.91101  0.88241  1.0000
  C   C2039     1.0  0.57341  0.84666  0.74802  1.0000
  C   C2040     1.0  0.54903  0.97182  0.74650  1.0000
  C   C2041     1.0  0.54371  0.96261  0.76659  1.0000
  H   H2440     1.0  0.56224  0.92553  0.73710  1.0000
  H   H2441     1.0  0.59786  0.89793  0.97454  1.0000
  H   H2442     1.0  0.73001  0.99219  0.83154  1.0000
  H   H2443     1.0  0.54808  0.95005  0.77700  1.0000
  C   C2042     1.0  0.52442  0.87862  0.74146  1.0000
  C   C2043     1.0  0.51418  0.89187  0.74364  1.0000
  C   C2044     1.0  0.50666  0.88924  0.73394  1.0000
  C   C2045     1.0  0.50923  0.87290  0.72277  1.0000
  C   C2046     1.0  0.51934  0.85936  0.72127  1.0000
  C   C2047     1.0  0.52694  0.86247  0.73018  1.0000
  H   H2444     1.0  0.51220  0.90456  0.75208  1.0000
  S   S557      1.0  0.50027  0.86874  0.71010  1.0000
  H   H2445     1.0  0.52140  0.84673  0.71266  1.0000
  H   H2446     1.0  0.53484  0.85229  0.72825  1.0000
  C   C2048     1.0  0.57264  0.87121  0.87774  1.0000
  C   C2049     1.0  0.57755  0.85503  0.86646  1.0000
  C   C2050     1.0  0.57268  0.85204  0.85178  1.0000
  C   C2051     1.0  0.56290  0.86526  0.84814  1.0000
  C   C2052     1.0  0.55818  0.88199  0.85878  1.0000
  C   C2053     1.0  0.56305  0.88494  0.87351  1.0000
  H   H2447     1.0  0.58509  0.84485  0.86916  1.0000
  H   H2448     1.0  0.57646  0.83933  0.84331  1.0000
  H   H2449     1.0  0.55068  0.89235  0.85603  1.0000
  H   H2450     1.0  0.55923  0.89761  0.88205  1.0000
  C   C2054     1.0  0.72097  0.90395  0.89609  1.0000
  C   C2055     1.0  0.62307  0.74770  0.92108  1.0000
  C   C2056     1.0  0.63044  0.72784  0.92385  1.0000
  C   C2057     1.0  0.62753  0.70894  0.92423  1.0000
  H   H2451     1.0  0.58372  0.83893  0.77975  1.0000
  H   H2452     1.0  0.70160  0.87829  0.94499  1.0000
  H   H2453     1.0  0.62524  0.76225  0.92095  1.0000
  H   H2454     1.0  0.63826  0.72711  0.92595  1.0000
  H   H2455     1.0  0.66516  0.70221  0.97302  1.0000
  C   C2058     1.0  0.65057  0.63966  0.89852  1.0000
  C   C2059     1.0  0.63731  0.84792  0.92021  1.0000
  C   C2060     1.0  0.63237  0.84163  0.94136  1.0000
  C   C2061     1.0  0.63792  0.83770  0.95733  1.0000
  C   C2062     1.0  0.64852  0.83972  0.95214  1.0000
  C   C2063     1.0  0.65343  0.84646  0.93101  1.0000
  C   C2064     1.0  0.64781  0.85066  0.91505  1.0000
  H   H2456     1.0  0.62430  0.83944  0.94536  1.0000
  H   H2457     1.0  0.63409  0.83250  0.97365  1.0000
  H   H2458     1.0  0.66158  0.84811  0.92696  1.0000
  H   H2459     1.0  0.65169  0.85537  0.89867  1.0000
  S   S558      1.0  0.72811  0.51662  0.68099  1.0000
  N   N136      1.0  0.70563  0.60410  0.79387  1.0000
  C   C2065     1.0  0.70897  0.60979  0.77048  1.0000
  C   C2066     1.0  0.71446  0.58755  0.80181  1.0000
  C   C2067     1.0  0.69617  0.59460  0.79909  1.0000
  C   C2068     1.0  0.70301  0.62255  0.80407  1.0000
  C   C2069     1.0  0.70009  0.61945  0.82642  1.0000
  C   C2070     1.0  0.70314  0.64392  0.79243  1.0000
  C   C2071     1.0  0.69767  0.63652  0.83648  1.0000
  C   C2072     1.0  0.70060  0.66092  0.80269  1.0000
  C   C2073     1.0  0.69790  0.65721  0.82466  1.0000
  H   H2460     1.0  0.70244  0.62117  0.76332  1.0000
  H   H2461     1.0  0.71618  0.61678  0.76539  1.0000
  H   H2462     1.0  0.71105  0.59542  0.76344  1.0000
  H   H2463     1.0  0.72157  0.59434  0.79919  1.0000
  H   H2464     1.0  0.71693  0.57382  0.79381  1.0000
  H   H2465     1.0  0.71219  0.58050  0.81895  1.0000
  H   H2466     1.0  0.68904  0.60683  0.79506  1.0000
  H   H2467     1.0  0.69753  0.58163  0.79052  1.0000
  H   H2468     1.0  0.69402  0.58728  0.81614  1.0000
  H   H2469     1.0  0.69957  0.60378  0.83634  1.0000
  H   H2470     1.0  0.70511  0.64797  0.77541  1.0000
  H   H2471     1.0  0.69552  0.63372  0.85359  1.0000
  H   H2472     1.0  0.70070  0.67712  0.79360  1.0000
  H   H2473     1.0  0.69591  0.67040  0.83261  1.0000
  N   N137      1.0  0.65469  0.77348  0.94004  1.0000
  C   C2074     1.0  0.66135  0.75256  0.94829  1.0000
  C   C2075     1.0  0.66121  0.78985  0.93403  1.0000
  C   C2076     1.0  0.64557  0.77860  0.95762  1.0000
  C   C2077     1.0  0.65081  0.77361  0.92145  1.0000
  C   C2078     1.0  0.65484  0.75700  0.91004  1.0000
  C   C2079     1.0  0.64313  0.79128  0.91357  1.0000
  C   C2080     1.0  0.65114  0.75775  0.89235  1.0000
  C   C2081     1.0  0.63947  0.79193  0.89587  1.0000
  C   C2082     1.0  0.64342  0.77511  0.88536  1.0000
  S   S559      1.0  0.58871  0.82164  0.93598  1.0000
  H   H2474     1.0  0.65699  0.73937  0.95249  1.0000
  H   H2475     1.0  0.66886  0.74849  0.93667  1.0000
  H   H2476     1.0  0.66833  0.78613  0.92133  1.0000
  C   C2083     1.0  0.51671  0.91019  0.68359  1.0000
  H   H2477     1.0  0.65667  0.80592  0.92778  1.0000
  C   C2084     1.0  0.49251  0.90312  0.85447  1.0000
  H   H2478     1.0  0.64097  0.79530  0.95409  1.0000
  H   H2479     1.0  0.63999  0.76774  0.96111  1.0000
  H   H2480     1.0  0.66098  0.74336  0.91424  1.0000
  H   H2481     1.0  0.63997  0.80493  0.92082  1.0000
  H   H2482     1.0  0.65441  0.74481  0.88394  1.0000
  H   H2483     1.0  0.63359  0.80569  0.89025  1.0000
  H   H2484     1.0  0.64055  0.77559  0.87169  1.0000
  H   H2485     1.0  0.55648  0.80352  0.87878  1.0000
  H   H2486     1.0  0.72204  0.83247  0.94493  1.0000
  C   C2085     1.0  0.50891  0.92735  0.68979  1.0000
  H   H2487     1.0  0.48850  0.86634  0.75500  1.0000
  C   C2086     1.0  0.52830  0.94096  0.73162  1.0000
  C   C2087     1.0  0.73566  0.87156  0.95591  1.0000
  C   C2088     1.0  0.72032  0.90737  0.91597  1.0000
  H   H2488     1.0  0.58182  0.76517  0.92035  1.0000
  H   H2489     1.0  0.56499  0.76916  0.89740  1.0000
  H   H2490     1.0  0.66389  0.75272  0.96261  1.0000
  C   C2089     1.0  0.55576  0.84319  0.91193  1.0000
  N   N138      1.0  0.56907  0.85257  0.76893  1.0000
  H   H2491     1.0  0.66402  0.79104  0.94766  1.0000
  C   C2090     1.0  0.54344  0.98867  0.73339  1.0000
  H   H2492     1.0  0.49808  0.87046  0.77968  1.0000
  C   C2091     1.0  0.48966  0.87774  0.78105  1.0000
  H   H2493     1.0  0.71562  0.50032  0.84565  1.0000
  H   H2494     1.0  0.64908  0.89657  0.92057  1.0000
  H   H2495     1.0  0.55718  0.83337  0.77816  1.0000
  H   H2496     1.0  0.64795  0.65518  0.90352  1.0000
  H   H2497     1.0  0.57575  0.90747  0.79168  1.0000
  C   C2092     1.0  0.71916  0.99398  0.81316  1.0000
  H   H2498     1.0  0.71684  0.84129  0.97961  1.0000
  C   C2093     1.0  0.70831  0.68601  0.96026  1.0000
  H   H2499     1.0  0.48760  0.92753  0.75203  1.0000
  H   H2500     1.0  0.54159  0.86095  0.90087  1.0000
  C   C2094     1.0  0.49076  0.97989  0.76198  1.0000
  H   H2501     1.0  0.50096  0.92981  0.68733  1.0000
  H   H2502     1.0  0.66583  0.88294  0.90302  1.0000
  C   C2095     1.0  0.73364  0.96749  0.76710  1.0000
  C   C2096     1.0  0.65018  0.89614  0.93597  1.0000
  C   C2097     1.0  0.54826  0.83198  0.88922  1.0000
  N   N139      1.0  0.57384  0.79115  0.89889  1.0000
  C   C2098     1.0  0.58358  0.79882  0.88628  1.0000
  C   C2099     1.0  0.57548  0.78009  0.92047  1.0000
  C   C2100     1.0  0.57245  0.77493  0.88905  1.0000
  C   C2101     1.0  0.56471  0.80976  0.89982  1.0000
  C   C2102     1.0  0.55655  0.81381  0.88859  1.0000
  H   H2503     1.0  0.62004  0.86811  0.98457  1.0000
  H   H2504     1.0  0.57551  0.82012  0.78398  1.0000
  H   H2505     1.0  0.67134  0.51725  0.72912  1.0000
  H   H2506     1.0  0.73331  0.55500  0.72859  1.0000
  H   H2507     1.0  0.58576  0.80940  0.89392  1.0000
  H   H2508     1.0  0.59059  0.78532  0.88422  1.0000
  H   H2509     1.0  0.58253  0.80803  0.87029  1.0000
  H   H2510     1.0  0.56802  0.77580  0.93109  1.0000
  H   H2511     1.0  0.57827  0.78993  0.92788  1.0000
  H   H2512     1.0  0.64218  0.57959  0.86891  1.0000
  Fe  Fe274     1.0  0.60416  0.80407  0.91908  1.0000
  H   H2513     1.0  0.52214  0.93277  0.74314  1.0000
  C   C2103     1.0  0.66052  0.89781  0.95957  1.0000
  C   C2104     1.0  0.73360  0.85215  0.93224  1.0000
  H   H2514     1.0  0.50484  0.95450  0.70308  1.0000
  H   H2515     1.0  0.68438  0.91009  0.91096  1.0000
  Fe  Fe275     1.0  0.59878  0.83019  0.95265  1.0000
  N   N140      1.0  0.52456  0.95305  0.71205  1.0000
  C   C2105     1.0  0.49547  0.95999  0.77290  1.0000
  H   H2516     1.0  0.51269  0.98119  0.70343  1.0000
  C   C2106     1.0  0.56935  0.87514  0.76722  1.0000
  C   C2107     1.0  0.67217  0.88553  0.90913  1.0000
  H   H2517     1.0  0.54065  0.95054  0.69311  1.0000
  H   H2518     1.0  0.63860  0.60818  0.94241  1.0000
  Fe  Fe276     1.0  0.67209  0.66735  0.94581  1.0000
  C   C2108     1.0  0.52690  0.90667  0.68700  1.0000
  C   C2109     1.0  0.51558  0.97087  0.71768  1.0000
  H   H2519     1.0  0.60238  0.73020  0.91636  1.0000
  C   C2110     1.0  0.48853  0.94222  0.75468  1.0000
  C   C2111     1.0  0.64334  0.62041  0.93313  1.0000
  Fe  Fe277     1.0  0.69302  0.81660  0.97969  1.0000
  S   S560      1.0  0.67739  0.51929  0.82539  1.0000
  H   H2520     1.0  0.66143  0.59383  0.91481  1.0000
  H   H2521     1.0  0.66752  0.89971  0.96323  1.0000
  H   H2522     1.0  0.63188  0.64325  0.89116  1.0000
  C   C2112     1.0  0.56547  0.91312  0.74933  1.0000
  C   C2113     1.0  0.53325  0.96270  0.69685  1.0000
  H   H2523     1.0  0.50884  0.96468  0.72940  1.0000
  C   C2114     1.0  0.64287  0.89017  0.97363  1.0000
  Fe  Fe278     1.0  0.68362  0.51782  0.79111  1.0000
  H   H2524     1.0  0.66809  0.56191  0.90016  1.0000
  N   N141      1.0  0.66850  0.90373  0.91995  1.0000
  C   C2115     1.0  0.61736  0.70999  0.92172  1.0000
  H   H2525     1.0  0.68112  0.54625  0.71960  1.0000
  H   H2526     1.0  0.67106  0.92766  0.89114  1.0000
  H   H2527     1.0  0.72565  0.98270  0.69571  1.0000
  H   H2528     1.0  0.53084  0.97141  0.68167  1.0000
  C   C2116     1.0  0.72789  0.86259  0.97258  1.0000
  H   H2529     1.0  0.56167  0.88837  0.74033  1.0000
  H   H2530     1.0  0.57177  0.83872  0.80046  1.0000
  C   C2117     1.0  0.58341  0.88642  0.98380  1.0000
  H   H2531     1.0  0.63999  0.63507  0.93985  1.0000
  H   H2532     1.0  0.61504  0.69550  0.92213  1.0000
  S   S561      1.0  0.60341  0.77264  0.91362  1.0000
  C   C2118     1.0  0.64184  0.60061  0.88856  1.0000
  H   H2533     1.0  0.53549  0.97431  0.70314  1.0000
  C   C2119     1.0  0.71377  0.70248  0.95507  1.0000
  S   S562      1.0  0.72849  0.92250  0.91928  1.0000
  H   H2534     1.0  0.57036  0.82404  0.91904  1.0000
  H   H2535     1.0  0.67500  0.87042  0.92007  1.0000
  C   C2120     1.0  0.61294  0.74858  0.91824  1.0000
  S   S563      1.0  0.70041  0.50241  0.79388  1.0000
  H   H2536     1.0  0.67897  0.88792  0.89539  1.0000
  H   H2537     1.0  0.49944  0.92691  0.82967  1.0000
  C   C2121     1.0  0.55788  0.85010  0.77640  1.0000
  H   H2538     1.0  0.55430  0.85452  0.79199  1.0000
  C   C2122     1.0  0.66458  0.92340  0.90494  1.0000
  H   H2539     1.0  0.69854  0.54360  0.69405  1.0000
  C   C2123     1.0  0.63231  0.63666  0.90801  1.0000
  H   H2540     1.0  0.62953  0.65084  0.91548  1.0000
  C   C2124     1.0  0.66062  0.57249  0.89731  1.0000
  C   C2125     1.0  0.65663  0.59073  0.90591  1.0000
  H   H2541     1.0  0.67589  0.92082  0.93294  1.0000
  H   H2542     1.0  0.58144  0.85039  0.74086  1.0000
  C   C2126     1.0  0.52165  0.93839  0.70258  1.0000
  C   C2127     1.0  0.51128  0.94139  0.69905  1.0000
  H   H2543     1.0  0.72896  0.96753  0.75633  1.0000
  C   C2128     1.0  0.64189  0.89160  0.95327  1.0000
  C   C2129     1.0  0.52717  0.98660  0.76015  1.0000
  H   H2544     1.0  0.68163  0.89236  0.93576  1.0000
  H   H2545     1.0  0.62651  0.62610  0.91566  1.0000
  H   H2546     1.0  0.70633  0.51220  0.67870  1.0000
  C   C2130     1.0  0.49420  0.98100  0.66520  1.0000
  H   H2547     1.0  0.49790  0.92575  0.77787  1.0000
  C   C2131     1.0  0.61017  0.72967  0.91850  1.0000
  C   C2132     1.0  0.65213  0.89342  0.97675  1.0000
  C   C2133     1.0  0.54784  0.84657  0.90095  1.0000
  H   H2548     1.0  0.57414  0.82929  0.74920  1.0000
  C   C2134     1.0  0.52936  0.92048  0.69640  1.0000
  H   H2549     1.0  0.49893  0.89988  0.73493  1.0000
  H   H2550     1.0  0.71901  0.70566  0.93965  1.0000
  H   H2551     1.0  0.53732  0.91684  0.69905  1.0000
  C   C2135     1.0  0.65540  0.56849  0.88407  1.0000
  H   H2552     1.0  0.54230  0.83518  0.87999  1.0000
  C   C2136     1.0  0.69415  0.53100  0.69795  1.0000
  H   H2553     1.0  0.56928  0.93537  0.76253  1.0000
  C   C2137     1.0  0.67887  0.51612  0.71765  1.0000
  C   C2138     1.0  0.68437  0.53252  0.71230  1.0000
  H   H2554     1.0  0.73331  0.93483  0.78352  1.0000
  C   C2139     1.0  0.72967  0.99497  0.69651  1.0000
  S   S564      1.0  0.67719  0.65799  0.97699  1.0000
  H   H2555     1.0  0.49192  0.99400  0.76530  1.0000
  H   H2556     1.0  0.71264  0.89620  0.98463  1.0000
  S   S565      1.0  0.67417  0.50669  0.77463  1.0000
  H   H2557     1.0  0.73017  0.99257  0.71327  1.0000
  H   H2558     1.0  0.70934  0.67629  0.94902  1.0000
  H   H2559     1.0  0.70498  0.75552  0.97944  1.0000
  C   C2140     1.0  0.71214  0.71553  0.96926  1.0000
  C   C2141     1.0  0.73609  0.94900  0.78247  1.0000
  C   C2142     1.0  0.68315  0.49796  0.70892  1.0000
  H   H2560     1.0  0.69180  0.75049  0.98796  1.0000
  C   C2143     1.0  0.60861  0.85015  0.98571  1.0000
  S   S566      1.0  0.59369  0.82773  0.98782  1.0000
  C   C2144     1.0  0.59110  0.89473  0.98728  1.0000
  C   C2145     1.0  0.70118  0.68257  0.97964  1.0000
  C   C2146     1.0  0.69315  0.49583  0.69432  1.0000
  H   H2561     1.0  0.69675  0.67004  0.98337  1.0000
  C   C2147     1.0  0.66732  0.69697  0.98815  1.0000
  C   C2148     1.0  0.91040  0.28890  0.03166  1.0000
  C   C2149     1.0  0.84199  0.07689  0.09355  1.0000
  C   C2150     1.0  0.74216  0.08407  0.18163  1.0000
  Fe  Fe279     1.0  0.80063  0.03520  0.18957  1.0000
  S   S567      1.0  0.79233  0.03916  0.22254  1.0000
  H   H2562     1.0  0.79770  0.04829  0.31653  1.0000
  Fe  Fe280     1.0  0.81058  0.07480  0.17895  1.0000
  S   S568      1.0  0.80309  0.08168  0.21117  1.0000
  S   S569      1.0  0.81890  0.09715  0.15095  1.0000
  Fe  Fe281     1.0  0.80779  0.04597  0.22285  1.0000
  Fe  Fe282     1.0  0.78835  0.07420  0.20782  1.0000
  S   S570      1.0  0.77244  0.09733  0.21157  1.0000
  S   S571      1.0  0.81650  0.03950  0.19089  1.0000
  S   S572      1.0  0.79543  0.06970  0.17469  1.0000
  Fe  Fe283     1.0  0.85560  0.17754  0.11862  1.0000
  S   S573      1.0  0.84640  0.18983  0.09285  1.0000
  S   S574      1.0  0.85317  0.14931  0.14614  1.0000
  Fe  Fe284     1.0  0.87072  0.20881  0.09845  1.0000
  S   S575      1.0  0.86263  0.22306  0.07128  1.0000
  S   S576      1.0  0.88581  0.22066  0.09381  1.0000
  Fe  Fe285     1.0  0.84739  0.22224  0.09542  1.0000
  S   S577      1.0  0.83428  0.25137  0.09001  1.0000
  Fe  Fe286     1.0  0.86242  0.18961  0.07109  1.0000
  S   S578      1.0  0.86845  0.17967  0.03989  1.0000
  S   S579      1.0  0.85539  0.21021  0.12296  1.0000
  S   S580      1.0  0.87171  0.17508  0.09641  1.0000
  Fe  Fe287     1.0  0.82499  0.38488  0.08109  1.0000
  S   S581      1.0  0.81614  0.37729  0.11496  1.0000
  S   S582      1.0  0.81863  0.39413  0.05158  1.0000
  Fe  Fe288     1.0  0.84601  0.38072  0.09197  1.0000
  S   S583      1.0  0.83928  0.37297  0.12674  1.0000
  S   S584      1.0  0.86326  0.37917  0.07569  1.0000
  Fe  Fe289     1.0  0.83090  0.35212  0.11930  1.0000
  S   S585      1.0  0.83143  0.31991  0.14100  1.0000
  Fe  Fe290     1.0  0.82507  0.39883  0.12012  1.0000
  S   S586      1.0  0.81832  0.42016  0.14355  1.0000
  S   S587      1.0  0.83883  0.35738  0.08505  1.0000
  S   S588      1.0  0.83264  0.40884  0.08582  1.0000
  N   N142      1.0  0.84186  0.29561  0.01875  1.0000
  S   S589      1.0  0.77294  0.43318  0.25008  1.0000
  N   N143      1.0  0.78762  0.42318  0.08481  1.0000
  Fe  Fe291     1.0  0.76003  0.38344  0.27163  1.0000
  S   S590      1.0  0.77641  0.38181  0.25078  1.0000
  H   H2563     1.0  0.83677  0.07190  0.10929  1.0000
  Fe  Fe292     1.0  0.77864  0.40167  0.27068  1.0000
  S   S591      1.0  0.79320  0.39540  0.28363  1.0000
  Fe  Fe293     1.0  0.76917  0.41336  0.23209  1.0000
  S   S592      1.0  0.77142  0.41871  0.19682  1.0000
  S   S593      1.0  0.76299  0.40006  0.29345  1.0000
  H   H2564     1.0  0.82866  0.28791  0.04428  1.0000
  Fe  Fe294     1.0  0.92280  0.31743  0.09457  1.0000
  S   S594      1.0  0.92979  0.28901  0.11760  1.0000
  S   S595      1.0  0.92791  0.32154  0.05896  1.0000
  Fe  Fe295     1.0  0.90729  0.33785  0.12912  1.0000
  S   S596      1.0  0.91276  0.31092  0.15473  1.0000
  S   S597      1.0  0.89375  0.36513  0.13701  1.0000
  Fe  Fe296     1.0  0.92935  0.31349  0.13581  1.0000
  S   S598      1.0  0.94185  0.31162  0.15432  1.0000
  Fe  Fe297     1.0  0.91265  0.28915  0.13438  1.0000
  S   S599      1.0  0.90427  0.26093  0.14807  1.0000
  S   S600      1.0  0.92372  0.34182  0.11124  1.0000
  S   S601      1.0  0.90579  0.31617  0.11050  1.0000
  H   H2565     1.0  0.87453  0.12421  0.04929  1.0000
  H   H2566     1.0  0.83066  0.11555  0.07737  1.0000
  Fe  Fe298     1.0  0.97483  0.38822  0.17829  1.0000
  S   S602      1.0  0.96750  0.41978  0.18811  1.0000
  S   S603      1.0  0.96724  0.38045  0.15529  1.0000
  C   C2151     1.0  0.89200  0.17274  0.15733  1.0000
  C   C2152     1.0  0.85730  0.10726  0.03233  1.0000
  Fe  Fe299     1.0  0.97079  0.40199  0.21978  1.0000
  S   S604      1.0  0.95972  0.40932  0.24979  1.0000
  C   C2153     1.0  0.78479  0.38654  0.08532  1.0000
  S   S605      1.0  0.97694  0.36985  0.21096  1.0000
  H   H2567     1.0  0.76530  0.49240  0.29383  1.0000
  C   C2154     1.0  0.96444  0.46982  0.23179  1.0000
  C   C2155     1.0  0.96413  0.44902  0.23165  1.0000
  C   C2156     1.0  0.95965  0.43572  0.25004  1.0000
  C   C2157     1.0  0.95556  0.44333  0.26872  1.0000
  C   C2158     1.0  0.95613  0.46407  0.26899  1.0000
  C   C2159     1.0  0.78977  0.01426  0.32037  1.0000
  H   H2568     1.0  0.96729  0.44345  0.21715  1.0000
  H   H2569     1.0  0.95206  0.43316  0.28299  1.0000
  H   H2570     1.0  0.95294  0.46990  0.28340  1.0000
  C   C2160     1.0  0.90855  0.28688  0.05347  1.0000
  H   H2571     1.0  0.88723  0.18353  0.00929  1.0000
  C   C2161     1.0  0.74165  0.10137  0.24118  1.0000
  H   H2572     1.0  0.95148  0.37238  0.99237  1.0000
  H   H2573     1.0  0.80626  0.27678  0.04139  1.0000
  C   C2162     1.0  0.94833  0.33159  0.15493  1.0000
  C   C2163     1.0  0.95352  0.32820  0.17149  1.0000
  C   C2164     1.0  0.95919  0.34304  0.17212  1.0000
  C   C2165     1.0  0.95989  0.36139  0.15596  1.0000
  C   C2166     1.0  0.95464  0.36485  0.13949  1.0000
  C   C2167     1.0  0.94882  0.35021  0.13906  1.0000
  H   H2574     1.0  0.95324  0.31384  0.18381  1.0000
  H   H2575     1.0  0.96316  0.34003  0.18491  1.0000
  H   H2576     1.0  0.95511  0.37892  0.12686  1.0000
  H   H2577     1.0  0.94489  0.35309  0.12622  1.0000
  C   C2168     1.0  0.92333  0.31032  0.02656  1.0000
  C   C2169     1.0  0.92138  0.30849  0.04847  1.0000
  C   C2170     1.0  0.91406  0.29650  0.06183  1.0000
  H   H2578     1.0  0.92926  0.31886  0.01609  1.0000
  H   H2579     1.0  0.91280  0.29420  0.07868  1.0000
  H   H2580     1.0  0.81175  0.36333  0.00007  1.0000
  C   C2171     1.0  0.82552  0.22143  0.03956  1.0000
  H   H2581     1.0  0.83095  0.20600  0.04014  1.0000
  H   H2582     1.0  0.80784  0.35538  0.27038  1.0000
  C   C2172     1.0  0.91775  0.30077  0.01811  1.0000
  C   C2173     1.0  0.86614  0.11485  0.03162  1.0000
  C   C2174     1.0  0.87172  0.37764  0.09208  1.0000
  C   C2175     1.0  0.86764  0.38299  0.11185  1.0000
  C   C2176     1.0  0.87451  0.38015  0.12528  1.0000
  C   C2177     1.0  0.88539  0.37134  0.11921  1.0000
  C   C2178     1.0  0.88948  0.36673  0.09914  1.0000
  C   C2179     1.0  0.88268  0.37003  0.08554  1.0000
  H   H2583     1.0  0.85922  0.38938  0.11678  1.0000
  H   H2584     1.0  0.87136  0.38420  0.14060  1.0000
  H   H2585     1.0  0.89793  0.36078  0.09401  1.0000
  H   H2586     1.0  0.88593  0.36639  0.07007  1.0000
  C   C2180     1.0  0.80518  0.42033  0.15797  1.0000
  C   C2181     1.0  0.80206  0.42539  0.17794  1.0000
  C   C2182     1.0  0.79171  0.42482  0.19008  1.0000
  C   C2183     1.0  0.78435  0.41990  0.18194  1.0000
  C   C2184     1.0  0.78739  0.41537  0.16174  1.0000
  C   C2185     1.0  0.79785  0.41526  0.14990  1.0000
  H   H2587     1.0  0.80773  0.42940  0.18418  1.0000
  H   H2588     1.0  0.78940  0.42834  0.20565  1.0000
  H   H2589     1.0  0.78169  0.41146  0.15555  1.0000
  H   H2590     1.0  0.80023  0.41157  0.13445  1.0000
  C   C2186     1.0  0.81044  0.34206  0.03072  1.0000
  C   C2187     1.0  0.81150  0.33878  0.05154  1.0000
  C   C2188     1.0  0.81446  0.35432  0.05790  1.0000
  C   C2189     1.0  0.81618  0.37334  0.04350  1.0000
  C   C2190     1.0  0.81536  0.37638  0.02258  1.0000
  H   H2591     1.0  0.78282  0.35599  0.08338  1.0000
  H   H2592     1.0  0.80985  0.32436  0.06286  1.0000
  H   H2593     1.0  0.81503  0.35196  0.07409  1.0000
  C   C2191     1.0  0.89946  0.20194  0.00250  1.0000
  H   H2594     1.0  0.97099  0.43189  0.29299  1.0000
  C   C2192     1.0  0.88994  0.23374  0.10888  1.0000
  C   C2193     1.0  0.88509  0.23405  0.13006  1.0000
  C   C2194     1.0  0.88952  0.24252  0.14188  1.0000
  C   C2195     1.0  0.89852  0.25162  0.13243  1.0000
  C   C2196     1.0  0.90306  0.25211  0.11105  1.0000
  C   C2197     1.0  0.89891  0.24285  0.09950  1.0000
  H   H2595     1.0  0.87823  0.22700  0.13757  1.0000
  H   H2596     1.0  0.88602  0.24188  0.15848  1.0000
  H   H2597     1.0  0.91008  0.25875  0.10363  1.0000
  H   H2598     1.0  0.90285  0.24230  0.08327  1.0000
  C   C2198     1.0  0.83292  0.27012  0.10498  1.0000
  C   C2199     1.0  0.83736  0.26423  0.12274  1.0000
  C   C2200     1.0  0.83669  0.27953  0.13402  1.0000
  C   C2201     1.0  0.83172  0.30084  0.12734  1.0000
  C   C2202     1.0  0.82717  0.30681  0.10969  1.0000
  C   C2203     1.0  0.82762  0.29135  0.09872  1.0000
  H   H2599     1.0  0.84111  0.24783  0.12809  1.0000
  H   H2600     1.0  0.84009  0.27484  0.14783  1.0000
  H   H2601     1.0  0.82322  0.32326  0.10464  1.0000
  H   H2602     1.0  0.82399  0.29593  0.08522  1.0000
  H   H2603     1.0  0.84949  0.06439  0.09211  1.0000
  C   C2204     1.0  0.86028  0.17172  0.02841  1.0000
  C   C2205     1.0  0.85063  0.16619  0.04006  1.0000
  H   H2604     1.0  0.82803  0.11076  0.10555  1.0000
  C   C2206     1.0  0.86790  0.11737  0.05011  1.0000
  H   H2605     1.0  0.84799  0.16691  0.05655  1.0000
  C   C2207     1.0  0.82353  0.23069  0.05693  1.0000
  C   C2208     1.0  0.82714  0.11317  0.15267  1.0000
  C   C2209     1.0  0.83414  0.10576  0.16642  1.0000
  C   C2210     1.0  0.84193  0.11722  0.16464  1.0000
  C   C2211     1.0  0.84277  0.13616  0.14916  1.0000
  C   C2212     1.0  0.83551  0.14391  0.13595  1.0000
  C   C2213     1.0  0.82777  0.13247  0.13768  1.0000
  H   H2606     1.0  0.83382  0.09082  0.17790  1.0000
  H   H2607     1.0  0.84746  0.11112  0.17503  1.0000
  H   H2608     1.0  0.83589  0.15862  0.12426  1.0000
  H   H2609     1.0  0.82231  0.13849  0.12716  1.0000
  H   H2610     1.0  0.74323  0.09498  0.18981  1.0000
  H   H2611     1.0  0.75038  0.46016  0.24060  1.0000
  C   C2214     1.0  0.75118  0.10555  0.22752  1.0000
  C   C2215     1.0  0.76096  0.09223  0.23077  1.0000
  C   C2216     1.0  0.76117  0.07491  0.24820  1.0000
  C   C2217     1.0  0.75156  0.07117  0.26241  1.0000
  C   C2218     1.0  0.78717  0.37553  0.05265  1.0000
  H   H2612     1.0  0.75097  0.11899  0.21415  1.0000
  H   H2613     1.0  0.76870  0.06456  0.25079  1.0000
  H   H2614     1.0  0.75169  0.05801  0.27603  1.0000
  C   C2219     1.0  0.77969  0.00697  0.20039  1.0000
  H   H2615     1.0  0.86262  0.11486  0.08305  1.0000
  H   H2616     1.0  0.75973  0.04338  0.20462  1.0000
  C   C2220     1.0  0.83454  0.30632  0.00422  1.0000
  H   H2617     1.0  0.80587  0.99791  0.25075  1.0000
  H   H2618     1.0  0.88425  0.34036  0.00064  1.0000
  C   C2221     1.0  0.74877  0.02329  0.25232  1.0000
  H   H2619     1.0  0.92565  0.37062  0.02753  1.0000
  H   H2620     1.0  0.87845  0.21501  0.02007  1.0000
  H   H2621     1.0  0.86153  0.21680  0.00409  1.0000
  H   H2622     1.0  0.91933  0.30214  0.00124  1.0000
  H   H2623     1.0  0.84642  0.32448  0.01857  1.0000
  H   H2624     1.0  0.85626  0.27109  0.08565  1.0000
  H   H2625     1.0  0.76346  0.09633  0.15253  1.0000
  C   C2222     1.0  0.81347  0.25208  0.02355  1.0000
  C   C2223     1.0  0.98508  0.30208  0.16002  1.0000
  H   H2626     1.0  0.86319  0.36165  0.04142  1.0000
  C   C2224     1.0  0.89444  0.18750  0.99877  1.0000
  H   H2627     1.0  0.88671  0.35138  0.03254  1.0000
  C   C2225     1.0  0.74578  0.47536  0.24410  1.0000
  H   H2628     1.0  0.81670  0.39108  0.01142  1.0000
  C   C2226     1.0  0.78326  0.48458  0.26569  1.0000
  H   H2629     1.0  0.83765  0.07661  0.08183  1.0000
  C   C2227     1.0  0.77794  0.05001  0.31169  1.0000
  C   C2228     1.0  0.88281  0.33809  0.04263  1.0000
  C   C2229     1.0  0.90136  0.18517  0.17678  1.0000
  C   C2230     1.0  0.79864  0.42636  0.08035  1.0000
  H   H2630     1.0  0.85333  0.33605  0.05182  1.0000
  H   H2631     1.0  0.93544  0.34834  0.01852  1.0000
  H   H2632     1.0  0.77554  0.41523  0.11265  1.0000
  H   H2633     1.0  0.74569  0.04030  0.25089  1.0000
  H   H2634     1.0  0.87875  0.34260  0.05808  1.0000
  H   H2635     1.0  0.76925  0.03583  0.16938  1.0000
  C   C2231     1.0  0.78747  0.40656  0.07412  1.0000
  H   H2636     1.0  0.85596  0.08637  0.11027  1.0000
  H   H2637     1.0  0.79039  0.48858  0.25353  1.0000
  C   C2232     1.0  0.78469  0.37132  0.07462  1.0000
  C   C2233     1.0  0.90592  0.19321  0.13876  1.0000
  C   C2234     1.0  0.86976  0.31720  0.04728  1.0000
  C   C2235     1.0  0.78067  0.44379  0.07682  1.0000
  C   C2236     1.0  0.85921  0.25083  0.99153  1.0000
  H   H2638     1.0  0.79919  0.43849  0.08834  1.0000
  H   H2639     1.0  0.79544  0.02106  0.27763  1.0000
  C   C2237     1.0  0.81789  0.00530  0.26166  1.0000
  H   H2640     1.0  0.85569  0.10633  0.01773  1.0000
  H   H2641     1.0  0.78291  0.46783  0.26653  1.0000
  C   C2238     1.0  0.74325  0.01044  0.24749  1.0000
  C   C2239     1.0  0.81239  0.21850  0.00221  1.0000
  H   H2642     1.0  0.90156  0.23996  0.00914  1.0000
  S   S606      1.0  0.84011  0.15005  0.99682  1.0000
  C   C2240     1.0  0.91916  0.36184  0.99533  1.0000
  S   S607      1.0  0.76422  0.00566  0.31405  1.0000
  N   N144      1.0  0.93445  0.37797  0.99513  1.0000
  C   C2241     1.0  0.83553  0.29573  0.04062  1.0000
  C   C2242     1.0  0.97338  0.30397  0.13761  1.0000
  H   H2643     1.0  0.78412  0.47341  0.23193  1.0000
  H   H2644     1.0  0.78455  0.48461  0.28130  1.0000
  C   C2243     1.0  0.84539  0.25485  0.03037  1.0000
  H   H2645     1.0  0.96179  0.36705  0.30923  1.0000
  H   H2646     1.0  0.81525  0.25778  0.07096  1.0000
  H   H2647     1.0  0.77830  0.05222  0.16576  1.0000
  H   H2648     1.0  0.90938  0.21756  0.02443  1.0000
  H   H2649     1.0  0.84535  0.30742  0.07580  1.0000
  C   C2244     1.0  0.79854  0.40538  0.31529  1.0000
  C   C2245     1.0  0.77021  0.05269  0.16385  1.0000
  H   H2650     1.0  0.83203  0.31234  0.04310  1.0000
  H   H2651     1.0  0.84050  0.28744  0.05248  1.0000
  N   N145      1.0  0.89484  0.21187  0.02112  1.0000
  C   C2246     1.0  0.74302  0.47842  0.26480  1.0000
  H   H2652     1.0  0.80413  0.41115  0.08581  1.0000
  H   H2653     1.0  0.80475  0.39100  0.31482  1.0000
  H   H2654     1.0  0.84015  0.25522  0.04566  1.0000
  H   H2655     1.0  0.87551  0.32247  0.00579  1.0000
  H   H2656     1.0  0.82738  0.22249  0.07003  1.0000
  N   N146      1.0  0.93347  0.40352  0.18337  1.0000
  C   C2247     1.0  0.92557  0.41935  0.19477  1.0000
  C   C2248     1.0  0.94061  0.39016  0.19770  1.0000
  C   C2249     1.0  0.94007  0.41513  0.16454  1.0000
  C   C2250     1.0  0.92787  0.39102  0.17661  1.0000
  C   C2251     1.0  0.92935  0.36833  0.18298  1.0000
  C   C2252     1.0  0.92067  0.40159  0.16306  1.0000
  C   C2253     1.0  0.92390  0.35712  0.17627  1.0000
  C   C2254     1.0  0.91528  0.39018  0.15643  1.0000
  C   C2255     1.0  0.91690  0.36800  0.16302  1.0000
  H   H2657     1.0  0.92019  0.41125  0.20858  1.0000
  H   H2658     1.0  0.92952  0.42853  0.20075  1.0000
  H   H2659     1.0  0.92049  0.43139  0.18458  1.0000
  H   H2660     1.0  0.94468  0.40001  0.20256  1.0000
  H   H2661     1.0  0.94708  0.37851  0.18984  1.0000
  H   H2662     1.0  0.93615  0.38126  0.21246  1.0000
  H   H2663     1.0  0.93520  0.42755  0.15420  1.0000
  H   H2664     1.0  0.94511  0.42334  0.16893  1.0000
  H   H2665     1.0  0.94556  0.40388  0.15473  1.0000
  H   H2666     1.0  0.93483  0.35874  0.19283  1.0000
  H   H2667     1.0  0.91920  0.41875  0.15735  1.0000
  H   H2668     1.0  0.92529  0.33977  0.18096  1.0000
  H   H2669     1.0  0.90983  0.39846  0.14603  1.0000
  Fe  Fe300     1.0  0.98414  0.42533  0.18082  1.0000
  N   N147      1.0  0.86909  0.31030  0.12297  1.0000
  C   C2256     1.0  0.86025  0.32594  0.11427  1.0000
  C   C2257     1.0  0.87868  0.30894  0.10543  1.0000
  C   C2258     1.0  0.86602  0.28922  0.13042  1.0000
  C   C2259     1.0  0.87151  0.31611  0.14055  1.0000
  C   C2260     1.0  0.86556  0.33433  0.14897  1.0000
  C   C2261     1.0  0.88017  0.30339  0.14965  1.0000
  C   C2262     1.0  0.86846  0.33973  0.16492  1.0000
  C   C2263     1.0  0.88306  0.30898  0.16544  1.0000
  C   C2264     1.0  0.87728  0.32727  0.17291  1.0000
  H   H2670     1.0  0.85873  0.32143  0.10085  1.0000
  H   H2671     1.0  0.85265  0.32695  0.12636  1.0000
  H   H2672     1.0  0.86205  0.34215  0.10829  1.0000
  H   H2673     1.0  0.88166  0.32407  0.10056  1.0000
  H   H2674     1.0  0.87700  0.30605  0.09135  1.0000
  H   H2675     1.0  0.88536  0.29562  0.10978  1.0000
  H   H2676     1.0  0.85885  0.28969  0.14365  1.0000
  H   H2677     1.0  0.86414  0.28430  0.11761  1.0000
  H   H2678     1.0  0.87247  0.27630  0.13619  1.0000
  H   H2679     1.0  0.85884  0.34505  0.14312  1.0000
  H   H2680     1.0  0.88493  0.28921  0.14427  1.0000
  H   H2681     1.0  0.86407  0.35412  0.17059  1.0000
  H   H2682     1.0  0.88996  0.29925  0.17155  1.0000
  H   H2683     1.0  0.87975  0.33199  0.18464  1.0000
  N   N148      1.0  0.80974  0.35018  0.19089  1.0000
  C   C2265     1.0  0.81832  0.36029  0.17578  1.0000
  C   C2266     1.0  0.81159  0.32809  0.18770  1.0000
  C   C2267     1.0  0.79936  0.36207  0.18560  1.0000
  C   C2268     1.0  0.80959  0.35106  0.21266  1.0000
  C   C2269     1.0  0.80801  0.37110  0.21798  1.0000
  C   C2270     1.0  0.81074  0.33247  0.22916  1.0000
  C   C2271     1.0  0.80744  0.37252  0.23853  1.0000
  C   C2272     1.0  0.81015  0.33410  0.24972  1.0000
  C   C2273     1.0  0.80845  0.35408  0.25440  1.0000
  H   H2684     1.0  0.82621  0.35242  0.17979  1.0000
  H   H2685     1.0  0.81898  0.35905  0.15935  1.0000
  H   H2686     1.0  0.81696  0.37766  0.17533  1.0000
  H   H2687     1.0  0.81953  0.31845  0.19042  1.0000
  H   H2688     1.0  0.81155  0.32813  0.17120  1.0000
  H   H2689     1.0  0.80526  0.31967  0.19810  1.0000
  H   H2690     1.0  0.79914  0.36199  0.16926  1.0000
  H   H2691     1.0  0.79267  0.35517  0.19676  1.0000
  H   H2692     1.0  0.79764  0.37912  0.18649  1.0000
  H   H2693     1.0  0.80708  0.38592  0.20631  1.0000
  H   H2694     1.0  0.81204  0.31652  0.22666  1.0000
  H   H2695     1.0  0.80605  0.38807  0.24227  1.0000
  H   H2696     1.0  0.81093  0.31980  0.26216  1.0000
  C   C2274     1.0  0.96896  0.36968  0.31169  1.0000
  H   H2697     1.0  0.90288  0.27774  0.06397  1.0000
  C   C2275     1.0  0.85746  0.23257  0.00697  1.0000
  C   C2276     1.0  0.97287  0.38785  0.29986  1.0000
  H   H2698     1.0  0.83839  0.20447  0.00482  1.0000
  C   C2277     1.0  0.81165  0.26130  0.04085  1.0000
  C   C2278     1.0  0.81668  0.25063  0.05751  1.0000
  H   H2699     1.0  0.83068  0.32304  0.00598  1.0000
  H   H2700     1.0  0.85619  0.30000  0.02403  1.0000
  C   C2279     1.0  0.97911  0.43014  0.29533  1.0000
  Fe  Fe301     1.0  0.80621  0.32643  0.98928  1.0000
  C   C2280     1.0  0.84708  0.27383  0.01504  1.0000
  H   H2701     1.0  0.79214  0.39779  0.02415  1.0000
  H   H2702     1.0  0.84252  0.09197  0.12481  1.0000
  H   H2703     1.0  0.83018  0.00760  0.27531  1.0000
  H   H2704     1.0  0.83723  0.15433  0.03954  1.0000
  C   C2281     1.0  0.73820  0.05568  0.16246  1.0000
  H   H2705     1.0  0.85417  0.31175  0.99777  1.0000
  H   H2706     1.0  0.86182  0.35345  0.01892  1.0000
  H   H2707     1.0  0.79276  0.42444  0.04214  1.0000
  C   C2282     1.0  0.74859  0.05424  0.16406  1.0000
  S   S608      1.0  0.81541  0.03300  0.25075  1.0000
  H   H2708     1.0  0.75971  0.09983  0.17938  1.0000
  H   H2709     1.0  0.75461  0.04144  0.15810  1.0000
  C   C2283     1.0  0.82058  0.23201  0.02219  1.0000
  C   C2284     1.0  0.98278  0.33241  0.13075  1.0000
  C   C2285     1.0  0.89409  0.19500  0.04080  1.0000
  C   C2286     1.0  0.77554  0.48730  0.20779  1.0000
  H   H2710     1.0  0.91298  0.20375  0.15803  1.0000
  C   C2287     1.0  0.90737  0.19470  0.15790  1.0000
  S   S609      1.0  0.95305  0.49426  0.31325  1.0000
  C   C2288     1.0  0.75092  0.06872  0.17339  1.0000
  C   C2289     1.0  0.78241  0.44242  0.31687  1.0000
  C   C2290     1.0  0.83055  0.20249  0.00385  1.0000
  C   C2291     1.0  0.84809  0.09756  0.10987  1.0000
  C   C2292     1.0  0.76450  0.08870  0.16891  1.0000
  H   H2711     1.0  0.84871  0.11368  0.11066  1.0000
  H   H2712     1.0  0.83541  0.13076  0.08965  1.0000
  C   C2293     1.0  0.85193  0.10371  0.07083  1.0000
  C   C2294     1.0  0.83416  0.11454  0.09085  1.0000
  H   H2713     1.0  0.96839  0.39889  0.28873  1.0000
  H   H2714     1.0  0.77867  0.43547  0.29062  1.0000
  C   C2295     1.0  0.75802  0.01426  0.26025  1.0000
  N   N149      1.0  0.76175  0.06726  0.17597  1.0000
  C   C2296     1.0  0.84803  0.15789  0.00905  1.0000
  S   S610      1.0  0.90354  0.27576  0.02222  1.0000
  C   C2297     1.0  0.84459  0.15898  0.03045  1.0000
  H   H2715     1.0  0.88434  0.29243  0.04796  1.0000
  H   H2716     1.0  0.75621  0.06997  0.20846  1.0000
  H   H2717     1.0  0.80547  0.00150  0.30265  1.0000
  H   H2718     1.0  0.89091  0.20202  0.05511  1.0000
  H   H2719     1.0  0.78285  0.38210  0.10233  1.0000
  C   C2298     1.0  0.87580  0.29627  0.05355  1.0000
  C   C2299     1.0  0.81255  0.36070  0.01614  1.0000
  H   H2720     1.0  0.77032  0.05778  0.14666  1.0000
  H   H2721     1.0  0.82808  0.29757  0.00740  1.0000
  C   C2300     1.0  0.86375  0.17039  0.00713  1.0000
  C   C2301     1.0  0.79931  0.99860  0.31660  1.0000
  S   S611      1.0  0.79962  0.00884  0.17551  1.0000
  H   H2722     1.0  0.77245  0.44175  0.07867  1.0000
  C   C2302     1.0  0.85056  0.23457  0.02631  1.0000
  H   H2723     1.0  0.93734  0.40485  0.00308  1.0000
  H   H2724     1.0  0.76999  0.05752  0.20153  1.0000
  H   H2725     1.0  0.98626  0.47913  0.24755  1.0000
  C   C2303     1.0  0.73808  0.36523  0.28534  1.0000
  H   H2726     1.0  0.88419  0.23725  0.00481  1.0000
  H   H2727     1.0  0.78643  0.04611  0.27251  1.0000
  H   H2728     1.0  0.78369  0.45049  0.05984  1.0000
  H   H2729     1.0  0.80608  0.23333  0.00020  1.0000
  H   H2730     1.0  0.98189  0.44501  0.28608  1.0000
  N   N150      1.0  0.87509  0.33423  0.03274  1.0000
  H   H2731     1.0  0.87798  0.18884  0.13209  1.0000
  H   H2732     1.0  0.76363  0.00753  0.21803  1.0000
  H   H2733     1.0  0.78912  0.40298  0.11537  1.0000
  C   C2304     1.0  0.85023  0.10195  0.05156  1.0000
  H   H2734     1.0  0.89468  0.13528  0.14688  1.0000
  C   C2305     1.0  0.89831  0.18258  0.13840  1.0000
  H   H2735     1.0  0.87159  0.19194  0.15846  1.0000
  C   C2306     1.0  0.79186  0.41181  0.30100  1.0000
  H   H2736     1.0  0.78390  0.43062  0.11564  1.0000
  C   C2307     1.0  0.78987  0.39490  0.04124  1.0000
  C   C2308     1.0  0.78392  0.43057  0.30152  1.0000
  H   H2737     1.0  0.86831  0.17333  0.14761  1.0000
  H   H2738     1.0  0.88157  0.13910  0.14224  1.0000
  H   H2739     1.0  0.80918  0.26075  0.01126  1.0000
  C   C2309     1.0  0.93205  0.40112  0.99503  1.0000
  H   H2740     1.0  0.89712  0.18302  0.12308  1.0000
  C   C2310     1.0  0.87498  0.17997  0.14829  1.0000
  H   H2741     1.0  0.77290  0.08774  0.16926  1.0000
  H   H2742     1.0  0.80191  0.43172  0.06319  1.0000
  H   H2743     1.0  0.84327  0.09703  0.05105  1.0000
  C   C2311     1.0  0.76197  0.05916  0.19860  1.0000
  H   H2744     1.0  0.84930  0.22028  0.03834  1.0000
  H   H2745     1.0  0.87581  0.26399  0.07161  1.0000
  H   H2746     1.0  0.74104  0.03048  0.20863  1.0000
  H   H2747     1.0  0.88931  0.16761  0.19184  1.0000
  H   H2748     1.0  0.78013  0.45633  0.08536  1.0000
  H   H2749     1.0  0.88039  0.23325  0.03305  1.0000
  H   H2750     1.0  0.73874  0.42912  0.21073  1.0000
  C   C2312     1.0  0.82553  0.99721  0.27397  1.0000
  H   H2751     1.0  0.88456  0.13810  0.18471  1.0000
  H   H2752     1.0  0.76186  0.02422  0.26473  1.0000
  C   C2313     1.0  0.86091  0.11199  0.06947  1.0000
  H   H2753     1.0  0.92365  0.40650  0.00324  1.0000
  C   C2314     1.0  0.87851  0.15094  0.17737  1.0000
  C   C2315     1.0  0.78782  0.03095  0.28453  1.0000
  H   H2754     1.0  0.91041  0.20119  0.12409  1.0000
  N   N151      1.0  0.82246  0.22284  0.00348  1.0000
  H   H2755     1.0  0.97592  0.27841  0.16433  1.0000
  H   H2756     1.0  0.89752  0.23332  0.03719  1.0000
  H   H2757     1.0  0.79572  0.06176  0.29031  1.0000
  H   H2758     1.0  0.88934  0.32380  0.04545  1.0000
  H   H2759     1.0  0.97184  0.33197  0.11270  1.0000
  H   H2760     1.0  0.97931  0.41550  0.26253  1.0000
  S   S612      1.0  0.75256  0.41351  0.25161  1.0000
  H   H2761     1.0  0.90204  0.18447  0.04203  1.0000
  C   C2316     1.0  0.90115  0.22622  0.02297  1.0000
  H   H2762     1.0  0.80472  0.03668  0.29412  1.0000
  H   H2763     1.0  0.89025  0.15563  0.12541  1.0000
  S   S613      1.0  0.80620  0.32281  0.02358  1.0000
  C   C2317     1.0  0.88772  0.14758  0.14217  1.0000
  H   H2764     1.0  0.96786  0.47992  0.21739  1.0000
  C   C2318     1.0  0.85386  0.30426  0.06946  1.0000
  C   C2319     1.0  0.78739  0.00079  0.18318  1.0000
  C   C2320     1.0  0.85859  0.32071  0.05567  1.0000
  H   H2765     1.0  0.91277  0.35920  0.15769  1.0000
  Fe  Fe302     1.0  0.75705  0.43014  0.27147  1.0000
  C   C2321     1.0  0.74177  0.08423  0.25865  1.0000
  H   H2766     1.0  0.91792  0.35512  0.01209  1.0000
  H   H2767     1.0  0.88768  0.31355  0.01494  1.0000
  C   C2322     1.0  0.85407  0.27113  0.99543  1.0000
  N   N152      1.0  0.84425  0.09826  0.09098  1.0000
  H   H2768     1.0  0.93944  0.36882  0.02491  1.0000
  C   C2323     1.0  0.89378  0.17430  0.17664  1.0000
  C   C2324     1.0  0.86001  0.28385  0.07511  1.0000
  H   H2769     1.0  0.80919  0.20736  0.01678  1.0000
  H   H2770     1.0  0.90246  0.18662  0.19162  1.0000
  N   N153      1.0  0.88349  0.16285  0.15650  1.0000
  H   H2771     1.0  0.87417  0.16178  0.18843  1.0000
  H   H2772     1.0  0.87188  0.36747  0.01637  1.0000
  C   C2325     1.0  0.88400  0.22487  0.01975  1.0000
  C   C2326     1.0  0.76965  0.00202  0.20525  1.0000
  H   H2773     1.0  0.78134  0.01605  0.20965  1.0000
  H   H2774     1.0  0.87242  0.14309  0.17599  1.0000
  H   H2775     1.0  0.78146  0.02229  0.28650  1.0000
  C   C2327     1.0  0.96052  0.47737  0.25045  1.0000
  C   C2328     1.0  0.79015  0.41011  0.05174  1.0000
  S   S614      1.0  0.98680  0.40956  0.21321  1.0000
  N   N154      1.0  0.98651  0.41070  0.28911  1.0000
  C   C2329     1.0  0.78386  0.41767  0.10811  1.0000
  C   C2330     1.0  0.97802  0.29331  0.15478  1.0000
  H   H2776     1.0  0.87140  0.11960  0.01657  1.0000
  C   C2331     1.0  0.85760  0.16368  0.99743  1.0000
  S   S615      1.0  0.74643  0.45735  0.28553  1.0000
  C   C2332     1.0  0.79691  0.04587  0.30142  1.0000
  H   H2777     1.0  0.96761  0.29751  0.13402  1.0000
  C   C2333     1.0  0.97577  0.32342  0.12561  1.0000
  H   H2778     1.0  0.77699  0.06550  0.29993  1.0000
  C   C2334     1.0  0.85002  0.30845  0.01465  1.0000
  C   C2335     1.0  0.93366  0.36594  0.01742  1.0000
  C   C2336     1.0  0.88089  0.32733  0.01275  1.0000
  C   C2337     1.0  0.86761  0.35500  0.02721  1.0000
  H   H2779     1.0  0.98392  0.34791  0.12122  1.0000
  N   N155      1.0  0.78806  0.03495  0.30493  1.0000
  H   H2780     1.0  0.87124  0.17451  0.99807  1.0000
  H   H2781     1.0  0.88866  0.18464  0.04168  1.0000
  C   C2338     1.0  0.87098  0.27987  0.06718  1.0000
  H   H2782     1.0  0.78730  0.36351  0.04442  1.0000
  S   S616      1.0  0.75188  0.35575  0.28239  1.0000
  H   H2783     1.0  0.82787  0.18962  0.01721  1.0000
  H   H2784     1.0  0.76346  0.47726  0.27725  1.0000
  H   H2785     1.0  0.90691  0.34777  0.99302  1.0000
  H   H2786     1.0  0.97828  0.42949  0.31234  1.0000
  H   H2787     1.0  0.77088  0.04341  0.31327  1.0000
  H   H2788     1.0  0.77611  0.45658  0.31757  1.0000
  C   C2339     1.0  0.98239  0.39160  0.30223  1.0000
  C   C2340     1.0  0.77768  0.48619  0.22726  1.0000
  H   H2789     1.0  0.78018  0.47560  0.19842  1.0000
  H   H2790     1.0  0.98237  0.34610  0.17649  1.0000
  C   C2341     1.0  0.76430  0.49328  0.27776  1.0000
  H   H2791     1.0  0.74430  0.48942  0.21193  1.0000
  C   C2342     1.0  0.74235  0.49192  0.22784  1.0000
  S   S617      1.0  0.98709  0.45904  0.16961  1.0000
  H   H2792     1.0  0.83198  0.19630  0.98931  1.0000
  H   H2793     1.0  0.81353  0.21114  0.98856  1.0000
  H   H2794     1.0  0.91307  0.21764  0.98857  1.0000
  H   H2795     1.0  0.75532  0.42180  0.34065  1.0000
  H   H2796     1.0  0.96381  0.48454  0.39894  1.0000
  N   N156      1.0  0.76406  0.08307  0.64335  1.0000
  H   H2797     1.0  0.76253  0.36378  0.36481  1.0000
  Fe  Fe303     1.0  0.77129  0.47321  0.35788  1.0000
  C   C2343     1.0  0.75003  0.10902  0.62505  1.0000
  S   S618      1.0  0.78607  0.44729  0.35347  1.0000
  C   C2344     1.0  0.75729  0.40078  0.38013  1.0000
  H   H2798     1.0  0.77756  0.05375  0.32700  1.0000
  H   H2799     1.0  0.74284  0.44916  0.35921  1.0000
  H   H2800     1.0  0.77440  0.01923  0.34303  1.0000
  H   H2801     1.0  0.75304  0.43400  0.41407  1.0000
  H   H2802     1.0  0.96578  0.48289  0.37235  1.0000
  H   H2803     1.0  0.73795  0.12998  0.60866  1.0000
  C   C2345     1.0  0.74859  0.07186  0.63713  1.0000
  H   H2804     1.0  0.74115  0.30446  0.36594  1.0000
  H   H2805     1.0  0.94668  0.44759  0.40341  1.0000
  C   C2346     1.0  0.76354  0.41573  0.34317  1.0000
  H   H2806     1.0  0.74164  0.46143  0.64335  1.0000
  C   C2347     1.0  0.78205  0.00872  0.33907  1.0000
  H   H2807     1.0  0.81461  0.45608  0.37228  1.0000
  C   C2348     1.0  0.79694  0.41696  0.33079  1.0000
  S   S619      1.0  0.76189  0.47397  0.39087  1.0000
  C   C2349     1.0  0.78872  0.43518  0.33195  1.0000
  H   H2808     1.0  0.77660  0.37486  0.37572  1.0000
  C   C2350     1.0  0.75886  0.41620  0.38932  1.0000
  C   C2351     1.0  0.94449  0.48755  0.42729  1.0000
  H   H2809     1.0  0.77855  0.40181  0.36548  1.0000
  C   C2352     1.0  0.74847  0.39096  0.39068  1.0000
  H   H2810     1.0  0.80723  0.44705  0.39843  1.0000
  Fe  Fe304     1.0  0.74680  0.01867  0.32331  1.0000
  H   H2811     1.0  0.76868  0.41267  0.32783  1.0000
  C   C2353     1.0  0.95357  0.45548  0.39886  1.0000
  S   S620      1.0  0.75374  0.49293  0.64181  1.0000
  H   H2812     1.0  0.77392  0.08816  0.61201  1.0000
  H   H2813     1.0  0.93981  0.47460  0.37398  1.0000
  N   N157      1.0  0.76442  0.39608  0.36007  1.0000
  C   C2354     1.0  0.73905  0.44646  0.64962  1.0000
  S   S621      1.0  0.75694  0.47906  0.34449  1.0000
  H   H2814     1.0  0.75348  0.12227  0.62405  1.0000
  H   H2815     1.0  0.74637  0.37963  0.38461  1.0000
  H   H2816     1.0  0.73778  0.41677  0.43132  1.0000
  H   H2817     1.0  0.79536  0.48248  0.35330  1.0000
  H   H2818     1.0  0.75091  0.05553  0.64535  1.0000
  H   H2819     1.0  0.78021  0.08799  0.63246  1.0000
  C   C2355     1.0  0.94654  0.48248  0.37146  1.0000
  H   H2820     1.0  0.81994  0.48763  0.36812  1.0000
  C   C2356     1.0  0.95967  0.48863  0.38575  1.0000
  H   H2821     1.0  0.95968  0.44795  0.38645  1.0000
  C   C2357     1.0  0.75197  0.42158  0.40775  1.0000
  C   C2358     1.0  0.76195  0.37914  0.35287  1.0000
  C   C2359     1.0  0.74335  0.41184  0.41756  1.0000
  H   H2822     1.0  0.80273  0.44713  0.37562  1.0000
  H   H2823     1.0  0.76524  0.42471  0.38199  1.0000
  H   H2824     1.0  0.78118  0.38465  0.34779  1.0000
  H   H2825     1.0  0.78548  0.46796  0.38667  1.0000
  C   C2360     1.0  0.75430  0.08780  0.63505  1.0000
  H   H2826     1.0  0.95718  0.45147  0.41282  1.0000
  H   H2827     1.0  0.75384  0.38409  0.34937  1.0000
  H   H2828     1.0  0.78364  0.49247  0.39445  1.0000
  S   S622      1.0  0.74124  0.05313  0.32520  1.0000
  C   C2361     1.0  0.78902  0.47643  0.39420  1.0000
  H   H2829     1.0  0.95237  0.48022  0.43018  1.0000
  C   C2362     1.0  0.80645  0.45619  0.38222  1.0000
  C   C2363     1.0  0.77564  0.38901  0.36244  1.0000
  H   H2830     1.0  0.95294  0.47562  0.35910  1.0000
  N   N158      1.0  0.80005  0.47823  0.38259  1.0000
  H   H2831     1.0  0.76585  0.42896  0.34674  1.0000
  S   S623      1.0  0.97400  0.45471  0.34265  1.0000
  N   N159      1.0  0.95022  0.47893  0.39123  1.0000
  C   C2364     1.0  0.74163  0.39652  0.40910  1.0000
  H   H2832     1.0  0.80190  0.41140  0.34227  1.0000
  Fe  Fe305     1.0  0.74753  0.48297  0.37682  1.0000
  H   H2833     1.0  0.77032  0.05178  0.63596  1.0000
  H   H2834     1.0  0.77051  0.11068  0.62436  1.0000
  H   H2835     1.0  0.78876  0.46718  0.41073  1.0000
  H   H2836     1.0  0.74403  0.30740  0.33772  1.0000
  H   H2837     1.0  0.97135  0.34067  0.33540  1.0000
  C   C2365     1.0  0.77250  0.09290  0.62731  1.0000
  C   C2366     1.0  0.98351  0.35837  0.32958  1.0000
  H   H2838     1.0  0.76759  0.37578  0.33795  1.0000
  H   H2839     1.0  0.73876  0.01558  0.61746  1.0000
  H   H2840     1.0  0.73888  0.34391  0.35828  1.0000
  C   C2367     1.0  0.74107  0.11370  0.61639  1.0000
  C   C2368     1.0  0.80509  0.48943  0.39209  1.0000
  C   C2369     1.0  0.73954  0.07680  0.62866  1.0000
  C   C2370     1.0  0.94197  0.48816  0.40800  1.0000
  H   H2841     1.0  0.80756  0.49005  0.35008  1.0000
  C   C2371     1.0  0.76865  0.05976  0.64936  1.0000
  H   H2842     1.0  0.74042  0.34630  0.33076  1.0000
  C   C2372     1.0  0.97432  0.35488  0.32642  1.0000
  H   H2843     1.0  0.73816  0.42054  0.34831  1.0000
  H   H2844     1.0  0.77629  0.05670  0.65442  1.0000
  C   C2373     1.0  0.79955  0.48992  0.36060  1.0000
  C   C2374     1.0  0.81551  0.49301  0.38241  1.0000
  Fe  Fe306     1.0  0.96874  0.48668  0.32229  1.0000
  H   H2845     1.0  0.74003  0.01086  0.65402  1.0000
  C   C2375     1.0  0.73751  0.30698  0.35223  1.0000
  Fe  Fe307     1.0  0.74321  0.03373  0.74082  1.0000
  S   S624      1.0  0.98159  0.42345  0.86077  1.0000
  H   H2846     1.0  0.79108  0.02487  0.72873  1.0000
  Fe  Fe308     1.0  0.76417  0.04495  0.71558  1.0000
  H   H2847     1.0  0.75763  0.39521  0.69785  1.0000
  Fe  Fe309     1.0  0.75294  0.06231  0.75466  1.0000
  S   S625      1.0  0.75488  0.06875  0.78427  1.0000
  Fe  Fe310     1.0  0.74377  0.07895  0.71559  1.0000
  H   H2848     1.0  0.98661  0.32028  0.85519  1.0000
  S   S626      1.0  0.75889  0.02883  0.74930  1.0000
  S   S627      1.0  0.74904  0.04712  0.70661  1.0000
  Fe  Fe311     1.0  0.84130  0.18534  0.91997  1.0000
  S   S628      1.0  0.85519  0.16675  0.90027  1.0000
  S   S629      1.0  0.83228  0.21671  0.90444  1.0000
  Fe  Fe312     1.0  0.84557  0.15580  0.96121  1.0000
  S   S630      1.0  0.85982  0.13496  0.94456  1.0000
  S   S631      1.0  0.74982  0.40775  0.80085  1.0000
  Fe  Fe313     1.0  0.86396  0.16618  0.92467  1.0000
  S   S632      1.0  0.88001  0.17598  0.91474  1.0000
  Fe  Fe314     1.0  0.84948  0.13762  0.92192  1.0000
  S   S633      1.0  0.84821  0.10705  0.91373  1.0000
  S   S634      1.0  0.85030  0.18663  0.94281  1.0000
  S   S635      1.0  0.83495  0.15663  0.94017  1.0000
  Fe  Fe315     1.0  0.80697  0.06160  0.81177  1.0000
  S   S636      1.0  0.82431  0.05694  0.81118  1.0000
  S   S637      1.0  0.80142  0.07619  0.78140  1.0000
  Fe  Fe316     1.0  0.80216  0.03793  0.85735  1.0000
  S   S638      1.0  0.81909  0.03130  0.86051  1.0000
  H   H2849     1.0  0.75153  0.37984  0.89752  1.0000
  Fe  Fe317     1.0  0.81872  0.06562  0.84319  1.0000
  S   S639      1.0  0.82458  0.09205  0.84987  1.0000
  Fe  Fe318     1.0  0.82303  0.02338  0.82850  1.0000
  S   S640      1.0  0.97111  0.49037  0.76082  1.0000
  S   S641      1.0  0.80132  0.07279  0.84228  1.0000
  S   S642      1.0  0.80617  0.02751  0.82681  1.0000
  N   N160      1.0  0.79875  0.01219  0.75498  1.0000
  C   C2376     1.0  0.85772  0.06168  0.84102  1.0000
  S   S643      1.0  0.77637  0.38302  0.76876  1.0000
  Fe  Fe319     1.0  0.76020  0.36591  0.84701  1.0000
  S   S644      1.0  0.76565  0.34249  0.87532  1.0000
  H   H2850     1.0  0.75546  0.08462  0.67496  1.0000
  H   H2851     1.0  0.77310  0.42190  0.78304  1.0000
  S   S645      1.0  0.81276  0.34891  0.95978  1.0000
  C   C2377     1.0  0.81405  0.11811  0.91635  1.0000
  Fe  Fe320     1.0  0.80225  0.29824  0.96481  1.0000
  S   S646      1.0  0.80833  0.31814  0.93341  1.0000
  S   S647      1.0  0.79776  0.26708  0.96829  1.0000
  Fe  Fe321     1.0  0.82140  0.31911  0.94761  1.0000
  S   S648      1.0  0.83851  0.30804  0.93201  1.0000
  Fe  Fe322     1.0  0.79907  0.34601  0.94790  1.0000
  S   S649      1.0  0.78988  0.37278  0.92676  1.0000
  H   H2852     1.0  0.76337  0.05152  0.66320  1.0000
  H   H2853     1.0  0.75486  0.43555  0.87627  1.0000
  H   H2854     1.0  0.96475  0.35099  0.89003  1.0000
  S   S650      1.0  0.91247  0.26724  0.96276  1.0000
  H   H2855     1.0  0.92187  0.38456  0.93513  1.0000
  Fe  Fe323     1.0  0.88734  0.31358  0.96078  1.0000
  S   S651      1.0  0.89592  0.29877  0.93298  1.0000
  H   H2856     1.0  0.80514  0.48185  0.70111  1.0000
  Fe  Fe324     1.0  0.89680  0.26697  0.95620  1.0000
  S   S652      1.0  0.88835  0.23999  0.96062  1.0000
  Fe  Fe325     1.0  0.91079  0.30060  0.94176  1.0000
  S   S653      1.0  0.92388  0.31429  0.91642  1.0000
  H   H2857     1.0  0.76445  0.33406  0.77686  1.0000
  S   S654      1.0  0.90195  0.31806  0.96775  1.0000
  Fe  Fe326     1.0  0.96386  0.38799  0.90446  1.0000
  S   S655      1.0  0.95455  0.36543  0.93037  1.0000
  H   H2858     1.0  0.97389  0.35288  0.86485  1.0000
  H   H2859     1.0  0.76541  0.39855  0.71382  1.0000
  N   N161      1.0  0.74964  0.39462  0.73047  1.0000
  S   S656      1.0  0.96232  0.39737  0.87066  1.0000
  C   C2378     1.0  0.87823  0.29502  0.89706  1.0000
  N   N162      1.0  0.85435  0.05094  0.82818  1.0000
  S   S657      1.0  0.96425  0.42113  0.90666  1.0000
  S   S658      1.0  0.75739  0.35627  0.81969  1.0000
  S   S659      1.0  0.76897  0.39147  0.82701  1.0000
  C   C2379     1.0  0.93155  0.32980  0.92113  1.0000
  C   C2380     1.0  0.93614  0.34458  0.90415  1.0000
  C   C2381     1.0  0.94291  0.35606  0.90688  1.0000
  C   C2382     1.0  0.94553  0.35228  0.92646  1.0000
  C   C2383     1.0  0.94088  0.33759  0.94350  1.0000
  C   C2384     1.0  0.93380  0.32666  0.94095  1.0000
  H   H2860     1.0  0.93442  0.34718  0.88878  1.0000
  H   H2861     1.0  0.94614  0.36775  0.89376  1.0000
  H   H2862     1.0  0.94275  0.33461  0.95877  1.0000
  H   H2863     1.0  0.93037  0.31526  0.95414  1.0000
  C   C2385     1.0  0.84755  0.31640  0.94091  1.0000
  C   C2386     1.0  0.85790  0.30404  0.94021  1.0000
  C   C2387     1.0  0.86530  0.31036  0.94714  1.0000
  C   C2388     1.0  0.86238  0.32916  0.95478  1.0000
  C   C2389     1.0  0.85196  0.34141  0.95580  1.0000
  C   C2390     1.0  0.84455  0.33502  0.94890  1.0000
  H   H2864     1.0  0.86016  0.28932  0.93464  1.0000
  H   H2865     1.0  0.87321  0.30049  0.94677  1.0000
  Fe  Fe327     1.0  0.76502  0.48310  0.69155  1.0000
  H   H2866     1.0  0.83657  0.34470  0.94944  1.0000
  C   C2391     1.0  0.77266  0.35092  0.88908  1.0000
  C   C2392     1.0  0.77657  0.36972  0.88080  1.0000
  C   C2393     1.0  0.78194  0.37622  0.89235  1.0000
  C   C2394     1.0  0.78362  0.36378  0.91207  1.0000
  C   C2395     1.0  0.77985  0.34483  0.92023  1.0000
  C   C2396     1.0  0.77426  0.33861  0.90889  1.0000
  H   H2867     1.0  0.77545  0.37930  0.86556  1.0000
  H   H2868     1.0  0.78489  0.39084  0.88593  1.0000
  H   H2869     1.0  0.78099  0.33528  0.93557  1.0000
  H   H2870     1.0  0.77101  0.32438  0.91562  1.0000
  H   H2871     1.0  0.78491  0.08960  0.92899  1.0000
  H   H2872     1.0  0.78140  0.04109  0.84758  1.0000
  H   H2873     1.0  0.84753  0.05747  0.80091  1.0000
  C   C2397     1.0  0.75055  0.42112  0.91880  1.0000
  H   H2874     1.0  0.74919  0.03159  0.81754  1.0000
  C   C2398     1.0  0.74365  0.02538  0.81226  1.0000
  H   H2875     1.0  0.77979  0.40208  0.72448  1.0000
  H   H2876     1.0  0.79894  0.03434  0.77333  1.0000
  C   C2399     1.0  0.81006  0.07703  0.93298  1.0000
  C   C2400     1.0  0.88275  0.19299  0.92784  1.0000
  C   C2401     1.0  0.87622  0.19706  0.94701  1.0000
  C   C2402     1.0  0.87830  0.21106  0.95687  1.0000
  C   C2403     1.0  0.88677  0.22163  0.94757  1.0000
  C   C2404     1.0  0.89347  0.21736  0.92851  1.0000
  C   C2405     1.0  0.89148  0.20298  0.91876  1.0000
  H   H2877     1.0  0.86962  0.18921  0.95440  1.0000
  H   H2878     1.0  0.87329  0.21367  0.97185  1.0000
  H   H2879     1.0  0.90010  0.22518  0.92126  1.0000
  H   H2880     1.0  0.89662  0.19984  0.90395  1.0000
  C   C2406     1.0  0.84112  0.10343  0.89653  1.0000
  C   C2407     1.0  0.83715  0.12032  0.88115  1.0000
  C   C2408     1.0  0.83205  0.11648  0.86723  1.0000
  C   C2409     1.0  0.83075  0.09579  0.86854  1.0000
  C   C2410     1.0  0.83457  0.07893  0.88413  1.0000
  C   C2411     1.0  0.83976  0.08274  0.89793  1.0000
  H   H2881     1.0  0.83816  0.13629  0.87976  1.0000
  H   H2882     1.0  0.82916  0.12966  0.85524  1.0000
  H   H2883     1.0  0.83369  0.06291  0.88539  1.0000
  H   H2884     1.0  0.84283  0.06954  0.90969  1.0000
  C   C2412     1.0  0.78990  0.07548  0.92250  1.0000
  H   H2885     1.0  0.79216  0.06253  0.93594  1.0000
  H   H2886     1.0  0.93316  0.41111  0.97870  1.0000
  C   C2413     1.0  0.82299  0.22957  0.92337  1.0000
  C   C2414     1.0  0.82396  0.24941  0.92497  1.0000
  C   C2415     1.0  0.81645  0.26034  0.93948  1.0000
  C   C2416     1.0  0.80762  0.25205  0.95176  1.0000
  C   C2417     1.0  0.80660  0.23215  0.95026  1.0000
  C   C2418     1.0  0.81441  0.22070  0.93627  1.0000
  H   H2887     1.0  0.83048  0.25644  0.91503  1.0000
  H   H2888     1.0  0.81752  0.27528  0.94100  1.0000
  H   H2889     1.0  0.79978  0.22565  0.95978  1.0000
  H   H2890     1.0  0.81363  0.20534  0.93498  1.0000
  C   C2419     1.0  0.80794  0.11063  0.90730  1.0000
  C   C2420     1.0  0.80400  0.02014  0.76718  1.0000
  H   H2891     1.0  0.81131  0.02568  0.75726  1.0000
  S   S660      1.0  0.81600  0.29708  0.97785  1.0000
  C   C2421     1.0  0.77776  0.41471  0.73304  1.0000
  C   C2422     1.0  0.91269  0.19746  0.96960  1.0000
  H   H2892     1.0  0.75163  0.45175  0.76911  1.0000
  C   C2423     1.0  0.76765  0.07185  0.78335  1.0000
  C   C2424     1.0  0.77485  0.07607  0.76406  1.0000
  C   C2425     1.0  0.78510  0.07805  0.76361  1.0000
  C   C2426     1.0  0.78829  0.07519  0.78246  1.0000
  C   C2427     1.0  0.78110  0.07099  0.80176  1.0000
  C   C2428     1.0  0.77073  0.06970  0.80218  1.0000
  H   H2893     1.0  0.77251  0.07805  0.74947  1.0000
  H   H2894     1.0  0.79062  0.08149  0.74864  1.0000
  H   H2895     1.0  0.78349  0.06913  0.81632  1.0000
  H   H2896     1.0  0.76511  0.06692  0.81711  1.0000
  H   H2897     1.0  0.73994  0.35153  0.79640  1.0000
  C   C2429     1.0  0.74658  0.46364  0.77860  1.0000
  H   H2898     1.0  0.94751  0.38228  0.96790  1.0000
  H   H2899     1.0  0.80140  0.05507  0.89128  1.0000
  C   C2430     1.0  0.95826  0.46861  0.83155  1.0000
  C   C2431     1.0  0.75413  0.35684  0.72514  1.0000
  C   C2432     1.0  0.76185  0.32665  0.74987  1.0000
  S   S661      1.0  0.77970  0.03158  0.69570  1.0000
  N   N163      1.0  0.79620  0.28596  0.89139  1.0000
  C   C2433     1.0  0.80462  0.26690  0.88692  1.0000
  C   C2434     1.0  0.79340  0.28478  0.91447  1.0000
  C   C2435     1.0  0.78656  0.28473  0.88530  1.0000
  C   C2436     1.0  0.80018  0.30574  0.88020  1.0000
  C   C2437     1.0  0.79520  0.32196  0.86510  1.0000
  C   C2438     1.0  0.80927  0.30936  0.88451  1.0000
  C   C2439     1.0  0.79890  0.34086  0.85561  1.0000
  C   C2440     1.0  0.81283  0.32842  0.87511  1.0000
  C   C2441     1.0  0.80761  0.34420  0.86079  1.0000
  H   H2900     1.0  0.80723  0.26751  0.86965  1.0000
  H   H2901     1.0  0.81180  0.26552  0.89284  1.0000
  H   H2902     1.0  0.80185  0.25169  0.89471  1.0000
  H   H2903     1.0  0.80023  0.28500  0.92057  1.0000
  H   H2904     1.0  0.79058  0.26991  0.92362  1.0000
  H   H2905     1.0  0.78707  0.29865  0.91865  1.0000
  H   H2906     1.0  0.77981  0.29837  0.88878  1.0000
  H   H2907     1.0  0.78816  0.28478  0.86821  1.0000
  H   H2908     1.0  0.78371  0.26982  0.89417  1.0000
  H   H2909     1.0  0.78825  0.32078  0.86068  1.0000
  H   H2910     1.0  0.81355  0.29767  0.89563  1.0000
  H   H2911     1.0  0.79478  0.35325  0.84458  1.0000
  H   H2912     1.0  0.81954  0.33114  0.87930  1.0000
  H   H2913     1.0  0.81025  0.35914  0.85383  1.0000
  C   C2442     1.0  0.75814  0.33485  0.73128  1.0000
  H   H2914     1.0  0.76827  0.03054  0.83506  1.0000
  C   C2443     1.0  0.96602  0.48201  0.78800  1.0000
  H   H2915     1.0  0.74773  0.39456  0.67293  1.0000
  H   H2916     1.0  0.83328  0.24334  0.98516  1.0000
  C   C2444     1.0  0.95218  0.28446  0.92688  1.0000
  H   H2917     1.0  0.80530  0.12132  0.89362  1.0000
  C   C2445     1.0  0.96820  0.46026  0.79774  1.0000
  H   H2918     1.0  0.74317  0.40177  0.76137  1.0000
  Fe  Fe328     1.0  0.75955  0.46166  0.66265  1.0000
  C   C2446     1.0  0.94565  0.37166  0.98372  1.0000
  C   C2447     1.0  0.96730  0.30801  0.89913  1.0000
  H   H2919     1.0  0.73833  0.02867  0.68093  1.0000
  S   S662      1.0  0.75863  0.42933  0.65984  1.0000
  C   C2448     1.0  0.78245  0.00372  0.70518  1.0000
  S   S663      1.0  0.77458  0.47016  0.66316  1.0000
  H   H2920     1.0  0.75012  0.43864  0.91355  1.0000
  C   C2449     1.0  0.96705  0.30109  0.92114  1.0000
  C   C2450     1.0  0.82624  0.23818  0.98402  1.0000
  C   C2451     1.0  0.86266  0.04937  0.85794  1.0000
  H   H2921     1.0  0.75831  0.32414  0.72158  1.0000
  H   H2922     1.0  0.98182  0.45839  0.91081  1.0000
  C   C2452     1.0  0.81627  0.08460  0.94172  1.0000
  H   H2923     1.0  0.84920  0.02614  0.85460  1.0000
  H   H2924     1.0  0.82335  0.11073  0.93980  1.0000
  C   C2453     1.0  0.77318  0.00667  0.79643  1.0000
  C   C2454     1.0  0.79537  0.09652  0.88800  1.0000
  C   C2455     1.0  0.95580  0.49023  0.82171  1.0000
  H   H2925     1.0  0.75957  0.38243  0.91333  1.0000
  S   S664      1.0  0.88740  0.28227  0.98339  1.0000
  C   C2456     1.0  0.85605  0.08435  0.83756  1.0000
  C   C2457     1.0  0.86581  0.05911  0.87044  1.0000
  H   H2926     1.0  0.75187  0.47256  0.78122  1.0000
  H   H2927     1.0  0.83028  0.01568  0.78076  1.0000
  H   H2928     1.0  0.74550  0.42463  0.74053  1.0000
  H   H2929     1.0  0.85198  0.09516  0.82569  1.0000
  C   C2458     1.0  0.74333  0.49239  0.74931  1.0000
  Fe  Fe329     1.0  0.98205  0.41257  0.89493  1.0000
  H   H2930     1.0  0.75535  0.41087  0.87002  1.0000
  H   H2931     1.0  0.80209  0.10066  0.87466  1.0000
  H   H2932     1.0  0.84229  0.07720  0.81657  1.0000
  H   H2933     1.0  0.96233  0.34244  0.86914  1.0000
  H   H2934     1.0  0.81973  0.07443  0.95478  1.0000
  H   H2935     1.0  0.84325  0.03094  0.83269  1.0000
  H   H2936     1.0  0.98467  0.29440  0.87109  1.0000
  C   C2459     1.0  0.77664  0.99818  0.88720  1.0000
  C   C2460     1.0  0.95957  0.30273  0.89176  1.0000
  C   C2461     1.0  0.92710  0.37395  0.98448  1.0000
  H   H2937     1.0  0.86467  0.24940  0.97648  1.0000
  C   C2462     1.0  0.78102  0.01595  0.87556  1.0000
  H   H2938     1.0  0.84964  0.35593  0.96178  1.0000
  C   C2463     1.0  0.78205  0.01450  0.78367  1.0000
  H   H2939     1.0  0.81997  0.25272  0.98080  1.0000
  H   H2940     1.0  0.75653  0.40604  0.74953  1.0000
  H   H2941     1.0  0.75809  0.10966  0.65914  1.0000
  C   C2464     1.0  0.76633  0.00350  0.86094  1.0000
  C   C2465     1.0  0.98052  0.31128  0.86593  1.0000
  Fe  Fe330     1.0  0.98023  0.39009  0.86286  1.0000
  H   H2942     1.0  0.95893  0.30820  0.87545  1.0000
  C   C2466     1.0  0.73898  0.39915  0.72555  1.0000
  H   H2943     1.0  0.78877  0.04296  0.74551  1.0000
  H   H2944     1.0  0.93342  0.39202  0.95323  1.0000
  N   N164      1.0  0.85831  0.25283  0.89897  1.0000
  C   C2467     1.0  0.85294  0.24601  0.92131  1.0000
  C   C2468     1.0  0.84997  0.26273  0.88645  1.0000
  C   C2469     1.0  0.86483  0.23347  0.89101  1.0000
  C   C2470     1.0  0.86513  0.26753  0.89773  1.0000
  C   C2471     1.0  0.86278  0.28983  0.88856  1.0000
  C   C2472     1.0  0.87415  0.25985  0.90693  1.0000
  C   C2473     1.0  0.75623  0.41791  0.88244  1.0000
  C   C2474     1.0  0.88061  0.27336  0.90653  1.0000
  H   H2945     1.0  0.86036  0.16261  0.98103  1.0000
  H   H2946     1.0  0.85875  0.23714  0.93142  1.0000
  H   H2947     1.0  0.84805  0.26013  0.92800  1.0000
  H   H2948     1.0  0.84761  0.23510  0.92295  1.0000
  H   H2949     1.0  0.84406  0.27610  0.89291  1.0000
  H   H2950     1.0  0.84537  0.25095  0.88664  1.0000
  H   H2951     1.0  0.85354  0.26886  0.86960  1.0000
  H   H2952     1.0  0.87043  0.22334  0.90109  1.0000
  H   H2953     1.0  0.85981  0.22267  0.89073  1.0000
  H   H2954     1.0  0.86962  0.23789  0.87475  1.0000
  H   H2955     1.0  0.85580  0.29745  0.88208  1.0000
  H   H2956     1.0  0.87610  0.24337  0.91497  1.0000
  C   C2475     1.0  0.84616  0.03895  0.84184  1.0000
  C   C2476     1.0  0.96867  0.34274  0.87672  1.0000
  H   H2957     1.0  0.78280  0.02972  0.78529  1.0000
  H   H2958     1.0  0.94740  0.35502  0.98126  1.0000
  H   H2959     1.0  0.76495  0.30961  0.75459  1.0000
  C   C2477     1.0  0.76151  0.34039  0.76243  1.0000
  H   H2960     1.0  0.97923  0.33247  0.90707  1.0000
  N   N165      1.0  0.74876  0.41184  0.90272  1.0000
  H   H2961     1.0  0.88312  0.30556  0.89716  1.0000
  C   C2478     1.0  0.76150  0.09211  0.66235  1.0000
  H   H2962     1.0  0.73876  0.33831  0.76626  1.0000
  C   C2479     1.0  0.92765  0.38254  0.96257  1.0000
  H   H2963     1.0  0.85549  0.07563  0.79965  1.0000
  C   C2480     1.0  0.95960  0.28945  0.93470  1.0000
  C   C2481     1.0  0.84974  0.06604  0.81058  1.0000
  C   C2482     1.0  0.86931  0.30325  0.88818  1.0000
  C   C2483     1.0  0.74866  0.40725  0.74623  1.0000
  C   C2484     1.0  0.77377  0.45251  0.73333  1.0000
  S   S665      1.0  0.79179  0.32595  0.97849  1.0000
  H   H2964     1.0  0.80843  0.04850  0.91179  1.0000
  C   C2485     1.0  0.86361  0.03562  0.81875  1.0000
  H   H2965     1.0  0.75498  0.42017  0.70545  1.0000
  C   C2486     1.0  0.77635  0.40954  0.75503  1.0000
  C   C2487     1.0  0.77615  0.43623  0.72225  1.0000
  C   C2488     1.0  0.85931  0.09390  0.85007  1.0000
  H   H2966     1.0  0.73891  0.39110  0.71322  1.0000
  Fe  Fe331     1.0  0.96386  0.42965  0.87221  1.0000
  C   C2489     1.0  0.98294  0.32365  0.89406  1.0000
  C   C2490     1.0  0.81827  0.10510  0.93342  1.0000
  H   H2967     1.0  0.78737  0.48900  0.67869  1.0000
  H   H2968     1.0  0.80882  0.06095  0.93987  1.0000
  C   C2491     1.0  0.91263  0.35769  0.98458  1.0000
  C   C2492     1.0  0.80572  0.08978  0.91543  1.0000
  H   H2969     1.0  0.77681  0.44017  0.70536  1.0000
  S   S666      1.0  0.75960  0.07821  0.72143  1.0000
  S   S667      1.0  0.98175  0.37852  0.89643  1.0000
  H   H2970     1.0  0.97285  0.44856  0.78847  1.0000
  H   H2971     1.0  0.81682  0.48920  0.66924  1.0000
  N   N166      1.0  0.79932  0.08120  0.90625  1.0000
  C   C2493     1.0  0.80704  0.99624  0.74431  1.0000
  H   H2972     1.0  0.90870  0.36230  0.95454  1.0000
  C   C2494     1.0  0.77409  0.42583  0.76606  1.0000
  H   H2973     1.0  0.96623  0.43682  0.82713  1.0000
  S   S668      1.0  0.79025  0.02378  0.88455  1.0000
  H   H2974     1.0  0.76600  0.00201  0.71837  1.0000
  H   H2975     1.0  0.85563  0.28477  0.98294  1.0000
  S   S669      1.0  0.95382  0.46081  0.85892  1.0000
  C   C2495     1.0  0.74585  0.42822  0.65853  1.0000
  C   C2496     1.0  0.75721  0.40250  0.71110  1.0000
  H   H2976     1.0  0.97350  0.48002  0.87465  1.0000
  C   C2497     1.0  0.77314  0.44726  0.75511  1.0000
  H   H2977     1.0  0.75862  0.41401  0.92229  1.0000
  H   H2978     1.0  0.91961  0.20171  0.95795  1.0000
  H   H2979     1.0  0.80146  0.03778  0.72776  1.0000
  H   H2980     1.0  0.86398  0.03210  0.86185  1.0000
  H   H2981     1.0  0.75732  0.37195  0.76718  1.0000
  Fe  Fe332     1.0  0.76514  0.38352  0.80020  1.0000
  H   H2982     1.0  0.77146  0.45979  0.76368  1.0000
  C   C2498     1.0  0.79488  0.03025  0.73851  1.0000
  H   H2983     1.0  0.75153  0.36240  0.71040  1.0000
  H   H2984     1.0  0.83918  0.04991  0.84954  1.0000
  H   H2985     1.0  0.86141  0.02790  0.80831  1.0000
  H   H2986     1.0  0.87016  0.04386  0.80913  1.0000
  C   C2499     1.0  0.75147  0.38814  0.90985  1.0000
  C   C2500     1.0  0.77067  0.02131  0.84947  1.0000
  H   H2987     1.0  0.82996  0.00334  0.74948  1.0000
  H   H2988     1.0  0.83867  0.30725  0.98738  1.0000
  N   N167      1.0  0.97478  0.32108  0.88437  1.0000
  S   S670      1.0  0.75066  0.47135  0.69303  1.0000
  H   H2989     1.0  0.74457  0.41823  0.93390  1.0000
  C   C2501     1.0  0.75739  0.36236  0.75658  1.0000
  Fe  Fe333     1.0  0.90277  0.28504  0.98802  1.0000
  H   H2990     1.0  0.81589  0.13384  0.90961  1.0000
  H   H2991     1.0  0.79050  0.08968  0.88163  1.0000
  H   H2992     1.0  0.79020  0.11153  0.89249  1.0000
  N   N168      1.0  0.73809  0.47807  0.76799  1.0000
  H   H2993     1.0  0.86629  0.08891  0.87662  1.0000
  H   H2994     1.0  0.81320  0.06521  0.88700  1.0000
  C   C2502     1.0  0.75352  0.37129  0.73772  1.0000
  C   C2503     1.0  0.77811  0.02731  0.85656  1.0000
  C   C2504     1.0  0.92101  0.37850  0.95203  1.0000
  H   H2995     1.0  0.86690  0.02230  0.83087  1.0000
  H   H2996     1.0  0.97234  0.30491  0.92839  1.0000
  C   C2505     1.0  0.80588  0.06167  0.89880  1.0000
  H   H2997     1.0  0.73826  0.45398  0.89334  1.0000
  H   H2998     1.0  0.76760  0.01560  0.80760  1.0000
  H   H2999     1.0  0.94607  0.28798  0.89963  1.0000
  H   H3000     1.0  0.78480  0.06941  0.91590  1.0000
  C   C2506     1.0  0.95217  0.29109  0.90546  1.0000
  C   C2507     1.0  0.96447  0.45359  0.81959  1.0000
  H   H3001     1.0  0.74585  0.00760  0.81663  1.0000
  H   H3002     1.0  0.88736  0.26706  0.91405  1.0000
  Fe  Fe334     1.0  0.75279  0.41312  0.82970  1.0000
  H   H3003     1.0  0.89422  0.16802  0.97815  1.0000
  C   C2508     1.0  0.78956  0.00328  0.76881  1.0000
  H   H3004     1.0  0.79141  0.48866  0.71303  1.0000
  H   H3005     1.0  0.76467  0.41237  0.88399  1.0000
  S   S671      1.0  0.74896  0.44682  0.83416  1.0000
  H   H3006     1.0  0.95936  0.28478  0.95150  1.0000
  H   H3007     1.0  0.86725  0.32027  0.88154  1.0000
  H   H3008     1.0  0.80636  0.00740  0.78071  1.0000
  S   S672      1.0  0.87153  0.33692  0.96396  1.0000
  H   H3009     1.0  0.98232  0.46053  0.72684  1.0000
  H   H3010     1.0  0.79941  0.00011  0.69357  1.0000
  S   S673      1.0  0.77110  0.47948  0.72037  1.0000
  H   H3011     1.0  0.85772  0.11121  0.84757  1.0000
  H   H3012     1.0  0.86938  0.04947  0.88355  1.0000
  H   H3013     1.0  0.76862  0.08929  0.66904  1.0000
  H   H3014     1.0  0.94617  0.27613  0.93752  1.0000
  C   C2509     1.0  0.86415  0.08133  0.86649  1.0000
  H   H3015     1.0  0.74523  0.03019  0.79473  1.0000
  H   H3016     1.0  0.82851  0.23117  0.96977  1.0000
  H   H3017     1.0  0.98161  0.48765  0.71416  1.0000
  H   H3018     1.0  0.74337  0.45471  0.79451  1.0000
  H   H3019     1.0  0.97495  0.47179  0.85060  1.0000
  H   H3020     1.0  0.74869  0.48322  0.73744  1.0000
  H   H3021     1.0  0.91034  0.17695  0.95229  1.0000
  C   C2510     1.0  0.97326  0.48600  0.85763  1.0000
  S   S674      1.0  0.74424  0.38827  0.85202  1.0000
  C   C2511     1.0  0.89842  0.17844  0.98099  1.0000
  H   H3022     1.0  0.80122  0.48287  0.66736  1.0000
  H   H3023     1.0  0.74585  0.38245  0.92464  1.0000
  Fe  Fe335     1.0  0.74219  0.38150  0.82268  1.0000
  C   C2512     1.0  0.90749  0.18348  0.96639  1.0000
  C   C2513     1.0  0.74246  0.40880  0.66635  1.0000
  H   H3024     1.0  0.98326  0.41278  0.81974  1.0000
  C   C2514     1.0  0.91360  0.36590  0.96296  1.0000
  C   C2515     1.0  0.90879  0.20659  0.98737  1.0000
  H   H3025     1.0  0.81433  0.00249  0.73549  1.0000
  C   C2516     1.0  0.73768  0.42021  0.89981  1.0000
  H   H3026     1.0  0.97514  0.31139  0.85598  1.0000
  C   C2517     1.0  0.83076  0.99889  0.78191  1.0000
  H   H3027     1.0  0.74584  0.99994  0.77888  1.0000
  H   H3028     1.0  0.98621  0.46760  0.69840  1.0000
  S   S675      1.0  0.75698  0.99675  0.85132  1.0000
  H   H3029     1.0  0.98224  0.49404  0.81592  1.0000
  C   C2518     1.0  0.98652  0.47134  0.71328  1.0000
  H   H3030     1.0  0.96492  0.49440  0.85683  1.0000
  H   H3031     1.0  0.98539  0.49302  0.91151  1.0000
  Fe  Fe336     1.0  0.74955  0.95820  0.20367  1.0000
  S   S676      1.0  0.75245  0.93436  0.23348  1.0000
  S   S677      1.0  0.80032  0.86379  0.31205  1.0000
  Fe  Fe337     1.0  0.75663  0.91015  0.21341  1.0000
  S   S678      1.0  0.77011  0.88126  0.21334  1.0000
  S   S679      1.0  0.75512  0.93424  0.18311  1.0000
  S   S680      1.0  0.96123  0.50345  0.25004  1.0000
  S   S681      1.0  0.79993  0.91500  0.28829  1.0000
  H   H3032     1.0  0.98426  0.53026  0.23162  1.0000
  H   H3033     1.0  0.96814  0.50081  0.17195  1.0000
  C   C2519     1.0  0.77872  0.85649  0.28695  1.0000
  Fe  Fe338     1.0  0.80791  0.88270  0.28130  1.0000
  S   S682      1.0  0.80982  0.87426  0.25030  1.0000
  H   H3034     1.0  0.73964  0.87320  0.99433  1.0000
  S   S683      1.0  0.82258  0.88068  0.29220  1.0000
  H   H3035     1.0  0.81989  0.97976  0.20917  1.0000
  C   C2520     1.0  0.75902  0.91792  0.29557  1.0000
  H   H3036     1.0  0.75376  0.93176  0.30226  1.0000
  Fe  Fe339     1.0  0.81388  0.91146  0.30220  1.0000
  C   C2521     1.0  0.75838  0.87300  0.27855  1.0000
  C   C2522     1.0  0.73730  0.49831  0.26903  1.0000
  C   C2523     1.0  0.98455  0.52511  0.21708  1.0000
  S   S684      1.0  0.75375  0.99051  0.19598  1.0000
  C   C2524     1.0  0.82096  0.96235  0.28401  1.0000
  C   C2525     1.0  0.81326  0.97025  0.27165  1.0000
  H   H3037     1.0  0.79824  0.96228  0.24170  1.0000
  Fe  Fe340     1.0  0.97392  0.52934  0.29819  1.0000
  H   H3038     1.0  0.74797  0.89458  0.17056  1.0000
  H   H3039     1.0  0.78029  0.52779  0.24919  1.0000
  H   H3040     1.0  0.80848  0.95983  0.27095  1.0000
  H   H3041     1.0  0.83307  0.96984  0.29439  1.0000
  C   C2526     1.0  0.81141  0.95366  0.19287  1.0000
  H   H3042     1.0  0.74226  0.81133  0.15894  1.0000
  C   C2527     1.0  0.83596  0.94573  0.24044  1.0000
  S   S685      1.0  0.95850  0.54104  0.28743  1.0000
  C   C2528     1.0  0.76304  0.51653  0.23242  1.0000
  H   H3043     1.0  0.94576  0.57620  0.31424  1.0000
  C   C2529     1.0  0.74344  0.90539  0.29824  1.0000
  H   H3044     1.0  0.76033  0.88885  0.17834  1.0000
  C   C2530     1.0  0.74116  0.86300  0.13273  1.0000
  C   C2531     1.0  0.78096  0.88084  0.22349  1.0000
  C   C2532     1.0  0.79053  0.86647  0.21793  1.0000
  C   C2533     1.0  0.79928  0.86485  0.22619  1.0000
  C   C2534     1.0  0.79847  0.87705  0.24065  1.0000
  C   C2535     1.0  0.78888  0.89142  0.24647  1.0000
  C   C2536     1.0  0.78015  0.89357  0.23760  1.0000
  H   H3045     1.0  0.79120  0.85661  0.20707  1.0000
  H   H3046     1.0  0.80669  0.85384  0.22155  1.0000
  H   H3047     1.0  0.78818  0.90081  0.25776  1.0000
  H   H3048     1.0  0.77273  0.90445  0.24222  1.0000
  N   N169      1.0  0.75420  0.89880  0.30303  1.0000
  C   C2537     1.0  0.83154  0.92775  0.24582  1.0000
  H   H3049     1.0  0.76674  0.91486  0.30020  1.0000
  H   H3050     1.0  0.83501  0.97839  0.22336  1.0000
  H   H3051     1.0  0.74209  0.86409  0.19937  1.0000
  C   C2538     1.0  0.80001  0.96525  0.22415  1.0000
  C   C2539     1.0  0.77558  0.84863  0.27307  1.0000
  H   H3052     1.0  0.76047  0.88943  0.15178  1.0000
  H   H3053     1.0  0.79112  0.98364  0.15828  1.0000
  H   H3054     1.0  0.75457  0.52980  0.20724  1.0000
  H   H3055     1.0  0.75077  0.87900  0.27409  1.0000
  C   C2540     1.0  0.75619  0.88456  0.16839  1.0000
  C   C2541     1.0  0.80488  0.92808  0.22296  1.0000
  C   C2542     1.0  0.76543  0.85684  0.26891  1.0000
  H   H3056     1.0  0.77316  0.97538  0.16671  1.0000
  H   H3057     1.0  0.76057  0.92298  0.27805  1.0000
  H   H3058     1.0  0.83467  0.91363  0.25677  1.0000
  H   H3059     1.0  0.77170  0.85401  0.18085  1.0000
  H   H3060     1.0  0.75422  0.86237  0.20687  1.0000
  H   H3061     1.0  0.78677  0.85065  0.28949  1.0000
  H   H3062     1.0  0.96536  0.56610  0.19927  1.0000
  H   H3063     1.0  0.73815  0.91795  0.30672  1.0000
  H   H3064     1.0  0.76559  0.50381  0.18555  1.0000
  C   C2543     1.0  0.73935  0.54897  0.28586  1.0000
  C   C2544     1.0  0.76733  0.50316  0.20049  1.0000
  C   C2545     1.0  0.76727  0.84931  0.17166  1.0000
  C   C2546     1.0  0.76132  0.88132  0.29291  1.0000
  H   H3065     1.0  0.80234  0.92343  0.24043  1.0000
  H   H3066     1.0  0.73933  0.89177  0.30309  1.0000
  C   C2547     1.0  0.96925  0.55349  0.21113  1.0000
  N   N170      1.0  0.77335  0.49995  0.26109  1.0000
  H   H3067     1.0  0.76061  0.96235  0.25939  1.0000
  C   C2548     1.0  0.82713  0.97585  0.28488  1.0000
  S   S686      1.0  0.82328  0.93595  0.29894  1.0000
  N   N171      1.0  0.98018  0.54327  0.20122  1.0000
  C   C2549     1.0  0.83176  0.96421  0.22700  1.0000
  H   H3068     1.0  0.76910  0.98529  0.27004  1.0000
  H   H3069     1.0  0.76648  0.53330  0.26237  1.0000
  H   H3070     1.0  0.78901  0.93672  0.32090  1.0000
  N   N172      1.0  0.75605  0.86138  0.17429  1.0000
  H   H3071     1.0  0.77617  0.52085  0.27758  1.0000
  H   H3072     1.0  0.75764  0.52757  0.24175  1.0000
  H   H3073     1.0  0.84243  0.94553  0.24728  1.0000
  S   S687      1.0  0.74007  0.90478  0.22029  1.0000
  C   C2550     1.0  0.77175  0.87262  0.29671  1.0000
  H   H3074     1.0  0.74479  0.97757  0.24489  1.0000
  C   C2551     1.0  0.76717  0.99097  0.19300  1.0000
  C   C2552     1.0  0.75053  0.85504  0.16148  1.0000
  H   H3075     1.0  0.75206  0.82173  0.17881  1.0000
  C   C2553     1.0  0.81830  0.94683  0.22432  1.0000
  N   N173      1.0  0.80883  0.94826  0.21629  1.0000
  C   C2554     1.0  0.77414  0.52136  0.26248  1.0000
  H   H3076     1.0  0.80442  0.95506  0.18630  1.0000
  H   H3077     1.0  0.81979  0.91367  0.24299  1.0000
  H   H3078     1.0  0.77150  0.85237  0.15477  1.0000
  H   H3079     1.0  0.80188  0.98143  0.21788  1.0000
  H   H3080     1.0  0.78116  0.83677  0.26486  1.0000
  H   H3081     1.0  0.79784  0.92953  0.21648  1.0000
  H   H3082     1.0  0.81107  0.91455  0.21737  1.0000
  H   H3083     1.0  0.76318  0.85128  0.25743  1.0000
  C   C2555     1.0  0.75072  0.85645  0.19696  1.0000
  C   C2556     1.0  0.76733  0.97770  0.32026  1.0000
  C   C2557     1.0  0.74365  0.82745  0.15465  1.0000
  H   H3084     1.0  0.81805  0.94126  0.18644  1.0000
  H   H3085     1.0  0.74381  0.91231  0.28112  1.0000
  C   C2558     1.0  0.82286  0.92813  0.23790  1.0000
  H   H3086     1.0  0.76788  0.83174  0.17720  1.0000
  H   H3087     1.0  0.75140  0.83902  0.20356  1.0000
  H   H3088     1.0  0.74545  0.54640  0.27190  1.0000
  H   H3089     1.0  0.79256  0.96615  0.21931  1.0000
  C   C2559     1.0  0.82305  0.96483  0.21905  1.0000
  C   C2560     1.0  0.74642  0.86955  0.14429  1.0000
  H   H3090     1.0  0.96929  0.56097  0.22398  1.0000
  C   C2561     1.0  0.97996  0.53502  0.18311  1.0000
  H   H3091     1.0  0.74683  0.88626  0.13984  1.0000
  C   C2562     1.0  0.76116  0.51785  0.21270  1.0000
  Fe  Fe341     1.0  0.95108  0.52624  0.32063  1.0000
  H   H3092     1.0  0.97998  0.51225  0.22207  1.0000
  C   C2563     1.0  0.74912  0.83368  0.16607  1.0000
  H   H3093     1.0  0.98060  0.50824  0.13761  1.0000
  H   H3094     1.0  0.78422  0.97609  0.31058  1.0000
  C   C2564     1.0  0.77504  0.98372  0.17645  1.0000
  H   H3095     1.0  0.96403  0.54182  0.21878  1.0000
  C   C2565     1.0  0.97302  0.52127  0.18568  1.0000
  H   H3096     1.0  0.77468  0.87865  0.30687  1.0000
  C   C2566     1.0  0.74211  0.54451  0.30541  1.0000
  S   S688      1.0  0.75547  0.53404  0.30724  1.0000
  H   H3097     1.0  0.81386  0.96928  0.18637  1.0000
  C   C2567     1.0  0.75719  0.97933  0.25772  1.0000
  H   H3098     1.0  0.96767  0.51690  0.20064  1.0000
  C   C2568     1.0  0.73964  0.84211  0.13807  1.0000
  C   C2569     1.0  0.78517  0.98857  0.17160  1.0000
  H   H3099     1.0  0.98658  0.56588  0.20917  1.0000
  Fe  Fe342     1.0  0.79348  0.89599  0.32026  1.0000
  C   C2570     1.0  0.77149  0.50091  0.24017  1.0000
  H   H3100     1.0  0.75660  0.50468  0.27610  1.0000
  Fe  Fe343     1.0  0.96186  0.50813  0.28123  1.0000
  H   H3101     1.0  0.98419  0.57332  0.18300  1.0000
  C   C2571     1.0  0.97318  0.51203  0.16931  1.0000
  C   C2572     1.0  0.98022  0.51618  0.14993  1.0000
  S   S689      1.0  0.98567  0.55058  0.28925  1.0000
  H   H3102     1.0  0.96068  0.58908  0.31790  1.0000
  C   C2573     1.0  0.77801  0.96706  0.31706  1.0000
  S   S690      1.0  0.97785  0.49755  0.28946  1.0000
  C   C2574     1.0  0.81184  0.99172  0.26017  1.0000
  C   C2575     1.0  0.74797  0.98825  0.24969  1.0000
  C   C2576     1.0  0.76210  0.99226  0.26334  1.0000
  Fe  Fe344     1.0  0.73808  0.93070  0.19145  1.0000
  H   H3103     1.0  0.73776  0.87449  0.12016  1.0000
  C   C2577     1.0  0.98685  0.55944  0.19538  1.0000
  C   C2578     1.0  0.98710  0.52971  0.14677  1.0000
  C   C2579     1.0  0.98704  0.53901  0.16307  1.0000
  C   C2580     1.0  0.76845  0.59591  0.39860  1.0000
  H   H3104     1.0  0.78268  0.64645  0.58469  1.0000
  H   H3105     1.0  0.87122  0.63598  0.59625  1.0000
  Fe  Fe345     1.0  0.84662  0.73552  0.43037  1.0000
  S   S691      1.0  0.84307  0.71003  0.45911  1.0000
  S   S692      1.0  0.86014  0.73182  0.40247  1.0000
  Fe  Fe346     1.0  0.82842  0.76934  0.44660  1.0000
  S   S693      1.0  0.82320  0.74697  0.47725  1.0000
  S   S694      1.0  0.81940  0.80349  0.43908  1.0000
  Fe  Fe347     1.0  0.84058  0.73534  0.47718  1.0000
  S   S695      1.0  0.84801  0.72447  0.50560  1.0000
  Fe  Fe348     1.0  0.82601  0.72347  0.45696  1.0000
  S   S696      1.0  0.81422  0.70231  0.46606  1.0000
  S   S697      1.0  0.84563  0.75998  0.44840  1.0000
  S   S698      1.0  0.82976  0.74671  0.42633  1.0000
  C   C2581     1.0  0.84925  0.60610  0.63999  1.0000
  S   S699      1.0  0.84548  0.79286  0.61396  1.0000
  H   H3106     1.0  0.92286  0.59837  0.38622  1.0000
  Fe  Fe349     1.0  0.76797  0.50268  0.64507  1.0000
  S   S700      1.0  0.85042  0.74217  0.61072  1.0000
  H   H3107     1.0  0.91793  0.64761  0.33179  1.0000
  Fe  Fe350     1.0  0.85719  0.76217  0.62310  1.0000
  S   S701      1.0  0.87473  0.76150  0.61455  1.0000
  Fe  Fe351     1.0  0.83791  0.77184  0.60413  1.0000
  S   S702      1.0  0.83113  0.78113  0.57474  1.0000
  H   H3108     1.0  0.79659  0.69777  0.60527  1.0000
  S   S703      1.0  0.82704  0.76499  0.63601  1.0000
  H   H3109     1.0  0.83640  0.54287  0.52778  1.0000
  S   S704      1.0  0.77253  0.50756  0.34996  1.0000
  C   C2582     1.0  0.86593  0.58172  0.62986  1.0000
  Fe  Fe352     1.0  0.75728  0.51374  0.33921  1.0000
  C   C2583     1.0  0.79205  0.53247  0.52689  1.0000
  H   H3110     1.0  0.94919  0.54220  0.36267  1.0000
  S   S705      1.0  0.83121  0.60330  0.53754  1.0000
  Fe  Fe353     1.0  0.81348  0.61937  0.41566  1.0000
  S   S706      1.0  0.82183  0.59348  0.39811  1.0000
  S   S707      1.0  0.81371  0.65341  0.39856  1.0000
  Fe  Fe354     1.0  0.80798  0.58772  0.45655  1.0000
  S   S708      1.0  0.81567  0.55876  0.44210  1.0000
  S   S709      1.0  0.80012  0.58655  0.49106  1.0000
  Fe  Fe355     1.0  0.82881  0.57660  0.42619  1.0000
  S   S710      1.0  0.84627  0.56202  0.41850  1.0000
  Fe  Fe356     1.0  0.80796  0.57800  0.41502  1.0000
  S   S711      1.0  0.80319  0.56670  0.39092  1.0000
  S   S712      1.0  0.82175  0.60412  0.44231  1.0000
  S   S713      1.0  0.79900  0.60545  0.43087  1.0000
  Fe  Fe357     1.0  0.90981  0.58253  0.43967  1.0000
  S   S714      1.0  0.90121  0.57929  0.47394  1.0000
  S   S715      1.0  0.92610  0.56316  0.42750  1.0000
  Fe  Fe358     1.0  0.89280  0.61963  0.42468  1.0000
  S   S716      1.0  0.88267  0.61990  0.45709  1.0000
  S   S717      1.0  0.88944  0.64108  0.39420  1.0000
  Fe  Fe359     1.0  0.89793  0.61524  0.46707  1.0000
  S   S718      1.0  0.89713  0.63677  0.48839  1.0000
  Fe  Fe360     1.0  0.88658  0.58420  0.46155  1.0000
  S   S719      1.0  0.87309  0.56794  0.47960  1.0000
  S   S720      1.0  0.90782  0.61821  0.43404  1.0000
  S   S721      1.0  0.89539  0.58431  0.42803  1.0000
  C   C2584     1.0  0.79323  0.97364  0.34844  1.0000
  S   S722      1.0  0.91909  0.61681  0.60889  1.0000
  H   H3111     1.0  0.85067  0.65720  0.61931  1.0000
  S   S723      1.0  0.89417  0.63626  0.60536  1.0000
  Fe  Fe361     1.0  0.90630  0.60597  0.60180  1.0000
  S   S724      1.0  0.90954  0.58858  0.57559  1.0000
  Fe  Fe362     1.0  0.90642  0.64563  0.61566  1.0000
  S   S725      1.0  0.91065  0.67789  0.60421  1.0000
  C   C2585     1.0  0.82616  0.70223  0.60838  1.0000
  C   C2586     1.0  0.90171  0.62414  0.51173  1.0000
  C   C2587     1.0  0.89941  0.63533  0.52788  1.0000
  C   C2588     1.0  0.90218  0.62482  0.54737  1.0000
  C   C2589     1.0  0.90725  0.60315  0.55068  1.0000
  C   C2590     1.0  0.90994  0.59230  0.53422  1.0000
  C   C2591     1.0  0.90715  0.60274  0.51481  1.0000
  H   H3112     1.0  0.89528  0.65196  0.52549  1.0000
  H   H3113     1.0  0.90030  0.63332  0.55989  1.0000
  H   H3114     1.0  0.91406  0.57564  0.53661  1.0000
  H   H3115     1.0  0.90918  0.59415  0.50229  1.0000
  H   H3116     1.0  0.84560  0.66550  0.58401  1.0000
  S   S726      1.0  0.80675  0.89508  0.33495  1.0000
  C   C2592     1.0  0.93905  0.55060  0.39158  1.0000
  C   C2593     1.0  0.92854  0.55605  0.40295  1.0000
  C   C2594     1.0  0.92013  0.55610  0.39442  1.0000
  C   C2595     1.0  0.92219  0.55076  0.37474  1.0000
  C   C2596     1.0  0.79325  0.68881  0.58034  1.0000
  H   H3117     1.0  0.91203  0.55985  0.40312  1.0000
  H   H3118     1.0  0.91562  0.55067  0.36837  1.0000
  C   C2597     1.0  0.85359  0.56311  0.43593  1.0000
  C   C2598     1.0  0.84862  0.56576  0.45648  1.0000
  C   C2599     1.0  0.85471  0.56646  0.47011  1.0000
  C   C2600     1.0  0.86568  0.56538  0.46295  1.0000
  C   C2601     1.0  0.87062  0.56278  0.44240  1.0000
  C   C2602     1.0  0.86461  0.56134  0.42902  1.0000
  H   H3119     1.0  0.84013  0.56690  0.46194  1.0000
  H   H3120     1.0  0.85091  0.56820  0.48607  1.0000
  H   H3121     1.0  0.87911  0.56126  0.43697  1.0000
  H   H3122     1.0  0.86849  0.55902  0.41322  1.0000
  H   H3123     1.0  0.92130  0.65030  0.63520  1.0000
  C   C2603     1.0  0.82224  0.59882  0.52537  1.0000
  C   C2604     1.0  0.81127  0.60220  0.53395  1.0000
  C   C2605     1.0  0.80441  0.59872  0.52332  1.0000
  C   C2606     1.0  0.80855  0.59144  0.50439  1.0000
  C   C2607     1.0  0.81951  0.58779  0.49621  1.0000
  C   C2608     1.0  0.82630  0.59183  0.50642  1.0000
  H   H3124     1.0  0.80807  0.60768  0.54858  1.0000
  H   H3125     1.0  0.79591  0.60191  0.52964  1.0000
  H   H3126     1.0  0.82284  0.58109  0.48237  1.0000
  H   H3127     1.0  0.83476  0.58896  0.49987  1.0000
  H   H3128     1.0  0.75585  0.93440  0.34020  1.0000
  C   C2609     1.0  0.91218  0.61054  0.35414  1.0000
  H   H3129     1.0  0.88846  0.56415  0.52387  1.0000
  C   C2610     1.0  0.77491  0.53569  0.40243  1.0000
  C   C2611     1.0  0.77690  0.54162  0.41918  1.0000
  C   C2612     1.0  0.78549  0.55139  0.41592  1.0000
  C   C2613     1.0  0.79217  0.55503  0.39590  1.0000
  C   C2614     1.0  0.79013  0.54924  0.37915  1.0000
  C   C2615     1.0  0.78148  0.53974  0.38237  1.0000
  H   H3130     1.0  0.77178  0.53863  0.43472  1.0000
  H   H3131     1.0  0.78697  0.55597  0.42885  1.0000
  H   H3132     1.0  0.79526  0.55214  0.36362  1.0000
  H   H3133     1.0  0.77986  0.53564  0.36932  1.0000
  C   C2616     1.0  0.88424  0.73770  0.61135  1.0000
  C   C2617     1.0  0.88144  0.71791  0.61503  1.0000
  C   C2618     1.0  0.88946  0.69927  0.61266  1.0000
  C   C2619     1.0  0.90023  0.70057  0.60657  1.0000
  C   C2620     1.0  0.90292  0.72040  0.60262  1.0000
  C   C2621     1.0  0.89498  0.73882  0.60506  1.0000
  H   H3134     1.0  0.87315  0.71701  0.61982  1.0000
  H   H3135     1.0  0.88734  0.68400  0.61558  1.0000
  H   H3136     1.0  0.83040  0.72566  0.61917  1.0000
  C   C2622     1.0  0.86772  0.70610  0.40051  1.0000
  C   C2623     1.0  0.87542  0.70362  0.38202  1.0000
  C   C2624     1.0  0.88191  0.68350  0.38012  1.0000
  C   C2625     1.0  0.88092  0.66584  0.39690  1.0000
  C   C2626     1.0  0.87315  0.66816  0.41540  1.0000
  C   C2627     1.0  0.86646  0.68828  0.41710  1.0000
  H   H3137     1.0  0.87638  0.71735  0.36913  1.0000
  H   H3138     1.0  0.88785  0.68174  0.36574  1.0000
  H   H3139     1.0  0.87217  0.65446  0.42823  1.0000
  H   H3140     1.0  0.86042  0.69000  0.43124  1.0000
  C   C2628     1.0  0.83557  0.76426  0.55649  1.0000
  C   C2629     1.0  0.84473  0.74791  0.55699  1.0000
  C   C2630     1.0  0.84838  0.73550  0.54154  1.0000
  C   C2631     1.0  0.84293  0.73951  0.52538  1.0000
  C   C2632     1.0  0.83370  0.75563  0.52500  1.0000
  C   C2633     1.0  0.83002  0.76794  0.54054  1.0000
  H   H3141     1.0  0.84918  0.74531  0.56887  1.0000
  H   H3142     1.0  0.85558  0.72315  0.54183  1.0000
  H   H3143     1.0  0.82940  0.75860  0.51275  1.0000
  H   H3144     1.0  0.82292  0.78051  0.54017  1.0000
  C   C2634     1.0  0.81408  0.68929  0.44686  1.0000
  C   C2635     1.0  0.80898  0.67206  0.45307  1.0000
  C   C2636     1.0  0.80884  0.66111  0.43818  1.0000
  C   C2637     1.0  0.81352  0.66776  0.41692  1.0000
  C   C2638     1.0  0.81845  0.68528  0.41057  1.0000
  C   C2639     1.0  0.81890  0.69582  0.42562  1.0000
  H   H3145     1.0  0.80525  0.66694  0.46948  1.0000
  H   H3146     1.0  0.80502  0.64759  0.44318  1.0000
  H   H3147     1.0  0.82212  0.69039  0.39413  1.0000
  H   H3148     1.0  0.82283  0.70916  0.42074  1.0000
  C   C2640     1.0  0.78389  0.53900  0.62273  1.0000
  S   S727      1.0  0.93471  0.54015  0.33815  1.0000
  H   H3149     1.0  0.90405  0.61714  0.36279  1.0000
  C   C2641     1.0  0.82037  0.50393  0.39078  1.0000
  H   H3150     1.0  0.77785  0.65313  0.35274  1.0000
  C   C2642     1.0  0.82344  0.82843  0.36766  1.0000
  C   C2643     1.0  0.83097  0.81125  0.37601  1.0000
  C   C2644     1.0  0.82985  0.80386  0.39789  1.0000
  C   C2645     1.0  0.82130  0.81390  0.41165  1.0000
  C   C2646     1.0  0.81402  0.83177  0.40340  1.0000
  C   C2647     1.0  0.81505  0.83897  0.38139  1.0000
  H   H3151     1.0  0.83754  0.80316  0.36547  1.0000
  H   H3152     1.0  0.83559  0.79027  0.40406  1.0000
  H   H3153     1.0  0.80740  0.83964  0.41399  1.0000
  H   H3154     1.0  0.82212  0.93171  0.64932  1.0000
  C   C2648     1.0  0.80087  0.74037  0.40804  1.0000
  C   C2649     1.0  0.78564  0.65767  0.58941  1.0000
  H   H3155     1.0  0.93475  0.67572  0.64089  1.0000
  S   S728      1.0  0.78005  0.51756  0.61843  1.0000
  C   C2650     1.0  0.81378  0.53486  0.52025  1.0000
  C   C2651     1.0  0.87965  0.67135  0.57096  1.0000
  C   C2652     1.0  0.85023  0.56080  0.55502  1.0000
  H   H3156     1.0  0.94405  0.49987  0.36464  1.0000
  S   S729      1.0  0.76427  0.52299  0.40715  1.0000
  C   C2653     1.0  0.95258  0.59547  0.32552  1.0000
  H   H3157     1.0  0.94560  0.55065  0.39803  1.0000
  H   H3158     1.0  0.80546  0.63325  0.36348  1.0000
  Fe  Fe363     1.0  0.81034  0.60118  0.61372  1.0000
  C   C2654     1.0  0.81508  0.51131  0.40914  1.0000
  H   H3159     1.0  0.82654  0.84501  0.62967  1.0000
  C   C2655     1.0  0.81061  0.54420  0.55403  1.0000
  C   C2656     1.0  0.80191  0.74939  0.42352  1.0000
  H   H3160     1.0  0.88694  0.60286  0.54325  1.0000
  H   H3161     1.0  0.89563  0.67669  0.55876  1.0000
  C   C2657     1.0  0.87993  0.59762  0.54229  1.0000
  H   H3162     1.0  0.82410  0.71346  0.59437  1.0000
  H   H3163     1.0  0.79621  0.70186  0.56859  1.0000
  H   H3164     1.0  0.91575  0.51422  0.41994  1.0000
  C   C2658     1.0  0.85670  0.66721  0.61163  1.0000
  Fe  Fe364     1.0  0.82192  0.63774  0.59877  1.0000
  C   C2659     1.0  0.82536  0.68090  0.61230  1.0000
  H   H3165     1.0  0.80920  0.85224  0.37509  1.0000
  H   H3166     1.0  0.89717  0.75405  0.60216  1.0000
  C   C2660     1.0  0.85165  0.67567  0.57812  1.0000
  C   C2661     1.0  0.88447  0.70532  0.56569  1.0000
  H   H3167     1.0  0.87268  0.60822  0.54969  1.0000
  H   H3168     1.0  0.79689  0.63812  0.38764  1.0000
  Fe  Fe365     1.0  0.83394  0.59248  0.61191  1.0000
  C   C2662     1.0  0.79032  0.57367  0.62825  1.0000
  C   C2663     1.0  0.93265  0.54569  0.36322  1.0000
  H   H3169     1.0  0.78350  0.53159  0.53102  1.0000
  S   S730      1.0  0.82408  0.83415  0.34029  1.0000
  H   H3170     1.0  0.79313  0.54538  0.51237  1.0000
  C   C2664     1.0  0.82974  0.70917  0.62244  1.0000
  C   C2665     1.0  0.87135  0.59359  0.63590  1.0000
  C   C2666     1.0  0.86997  0.56960  0.55405  1.0000
  H   H3171     1.0  0.92085  0.51392  0.45245  1.0000
  H   H3172     1.0  0.85808  0.70969  0.58619  1.0000
  H   H3173     1.0  0.78915  0.67663  0.55791  1.0000
  Fe  Fe366     1.0  0.82592  0.60578  0.57147  1.0000
  H   H3174     1.0  0.87131  0.57771  0.51991  1.0000
  H   H3175     1.0  0.77950  0.55637  0.55289  1.0000
  C   C2667     1.0  0.87386  0.71451  0.57314  1.0000
  H   H3176     1.0  0.87167  0.73118  0.57440  1.0000
  C   C2668     1.0  0.94111  0.54563  0.37166  1.0000
  H   H3177     1.0  0.93998  0.62205  0.61317  1.0000
  H   H3178     1.0  0.83843  0.86859  0.62728  1.0000
  H   H3179     1.0  0.89050  0.71476  0.56138  1.0000
  C   C2669     1.0  0.82127  0.54552  0.54992  1.0000
  C   C2670     1.0  0.85488  0.58798  0.63182  1.0000
  N   N174      1.0  0.88020  0.57481  0.55295  1.0000
  N   N175      1.0  0.85110  0.63378  0.41151  1.0000
  C   C2671     1.0  0.86225  0.62306  0.40346  1.0000
  C   C2672     1.0  0.84397  0.62388  0.40559  1.0000
  C   C2673     1.0  0.84966  0.65671  0.40061  1.0000
  C   C2674     1.0  0.84833  0.63194  0.43467  1.0000
  C   C2675     1.0  0.83794  0.64124  0.44476  1.0000
  C   C2676     1.0  0.85566  0.62084  0.44785  1.0000
  C   C2677     1.0  0.83502  0.63938  0.46663  1.0000
  C   C2678     1.0  0.85267  0.61914  0.46971  1.0000
  C   C2679     1.0  0.84238  0.62831  0.47907  1.0000
  H   H3180     1.0  0.86373  0.60553  0.41038  1.0000
  H   H3181     1.0  0.86412  0.62481  0.38602  1.0000
  H   H3182     1.0  0.86809  0.63003  0.40692  1.0000
  H   H3183     1.0  0.84429  0.60703  0.41459  1.0000
  H   H3184     1.0  0.84621  0.62357  0.38851  1.0000
  H   H3185     1.0  0.83551  0.63261  0.40871  1.0000
  H   H3186     1.0  0.85454  0.66497  0.40533  1.0000
  H   H3187     1.0  0.85204  0.65872  0.38314  1.0000
  H   H3188     1.0  0.84124  0.66551  0.40424  1.0000
  H   H3189     1.0  0.83192  0.64968  0.43581  1.0000
  H   H3190     1.0  0.86369  0.61283  0.44180  1.0000
  H   H3191     1.0  0.82694  0.64620  0.47394  1.0000
  H   H3192     1.0  0.85830  0.61006  0.47952  1.0000
  H   H3193     1.0  0.84004  0.62635  0.49606  1.0000
  H   H3194     1.0  0.80558  0.54764  0.56875  1.0000
  H   H3195     1.0  0.87190  0.67380  0.64705  1.0000
  H   H3196     1.0  0.78249  0.66139  0.37116  1.0000
  H   H3197     1.0  0.74924  0.87747  0.33242  1.0000
  H   H3198     1.0  0.79331  0.63222  0.64781  1.0000
  H   H3199     1.0  0.91370  0.59294  0.36043  1.0000
  H   H3200     1.0  0.90912  0.65033  0.35696  1.0000
  C   C2680     1.0  0.94011  0.61871  0.34760  1.0000
  C   C2681     1.0  0.79342  0.51935  0.56308  1.0000
  H   H3201     1.0  0.93413  0.64862  0.60163  1.0000
  C   C2682     1.0  0.77675  0.55313  0.63479  1.0000
  C   C2683     1.0  0.75931  0.96596  0.32854  1.0000
  C   C2684     1.0  0.91990  0.61566  0.37997  1.0000
  H   H3202     1.0  0.80400  0.93131  0.64485  1.0000
  H   H3203     1.0  0.91161  0.62021  0.38901  1.0000
  H   H3204     1.0  0.91183  0.61385  0.33725  1.0000
  H   H3205     1.0  0.79092  0.65906  0.34584  1.0000
  C   C2685     1.0  0.86570  0.61124  0.64477  1.0000
  C   C2686     1.0  0.82446  0.53604  0.51638  1.0000
  H   H3206     1.0  0.77413  0.68478  0.64654  1.0000
  C   C2687     1.0  0.95055  0.61070  0.33757  1.0000
  H   H3207     1.0  0.88004  0.60071  0.52517  1.0000
  H   H3208     1.0  0.79489  0.52232  0.57732  1.0000
  C   C2688     1.0  0.85680  0.56785  0.53578  1.0000
  N   N176      1.0  0.78947  0.62888  0.36755  1.0000
  C   C2689     1.0  0.79876  0.62784  0.37605  1.0000
  C   C2690     1.0  0.79353  0.61754  0.34980  1.0000
  H   H3209     1.0  0.75103  0.97415  0.33084  1.0000
  C   C2691     1.0  0.78117  0.61970  0.38453  1.0000
  C   C2692     1.0  0.77640  0.60393  0.38240  1.0000
  C   C2693     1.0  0.77730  0.62715  0.40364  1.0000
  C   C2694     1.0  0.82819  0.54136  0.53117  1.0000
  Fe  Fe367     1.0  0.81434  0.86444  0.32387  1.0000
  C   C2695     1.0  0.93370  0.59614  0.33337  1.0000
  H   H3210     1.0  0.80186  0.61115  0.38395  1.0000
  C   C2696     1.0  0.92661  0.50627  0.44044  1.0000
  H   H3211     1.0  0.92266  0.65223  0.35225  1.0000
  H   H3212     1.0  0.79681  0.60018  0.35555  1.0000
  H   H3213     1.0  0.80815  0.85116  0.65061  1.0000
  H   H3214     1.0  0.78720  0.61911  0.34135  1.0000
  H   H3215     1.0  0.92861  0.49930  0.39179  1.0000
  H   H3216     1.0  0.80293  0.68346  0.63401  1.0000
  H   H3217     1.0  0.79877  0.50384  0.56025  1.0000
  H   H3218     1.0  0.77880  0.59710  0.36860  1.0000
  H   H3219     1.0  0.78037  0.63939  0.40630  1.0000
  H   H3220     1.0  0.77763  0.98450  0.36650  1.0000
  C   C2697     1.0  0.91743  0.64357  0.34913  1.0000
  C   C2698     1.0  0.76945  0.61880  0.41985  1.0000
  H   H3221     1.0  0.88243  0.65482  0.56967  1.0000
  C   C2699     1.0  0.88263  0.57156  0.57396  1.0000
  C   C2700     1.0  0.88904  0.56109  0.54061  1.0000
  C   C2701     1.0  0.86309  0.56228  0.57343  1.0000
  H   H3222     1.0  0.87650  0.58204  0.58382  1.0000
  H   H3223     1.0  0.89043  0.57548  0.57257  1.0000
  H   H3224     1.0  0.88322  0.55457  0.58270  1.0000
  S   S731      1.0  0.83680  0.61807  0.58294  1.0000
  H   H3225     1.0  0.89693  0.56387  0.54020  1.0000
  H   H3226     1.0  0.88912  0.54381  0.54756  1.0000
  H   H3227     1.0  0.86495  0.55992  0.58859  1.0000
  C   C2702     1.0  0.83142  0.67356  0.64478  1.0000
  N   N177      1.0  0.87986  0.69678  0.46338  1.0000
  C   C2703     1.0  0.87384  0.71762  0.45321  1.0000
  C   C2704     1.0  0.88770  0.68716  0.44624  1.0000
  C   C2705     1.0  0.87238  0.68234  0.47431  1.0000
  C   C2706     1.0  0.88487  0.69989  0.47904  1.0000
  C   C2707     1.0  0.87869  0.71125  0.49494  1.0000
  C   C2708     1.0  0.89578  0.69115  0.47961  1.0000
  C   C2709     1.0  0.88321  0.71430  0.50996  1.0000
  C   C2710     1.0  0.90022  0.69421  0.49475  1.0000
  C   C2711     1.0  0.89399  0.70594  0.50974  1.0000
  H   H3228     1.0  0.87899  0.72955  0.44628  1.0000
  H   H3229     1.0  0.87068  0.71603  0.44021  1.0000
  H   H3230     1.0  0.86675  0.72461  0.46436  1.0000
  H   H3231     1.0  0.89383  0.69685  0.43798  1.0000
  H   H3232     1.0  0.88385  0.68619  0.43400  1.0000
  H   H3233     1.0  0.89172  0.67041  0.45233  1.0000
  H   H3234     1.0  0.86580  0.68931  0.48638  1.0000
  H   H3235     1.0  0.86865  0.67901  0.46305  1.0000
  H   H3236     1.0  0.87658  0.66667  0.48254  1.0000
  H   H3237     1.0  0.87028  0.71769  0.49602  1.0000
  H   H3238     1.0  0.90103  0.68143  0.46883  1.0000
  H   H3239     1.0  0.87830  0.72307  0.52191  1.0000
  H   H3240     1.0  0.90854  0.68716  0.49497  1.0000
  H   H3241     1.0  0.89751  0.70832  0.52133  1.0000
  N   N178      1.0  0.82980  0.82015  0.48380  1.0000
  C   C2712     1.0  0.82297  0.80470  0.48766  1.0000
  C   C2713     1.0  0.82293  0.83991  0.49051  1.0000
  C   C2714     1.0  0.83419  0.82611  0.46070  1.0000
  C   C2715     1.0  0.83852  0.81000  0.49528  1.0000
  C   C2716     1.0  0.84666  0.79278  0.48879  1.0000
  C   C2717     1.0  0.83884  0.81581  0.51383  1.0000
  C   C2718     1.0  0.85471  0.78233  0.49988  1.0000
  C   C2719     1.0  0.84693  0.80522  0.52483  1.0000
  C   C2720     1.0  0.85485  0.78856  0.51786  1.0000
  H   H3242     1.0  0.81976  0.79928  0.50483  1.0000
  H   H3243     1.0  0.81607  0.81183  0.47992  1.0000
  H   H3244     1.0  0.82740  0.79022  0.48129  1.0000
  H   H3245     1.0  0.81838  0.83637  0.50714  1.0000
  H   H3246     1.0  0.81682  0.84782  0.48081  1.0000
  H   H3247     1.0  0.82772  0.85183  0.48883  1.0000
  H   H3248     1.0  0.83804  0.81196  0.45348  1.0000
  H   H3249     1.0  0.82782  0.83511  0.45187  1.0000
  H   H3250     1.0  0.84012  0.83622  0.45718  1.0000
  H   H3251     1.0  0.84667  0.78678  0.47548  1.0000
  H   H3252     1.0  0.83281  0.82808  0.52059  1.0000
  H   H3253     1.0  0.86066  0.76885  0.49492  1.0000
  H   H3254     1.0  0.84681  0.80938  0.53938  1.0000
  H   H3255     1.0  0.86089  0.78004  0.52685  1.0000
  N   N179      1.0  0.82387  0.67575  0.52526  1.0000
  C   C2721     1.0  0.83202  0.68016  0.50573  1.0000
  C   C2722     1.0  0.82937  0.66131  0.54190  1.0000
  C   C2723     1.0  0.81683  0.66386  0.52157  1.0000
  C   C2724     1.0  0.81785  0.69648  0.53088  1.0000
  C   C2725     1.0  0.80926  0.70919  0.52142  1.0000
  C   C2726     1.0  0.82101  0.70562  0.54430  1.0000
  C   C2727     1.0  0.80392  0.72926  0.52585  1.0000
  C   C2728     1.0  0.81553  0.72556  0.54884  1.0000
  C   C2729     1.0  0.80701  0.73738  0.53962  1.0000
  H   H3256     1.0  0.83753  0.68895  0.50779  1.0000
  H   H3257     1.0  0.83685  0.66518  0.50067  1.0000
  H   H3258     1.0  0.82825  0.69032  0.49260  1.0000
  H   H3259     1.0  0.83602  0.66727  0.54353  1.0000
  H   H3260     1.0  0.83309  0.64515  0.53837  1.0000
  H   H3261     1.0  0.82366  0.65911  0.55735  1.0000
  H   H3262     1.0  0.81391  0.67146  0.50679  1.0000
  H   H3263     1.0  0.82109  0.64736  0.51955  1.0000
  H   H3264     1.0  0.80988  0.66227  0.53507  1.0000
  H   H3265     1.0  0.80675  0.70416  0.51002  1.0000
  H   H3266     1.0  0.82778  0.69779  0.55136  1.0000
  H   H3267     1.0  0.79749  0.73873  0.51818  1.0000
  H   H3268     1.0  0.81810  0.73208  0.55922  1.0000
  H   H3269     1.0  0.80295  0.75302  0.54288  1.0000
  N   N180      1.0  0.80846  0.78231  0.35800  1.0000
  C   C2730     1.0  0.80099  0.97863  0.33041  1.0000
  C   C2731     1.0  0.82012  0.78077  0.35124  1.0000
  H   H3270     1.0  0.79425  0.80724  0.36152  1.0000
  C   C2732     1.0  0.80590  0.77104  0.38041  1.0000
  C   C2733     1.0  0.80284  0.75093  0.38677  1.0000
  C   C2734     1.0  0.80704  0.77955  0.39661  1.0000
  H   H3271     1.0  0.86329  0.66095  0.62026  1.0000
  C   C2735     1.0  0.94029  0.63915  0.61083  1.0000
  H   H3272     1.0  0.74738  0.90483  0.33437  1.0000
  C   C2736     1.0  0.78227  0.68465  0.64780  1.0000
  H   H3273     1.0  0.80591  0.81422  0.36353  1.0000
  H   H3274     1.0  0.93895  0.63036  0.35690  1.0000
  H   H3275     1.0  0.82456  0.76384  0.35221  1.0000
  C   C2737     1.0  0.76203  0.94349  0.33381  1.0000
  H   H3276     1.0  0.90016  0.69546  0.65225  1.0000
  H   H3277     1.0  0.76869  0.55099  0.64164  1.0000
  H   H3278     1.0  0.81139  0.53130  0.50780  1.0000
  H   H3279     1.0  0.79523  0.50687  0.36013  1.0000
  H   H3280     1.0  0.80204  0.74284  0.37564  1.0000
  H   H3281     1.0  0.80982  0.79422  0.39302  1.0000
  C   C2738     1.0  0.80492  0.76901  0.41781  1.0000
  H   H3282     1.0  0.82306  0.78741  0.36135  1.0000
  S   S732      1.0  0.84825  0.57271  0.62438  1.0000
  S   S733      1.0  0.90120  0.58848  0.63517  1.0000
  H   H3283     1.0  0.91120  0.72154  0.59786  1.0000
  H   H3284     1.0  0.82751  0.64993  0.63349  1.0000
  H   H3285     1.0  0.84821  0.55269  0.58879  1.0000
  C   C2739     1.0  0.79428  0.54210  0.61368  1.0000
  H   H3286     1.0  0.79873  0.72486  0.41258  1.0000
  H   H3287     1.0  0.79994  0.53081  0.60497  1.0000
  H   H3288     1.0  0.86770  0.64227  0.57077  1.0000
  C   C2740     1.0  0.86652  0.57220  0.53524  1.0000
  H   H3289     1.0  0.85838  0.63451  0.59474  1.0000
  C   C2741     1.0  0.78803  0.55722  0.54929  1.0000
  S   S734      1.0  0.82093  0.67289  0.59419  1.0000
  H   H3290     1.0  0.84070  0.61089  0.64176  1.0000
  C   C2742     1.0  0.80089  0.66754  0.64138  1.0000
  C   C2743     1.0  0.82803  0.66648  0.63045  1.0000
  H   H3291     1.0  0.80549  0.56160  0.60935  1.0000
  C   C2744     1.0  0.86885  0.67996  0.57965  1.0000
  S   S735      1.0  0.79421  0.59519  0.63235  1.0000
  C   C2745     1.0  0.79747  0.55945  0.61632  1.0000
  C   C2746     1.0  0.78597  0.65476  0.61057  1.0000
  S   S736      1.0  0.82433  0.57811  0.59915  1.0000
  H   H3292     1.0  0.80059  0.74091  0.43992  1.0000
  S   S737      1.0  0.81119  0.62771  0.58478  1.0000
  C   C2747     1.0  0.79000  0.66893  0.61725  1.0000
  N   N181      1.0  0.79523  0.53700  0.54438  1.0000
  C   C2748     1.0  0.83236  0.69488  0.64067  1.0000
  H   H3293     1.0  0.85431  0.57019  0.52116  1.0000
  C   C2749     1.0  0.82654  0.88891  0.64634  1.0000
  H   H3294     1.0  0.85443  0.67704  0.56076  1.0000
  C   C2750     1.0  0.76506  0.60316  0.41735  1.0000
  H   H3295     1.0  0.80080  0.51385  0.43336  1.0000
  S   S738      1.0  0.74672  0.51827  0.37061  1.0000
  C   C2751     1.0  0.83020  0.87204  0.63573  1.0000
  C   C2752     1.0  0.85338  0.55799  0.57378  1.0000
  Fe  Fe368     1.0  0.76196  0.50904  0.38204  1.0000
  H   H3296     1.0  0.87030  0.56758  0.62382  1.0000
  H   H3297     1.0  0.76030  0.88813  0.33161  1.0000
  N   N182      1.0  0.93825  0.64548  0.63130  1.0000
  H   H3298     1.0  0.85279  0.68358  0.61434  1.0000
  C   C2753     1.0  0.93768  0.66892  0.62652  1.0000
  C   C2754     1.0  0.82351  0.85874  0.63701  1.0000
  C   C2755     1.0  0.93131  0.49778  0.40591  1.0000
  C   C2756     1.0  0.86473  0.64393  0.58747  1.0000
  H   H3299     1.0  0.86125  0.69714  0.64811  1.0000
  C   C2757     1.0  0.80651  0.53883  0.53933  1.0000
  C   C2758     1.0  0.88734  0.68385  0.56437  1.0000
  N   N183      1.0  0.92039  0.62007  0.35699  1.0000
  Fe  Fe369     1.0  0.88996  0.61977  0.63928  1.0000
  C   C2759     1.0  0.75273  0.89198  0.32632  1.0000
  C   C2760     1.0  0.93135  0.61160  0.34590  1.0000
  C   C2761     1.0  0.80495  0.50767  0.41930  1.0000
  C   C2762     1.0  0.86616  0.70206  0.58001  1.0000
  H   H3300     1.0  0.77941  0.64514  0.65449  1.0000
  C   C2763     1.0  0.77276  0.93289  0.33071  1.0000
  S   S739      1.0  0.81985  0.61317  0.62903  1.0000
  S   S740      1.0  0.87234  0.62576  0.65320  1.0000
  S   S741      1.0  0.96622  0.51759  0.33211  1.0000
  H   H3301     1.0  0.82822  0.50699  0.38286  1.0000
  H   H3302     1.0  0.82981  0.53347  0.50151  1.0000
  C   C2764     1.0  0.78931  0.67459  0.57431  1.0000
  H   H3303     1.0  0.79443  0.95792  0.35879  1.0000
  H   H3304     1.0  0.84728  0.69188  0.58079  1.0000
  H   H3305     1.0  0.76508  0.58356  0.39680  1.0000
  C   C2765     1.0  0.77997  0.57041  0.63758  1.0000
  H   H3306     1.0  0.80595  0.77587  0.42980  1.0000
  N   N184      1.0  0.86069  0.66679  0.58892  1.0000
  H   H3307     1.0  0.80718  0.65559  0.63358  1.0000
  H   H3308     1.0  0.80010  0.62405  0.33777  1.0000
  H   H3309     1.0  0.75905  0.59652  0.42998  1.0000
  H   H3310     1.0  0.82411  0.55025  0.56116  1.0000
  H   H3311     1.0  0.92471  0.62458  0.38396  1.0000
  C   C2766     1.0  0.78072  0.94471  0.32262  1.0000
  H   H3312     1.0  0.81281  0.56802  0.65145  1.0000
  S   S742      1.0  0.90139  0.63149  0.65015  1.0000
  C   C2767     1.0  0.79349  0.68622  0.60148  1.0000
  Fe  Fe370     1.0  0.83576  0.78332  0.64671  1.0000
  H   H3313     1.0  0.83233  0.89787  0.64545  1.0000
  H   H3314     1.0  0.93201  0.67794  0.61606  1.0000
  H   H3315     1.0  0.78925  0.57089  0.53565  1.0000
  Fe  Fe371     1.0  0.84011  0.73668  0.64317  1.0000
  H   H3316     1.0  0.79670  0.51683  0.52307  1.0000
  H   H3317     1.0  0.84261  0.55786  0.55536  1.0000
  C   C2768     1.0  0.92774  0.64123  0.64368  1.0000
  H   H3318     1.0  0.94816  0.64175  0.60076  1.0000
  Fe  Fe372     1.0  0.91320  0.60164  0.64276  1.0000
  H   H3319     1.0  0.78921  0.56118  0.56332  1.0000
  S   S743      1.0  0.77627  0.90488  0.33575  1.0000
  H   H3320     1.0  0.81875  0.52028  0.41529  1.0000
  H   H3321     1.0  0.92766  0.58939  0.33135  1.0000
  C   C2769     1.0  0.85462  0.61740  0.64690  1.0000
  N   N185      1.0  0.79020  0.66672  0.63961  1.0000
  H   H3322     1.0  0.87986  0.58860  0.63433  1.0000
  C   C2770     1.0  0.92377  0.50649  0.42204  1.0000
  H   H3323     1.0  0.78504  0.51726  0.56747  1.0000
  H   H3324     1.0  0.94563  0.67267  0.61845  1.0000
  C   C2771     1.0  0.78499  0.65161  0.35893  1.0000
  C   C2772     1.0  0.80300  0.80531  0.35537  1.0000
  H   H3325     1.0  0.76680  0.62438  0.43449  1.0000
  C   C2773     1.0  0.81312  0.86225  0.64888  1.0000
  H   H3326     1.0  0.95713  0.61617  0.33928  1.0000
  H   H3327     1.0  0.78316  0.64107  0.62128  1.0000
  H   H3328     1.0  0.95737  0.50640  0.38117  1.0000
  H   H3329     1.0  0.79286  0.50614  0.65479  1.0000
  H   H3330     1.0  0.78410  0.70048  0.63889  1.0000
  H   H3331     1.0  0.80827  0.96678  0.32684  1.0000
  C   C2774     1.0  0.96199  0.60513  0.65064  1.0000
  C   C2775     1.0  0.78379  0.98866  0.35278  1.0000
  H   H3332     1.0  0.80682  0.78284  0.32691  1.0000
  H   H3333     1.0  0.95525  0.61012  0.62440  1.0000
  C   C2776     1.0  0.78768  0.64631  0.65351  1.0000
  H   H3334     1.0  0.77440  0.58135  0.64685  1.0000
  H   H3335     1.0  0.79659  0.77331  0.34819  1.0000
  H   H3336     1.0  0.83047  0.54441  0.64240  1.0000
  H   H3337     1.0  0.80987  0.75673  0.34272  1.0000
  C   C2777     1.0  0.80525  0.77331  0.34343  1.0000
  H   H3338     1.0  0.80449  0.81399  0.33852  1.0000
  H   H3339     1.0  0.82245  0.78998  0.33479  1.0000
  C   C2778     1.0  0.79994  0.49705  0.41092  1.0000
  C   C2779     1.0  0.94643  0.63378  0.64381  1.0000
  C   C2780     1.0  0.95455  0.61608  0.63817  1.0000
  C   C2781     1.0  0.82353  0.53751  0.65030  1.0000
  H   H3340     1.0  0.83229  0.50509  0.65115  1.0000
  H   H3341     1.0  0.96802  0.59148  0.64626  1.0000
  H   H3342     1.0  0.93912  0.49673  0.45743  1.0000
  H   H3343     1.0  0.92771  0.62393  0.64669  1.0000
  C   C2782     1.0  0.93694  0.49671  0.44312  1.0000
  C   C2783     1.0  0.94417  0.58829  0.32338  1.0000
  H   H3344     1.0  0.85019  0.63089  0.65398  1.0000
  H   H3345     1.0  0.79193  0.49555  0.41923  1.0000
  Fe  Fe373     1.0  0.75414  0.96320  0.86199  1.0000
  S   S744      1.0  0.76412  0.94089  0.84097  1.0000
  S   S745      1.0  0.82553  0.80483  0.66927  1.0000
  C   C2784     1.0  0.96155  0.61131  0.66902  1.0000
  S   S746      1.0  0.75064  0.90498  0.87216  1.0000
  C   C2785     1.0  0.92215  0.53658  0.71266  1.0000
  Fe  Fe374     1.0  0.76499  0.91664  0.87122  1.0000
  S   S747      1.0  0.77999  0.89401  0.87854  1.0000
  Fe  Fe375     1.0  0.74886  0.93161  0.84375  1.0000
  S   S748      1.0  0.74446  0.92585  0.81640  1.0000
  S   S749      1.0  0.75610  0.93964  0.89228  1.0000
  C   C2786     1.0  0.76432  0.88617  0.78747  1.0000
  Fe  Fe376     1.0  0.81897  0.89137  0.77228  1.0000
  S   S750      1.0  0.83468  0.89720  0.75138  1.0000
  S   S751      1.0  0.81833  0.86934  0.80415  1.0000
  Fe  Fe377     1.0  0.80637  0.92006  0.74071  1.0000
  S   S752      1.0  0.82094  0.92831  0.71734  1.0000
  S   S753      1.0  0.78967  0.93249  0.73562  1.0000
  Fe  Fe378     1.0  0.82817  0.89310  0.72557  1.0000
  H   H3346     1.0  0.77672  0.96228  0.77763  1.0000
  Fe  Fe379     1.0  0.82591  0.93162  0.74530  1.0000
  S   S754      1.0  0.83119  0.96209  0.74249  1.0000
  S   S755      1.0  0.81313  0.88468  0.74715  1.0000
  S   S756      1.0  0.81069  0.92599  0.76802  1.0000
  C   C2787     1.0  0.74540  0.96735  0.79556  1.0000
  H   H3347     1.0  0.93652  0.56145  0.76266  1.0000
  C   C2788     1.0  0.74320  0.98572  0.77975  1.0000
  H   H3348     1.0  0.95311  0.63259  0.68986  1.0000
  H   H3349     1.0  0.73803  0.99144  0.68753  1.0000
  H   H3350     1.0  0.76441  0.98192  0.80443  1.0000
  C   C2789     1.0  0.78254  0.88535  0.76971  1.0000
  C   C2790     1.0  0.78311  0.84821  0.84672  1.0000
  C   C2791     1.0  0.85529  0.69026  0.69040  1.0000
  C   C2792     1.0  0.77643  0.97123  0.72537  1.0000
  H   H3351     1.0  0.78830  0.64463  0.67003  1.0000
  H   H3352     1.0  0.78662  0.53548  0.69810  1.0000
  H   H3353     1.0  0.89427  0.73236  0.65826  1.0000
  H   H3354     1.0  0.79796  0.83606  0.82702  1.0000
  Fe  Fe380     1.0  0.97303  0.52451  0.75189  1.0000
  S   S757      1.0  0.96199  0.55071  0.76713  1.0000
  H   H3355     1.0  0.92268  0.52781  0.70088  1.0000
  Fe  Fe381     1.0  0.96327  0.57074  0.73421  1.0000
  S   S758      1.0  0.94800  0.59248  0.72572  1.0000
  H   H3356     1.0  0.73948  0.88324  0.95742  1.0000
  H   H3357     1.0  0.75767  0.89026  0.80078  1.0000
  S   S759      1.0  0.97336  0.54379  0.71880  1.0000
  C   C2793     1.0  0.80213  0.92524  0.66227  1.0000
  H   H3358     1.0  0.95806  0.56171  0.86623  1.0000
  H   H3359     1.0  0.80259  0.89240  0.69669  1.0000
  H   H3360     1.0  0.91993  0.61068  0.68589  1.0000
  C   C2794     1.0  0.98234  0.53896  0.87777  1.0000
  H   H3361     1.0  0.86251  0.72388  0.68372  1.0000
  H   H3362     1.0  0.82662  0.91508  0.67274  1.0000
  C   C2795     1.0  0.94615  0.63945  0.66280  1.0000
  H   H3363     1.0  0.82135  0.89578  0.86047  1.0000
  H   H3364     1.0  0.78536  0.83861  0.86127  1.0000
  H   H3365     1.0  0.73743  0.50509  0.74164  1.0000
  C   C2796     1.0  0.81393  0.95784  0.85051  1.0000
  C   C2797     1.0  0.92859  0.54023  0.74197  1.0000
  H   H3366     1.0  0.96272  0.53170  0.84888  1.0000
  C   C2798     1.0  0.96564  0.55049  0.86671  1.0000
  C   C2799     1.0  0.79835  0.49568  0.70334  1.0000
  H   H3367     1.0  0.79544  0.91693  0.66624  1.0000
  C   C2800     1.0  0.94208  0.58892  0.70684  1.0000
  C   C2801     1.0  0.93245  0.60279  0.70305  1.0000
  C   C2802     1.0  0.77417  0.99322  0.71645  1.0000
  C   C2803     1.0  0.93208  0.58378  0.67729  1.0000
  C   C2804     1.0  0.94172  0.56999  0.68105  1.0000
  C   C2805     1.0  0.94675  0.57264  0.69561  1.0000
  H   H3368     1.0  0.94531  0.55718  0.67263  1.0000
  H   H3369     1.0  0.95425  0.56213  0.69803  1.0000
  S   S760      1.0  0.83394  0.99230  0.82208  1.0000
  C   C2806     1.0  0.81947  0.92453  0.66633  1.0000
  H   H3370     1.0  0.93582  0.49818  0.76017  1.0000
  H   H3371     1.0  0.94897  0.51746  0.73398  1.0000
  H   H3372     1.0  0.87542  0.74612  0.67381  1.0000
  H   H3373     1.0  0.80956  0.98146  0.75597  1.0000
  H   H3374     1.0  0.79461  0.98743  0.84932  1.0000
  H   H3375     1.0  0.78092  0.91463  0.79179  1.0000
  C   C2807     1.0  0.98020  0.50758  0.82407  1.0000
  H   H3376     1.0  0.95781  0.51357  0.79273  1.0000
  C   C2808     1.0  0.82578  0.92417  0.86157  1.0000
  H   H3377     1.0  0.76804  0.86428  0.86255  1.0000
  H   H3378     1.0  0.92880  0.61541  0.71169  1.0000
  H   H3379     1.0  0.83298  0.91547  0.86705  1.0000
  C   C2809     1.0  0.86981  0.65983  0.68908  1.0000
  C   C2810     1.0  0.78794  0.95182  0.85376  1.0000
  C   C2811     1.0  0.88457  0.68817  0.66476  1.0000
  H   H3380     1.0  0.84968  0.67947  0.69361  1.0000
  H   H3381     1.0  0.78813  0.93452  0.85602  1.0000
  C   C2812     1.0  0.81005  0.92434  0.85048  1.0000
  H   H3382     1.0  0.78393  0.86855  0.76802  1.0000
  C   C2813     1.0  0.79821  0.95299  0.81796  1.0000
  C   C2814     1.0  0.83230  0.98402  0.80059  1.0000
  C   C2815     1.0  0.96842  0.53329  0.85669  1.0000
  H   H3383     1.0  0.93913  0.50370  0.78159  1.0000
  C   C2816     1.0  0.77135  0.98775  0.79451  1.0000
  H   H3384     1.0  0.83447  0.95054  0.81590  1.0000
  H   H3385     1.0  0.83294  0.93854  0.78533  1.0000
  C   C2817     1.0  0.93463  0.54558  0.77143  1.0000
  N   N186      1.0  0.98094  0.49999  0.84658  1.0000
  H   H3386     1.0  0.78738  0.95475  0.86955  1.0000
  S   S761      1.0  0.83801  0.87619  0.69896  1.0000
  H   H3387     1.0  0.76603  0.97811  0.88882  1.0000
  H   H3388     1.0  0.76486  0.86924  0.78717  1.0000
  H   H3389     1.0  0.78814  0.99022  0.82864  1.0000
  Fe  Fe382     1.0  0.74149  0.93013  0.89057  1.0000
  H   H3390     1.0  0.74829  0.50086  0.75357  1.0000
  C   C2818     1.0  0.79526  0.97011  0.71154  1.0000
  H   H3391     1.0  0.82829  0.95510  0.86050  1.0000
  C   C2819     1.0  0.77336  0.86273  0.84741  1.0000
  H   H3392     1.0  0.88741  0.67273  0.66059  1.0000
  S   S762      1.0  0.84804  0.75403  0.65650  1.0000
  C   C2820     1.0  0.80712  0.94704  0.84645  1.0000
  H   H3393     1.0  0.97037  0.56650  0.88520  1.0000
  H   H3394     1.0  0.79867  0.93570  0.81967  1.0000
  H   H3395     1.0  0.92067  0.57064  0.75197  1.0000
  C   C2821     1.0  0.82528  0.84812  0.70199  1.0000
  C   C2822     1.0  0.92747  0.60028  0.68829  1.0000
  C   C2823     1.0  0.74185  0.94898  0.79687  1.0000
  H   H3396     1.0  0.94883  0.54428  0.73487  1.0000
  S   S763      1.0  0.92589  0.57893  0.65956  1.0000
  C   C2824     1.0  0.83122  0.97015  0.76536  1.0000
  C   C2825     1.0  0.77762  0.87481  0.80879  1.0000
  H   H3397     1.0  0.81600  0.93803  0.67465  1.0000
  H   H3398     1.0  0.76183  0.89669  0.77293  1.0000
  C   C2826     1.0  0.83226  0.95538  0.78434  1.0000
  H   H3399     1.0  0.77116  0.92313  0.77580  1.0000
  H   H3400     1.0  0.76305  0.88722  0.83022  1.0000
  H   H3401     1.0  0.91003  0.56256  0.70137  1.0000
  H   H3402     1.0  0.80514  0.91540  0.70151  1.0000
  C   C2827     1.0  0.86435  0.68088  0.65709  1.0000
  H   H3403     1.0  0.74413  0.87393  0.92343  1.0000
  H   H3404     1.0  0.93996  0.65207  0.66865  1.0000
  C   C2828     1.0  0.92123  0.56030  0.74169  1.0000
  C   C2829     1.0  0.79049  0.88792  0.85734  1.0000
  C   C2830     1.0  0.79004  0.89811  0.83637  1.0000
  C   C2831     1.0  0.79867  0.89286  0.81985  1.0000
  C   C2832     1.0  0.80766  0.87722  0.82432  1.0000
  C   C2833     1.0  0.80807  0.86709  0.84526  1.0000
  C   C2834     1.0  0.79955  0.87254  0.86172  1.0000
  H   H3405     1.0  0.78303  0.90974  0.83286  1.0000
  H   H3406     1.0  0.79825  0.90036  0.80368  1.0000
  H   H3407     1.0  0.81499  0.85494  0.84875  1.0000
  H   H3408     1.0  0.79993  0.86464  0.87789  1.0000
  C   C2835     1.0  0.82973  0.82284  0.67883  1.0000
  C   C2836     1.0  0.92881  0.52859  0.72702  1.0000
  C   C2837     1.0  0.79556  0.98210  0.83451  1.0000
  H   H3409     1.0  0.78038  0.96083  0.84876  1.0000
  H   H3410     1.0  0.79359  0.85832  0.79442  1.0000
  H   H3411     1.0  0.79719  0.55340  0.66916  1.0000
  H   H3412     1.0  0.79026  0.88891  0.76931  1.0000
  H   H3413     1.0  0.81509  0.82789  0.70209  1.0000
  C   C2838     1.0  0.78699  0.95971  0.72323  1.0000
  H   H3414     1.0  0.76999  0.96328  0.73433  1.0000
  H   H3415     1.0  0.74975  0.96739  0.80684  1.0000
  N   N187      1.0  0.86588  0.68194  0.67766  1.0000
  C   C2839     1.0  0.73846  0.86628  0.93612  1.0000
  H   H3416     1.0  0.85594  0.69211  0.70585  1.0000
  H   H3417     1.0  0.80020  0.50484  0.71293  1.0000
  C   C2840     1.0  0.87366  0.69547  0.67377  1.0000
  C   C2841     1.0  0.98526  0.52188  0.86755  1.0000
  H   H3418     1.0  0.78205  0.68355  0.66469  1.0000
  H   H3419     1.0  0.73799  0.54204  0.69527  1.0000
  C   C2842     1.0  0.87061  0.71669  0.67727  1.0000
  H   H3420     1.0  0.81250  0.97508  0.84772  1.0000
  H   H3421     1.0  0.79232  0.97501  0.75548  1.0000
  H   H3422     1.0  0.90910  0.58349  0.72718  1.0000
  C   C2843     1.0  0.77062  0.87588  0.82878  1.0000
  C   C2844     1.0  0.88865  0.72196  0.66307  1.0000
  H   H3423     1.0  0.76706  0.91640  0.80386  1.0000
  H   H3424     1.0  0.85127  0.70594  0.68191  1.0000
  H   H3425     1.0  0.98569  0.51861  0.81538  1.0000
  H   H3426     1.0  0.81565  0.89223  0.69878  1.0000
  H   H3427     1.0  0.79117  0.96176  0.81107  1.0000
  S   S764      1.0  0.97859  0.56442  0.79799  1.0000
  Fe  Fe383     1.0  0.97689  0.55966  0.76745  1.0000
  H   H3428     1.0  0.94014  0.53849  0.78247  1.0000
  H   H3429     1.0  0.77888  0.98929  0.90191  1.0000
  C   C2845     1.0  0.83956  0.82874  0.66994  1.0000
  N   N188      1.0  0.93588  0.53153  0.75677  1.0000
  H   H3430     1.0  0.84507  0.82147  0.65747  1.0000
  C   C2846     1.0  0.73718  0.98586  0.76568  1.0000
  C   C2847     1.0  0.95364  0.62842  0.67509  1.0000
  C   C2848     1.0  0.97833  0.51843  0.85677  1.0000
  H   H3431     1.0  0.97207  0.51638  0.82207  1.0000
  C   C2849     1.0  0.78755  0.85984  0.80866  1.0000
  C   C2850     1.0  0.77834  0.97666  0.77960  1.0000
  C   C2851     1.0  0.94706  0.52869  0.74466  1.0000
  C   C2852     1.0  0.82267  0.83248  0.69501  1.0000
  H   H3432     1.0  0.81979  0.85516  0.71459  1.0000
  C   C2853     1.0  0.83308  0.96224  0.80170  1.0000
  H   H3433     1.0  0.79901  0.93934  0.66985  1.0000
  H   H3434     1.0  0.80550  0.95694  0.80626  1.0000
  C   C2854     1.0  0.84207  0.84476  0.67661  1.0000
  C   C2855     1.0  0.77337  0.91179  0.79027  1.0000
  C   C2856     1.0  0.78733  0.98422  0.76689  1.0000
  H   H3435     1.0  0.86375  0.64983  0.69332  1.0000
  H   H3436     1.0  0.87193  0.65998  0.70384  1.0000
  C   C2857     1.0  0.91497  0.55618  0.71293  1.0000
  C   C2858     1.0  0.91449  0.56796  0.72746  1.0000
  H   H3437     1.0  0.92642  0.54817  0.78140  1.0000
  H   H3438     1.0  0.80341  0.96137  0.70969  1.0000
  H   H3439     1.0  0.77988  0.89597  0.75537  1.0000
  H   H3440     1.0  0.77928  0.51746  0.69651  1.0000
  S   S765      1.0  0.97719  0.58260  0.73601  1.0000
  C   C2859     1.0  0.97257  0.55326  0.87732  1.0000
  C   C2860     1.0  0.87802  0.72969  0.67182  1.0000
  S   S766      1.0  0.75930  0.51621  0.67375  1.0000
  C   C2861     1.0  0.82454  0.51537  0.65527  1.0000
  H   H3441     1.0  0.80526  0.91503  0.84786  1.0000
  H   H3442     1.0  0.93429  0.51338  0.72605  1.0000
  H   H3443     1.0  0.80224  0.98818  0.82245  1.0000
  C   C2862     1.0  0.79018  0.84677  0.82741  1.0000
  C   C2863     1.0  0.83490  0.85474  0.69247  1.0000
  C   C2864     1.0  0.81926  0.91313  0.85783  1.0000
  H   H3444     1.0  0.87688  0.65096  0.67936  1.0000
  H   H3445     1.0  0.95273  0.52201  0.75530  1.0000
  C   C2865     1.0  0.82309  0.94646  0.85801  1.0000
  C   C2866     1.0  0.80860  0.90238  0.69259  1.0000
  N   N189      1.0  0.77459  0.88918  0.78933  1.0000
  C   C2867     1.0  0.81562  0.50646  0.66562  1.0000
  N   N190      1.0  0.79740  0.95843  0.83832  1.0000
  C   C2868     1.0  0.80463  0.54206  0.66584  1.0000
  H   H3446     1.0  0.95094  0.50186  0.83092  1.0000
  C   C2869     1.0  0.78605  0.52545  0.68788  1.0000
  C   C2870     1.0  0.95977  0.49692  0.80004  1.0000
  C   C2871     1.0  0.79298  0.99206  0.70233  1.0000
  H   H3447     1.0  0.96715  0.60246  0.67896  1.0000
  Fe  Fe384     1.0  0.74569  0.50327  0.67243  1.0000
  H   H3448     1.0  0.78374  0.53602  0.67322  1.0000
  H   H3449     1.0  0.92551  0.64577  0.65924  1.0000
  C   C2872     1.0  0.93398  0.51039  0.76981  1.0000
  C   C2873     1.0  0.83052  0.99189  0.76422  1.0000
  S   S767      1.0  0.83741  0.70330  0.65761  1.0000
  N   N191      1.0  0.79617  0.50961  0.68300  1.0000
  C   C2874     1.0  0.80932  0.87924  0.65933  1.0000
  H   H3450     1.0  0.92553  0.51166  0.77858  1.0000
  S   S768      1.0  0.73862  0.95609  0.86208  1.0000
  N   N192      1.0  0.81169  0.91104  0.66959  1.0000
  C   C2875     1.0  0.80539  0.51952  0.67135  1.0000
  C   C2876     1.0  0.76940  0.99178  0.87975  1.0000
  H   H3451     1.0  0.80127  0.88100  0.66865  1.0000
  H   H3452     1.0  0.84957  0.84964  0.66923  1.0000
  C   C2877     1.0  0.81591  0.89317  0.65834  1.0000
  H   H3453     1.0  0.85852  0.67086  0.65919  1.0000
  H   H3454     1.0  0.83351  0.66244  0.65882  1.0000
  C   C2878     1.0  0.89195  0.70116  0.65975  1.0000
  C   C2879     1.0  0.79438  0.49635  0.67038  1.0000
  H   H3455     1.0  0.80160  0.66416  0.65808  1.0000
  H   H3456     1.0  0.80431  0.99173  0.73235  1.0000
  C   C2880     1.0  0.81360  0.55079  0.65552  1.0000
