data_image0
_chemical_formula_structural       CSHFeSCFeSFeS2HFeSCFeS2FeSFeS3FeS2FeS2FeSFeS3FeS2HC2HFeSHSH2SC6H4C3HC6H4C6H6C6HNH2C6H4CHC6H3C7H2C3H6FeHNH4CHCHCH4CH2CHSCHC2H2CH3CHC2H5C2H3C3H2CHNC2H5CH2C2H3NH2C3HC2SCH5CHCHCH5SH2C2H3CNH2C2HC2HSCH4CHCHCH3CHNC2H5SHCHC3H2C2H5FeS2FeS2FeSFeS3FeS2FeHSCFeS3FeHSFeS2FeC3S2FeS2CSHFeSFeHSHC2H2CH3C5H7C4H2C3HC4H4C6H2C2HC6H4C6HCHC6H4C6H3NH3CN2HSH4NSC2H3SCH2SCH5C2H3CH2CHCH2FeH5CH5SCHCH5C2H2CHCH3CHC2H3CH2SH2CH5C3FeCHSCH4CH2C2N2HC2H2C2H4CHCH2CH3CHCHC2SC3HNH2CH2CSCHC3H2CHCNHC3H2CHNCH2SH5CH2C2HCHCH2CHCNH2FeCH2CSHCH2C2H2CHNCH3C2HSFeS2FeCHCHFeS3FeCSFeHSHCHCS2C2NC5H4NC4H2C6H4C2HCH3C3FeSH3CH2C2HCH8C2H4C2FeCNH3CH2CH3SCHFeHCHC2H2CH2SHNH3SCHCHCFeC2H7CSFeS2FeS2Fe3S3FeS2FeS2FeHFeHS2HC6H4C3H3C5HC6H3C6H8NCHC2H2C3SCH4C7HCSH7NHCHSNC2H2CH6C2HCHCH11C4H4CNHCSCSCFeS2FeSFeHSHFeSC2SHFeSFeSCHC6H5C2H2CH2CHC3SHCHC7H4C3HCH3SHSHFeHC2NC9H11CH2C5H3SHC3FeHCH4NCHCNH2C2HSH2CH2C4HCSHFeCH2CHNH2SFeS2HSCFeSFeSCSFeCSFeS2C2FeS3H3CH2C7H3SC6H5C3H3C3H2NC9H14CH2C5H3CH3C2HNH3FeSFeH2FeH4CHCHCH2SCH2CHC2HC2H3CHC2HC2SCFeS2FeSFeS2HFeS2FeS2FeCFeS3FeCSFeH3SHSHFeS2FeS2FeSFeHS2CH2NC7H3C3HC2HCHC3H5C6H4C6H4C2HC2HC6HCH2C6H4C6H3SH10CSH2CNCH5CHCHCH5C5H2CHCNC4H2CH2CH3CSC2HFeHCH2NH3C4HCSH2CHCSC2H5NC9H11SCHNC9H8CSHSHCHFeCH3CH3CH5CH2NH2CH2C3SH3CHCNCHCH7C2HC2HC3HCH9C3H3C2H4SNHFeHSFeHSHCS2CFeS2FeS2FeCFeS3FeHSFeS2FeSFeHS2FeS2FeS2FeSC2S2CHC6H4C8H5C6HCH2C6HCHC6H4C6H3C6H5CH3CH4CHCHSH3CHNH5CH4CH7CH2C2HC2FeNC9H15NHC2HFeH3CH5CSH2C2HCHCH2NHCHCHC2HCHC3H3CHNHCSH2C2H5CHNSCH5CH3CH2SCHC2HNHCHC2H2CH8CHC2HCH2CHCSHSHFeS2FeS2FeHFeHS2FeSHFeS2FeSFeS3FeS2FeS2FeSFeCS2HCNSHC2FeSCHCHC5H2C6H4C6H3C3H2SHCHC6H5C6H4C6H3SHC5H4C6H11C3H2CH4CH2CH2NH2C3HCHCHCH9SH4NCHC2H2CH6CHC2NH2CH3CHCHCS2CHNH3CHC2NHNH2C2H3C2H3C5SHCH2NH2C2HCHCH3C2HCH3C2HC5HCH2CH2CSH2CH2CHC4HCNSC3H3CHC5HCHCH4C2H3CH2C5H3C2HNC2H2C2SHCHFeCHC2FeH2CH6CHCHSH3CHCH2CH3FeCSC2HCSFeS2FeHSFeHFeHS2FeS2FeS2HCFeS3FeS2FeS2FeSFeS3HCFeC5NH2SC5H4C7H4C6H4C6HCH2C6H3C6H3NC9H14CHCH3CHC2NC2HCHCH2C2HSFeHCHNCHC2SH4SCHSH2NC6H16CH2CH5C2HC2NH2SHCHNC4H2CH3CH3CH3NHCH5CFeCHCHC2HSH3CH3C2H2FeHCH4C3H2C2H2CHSH2CHC3HCHCH2CH2C4SCH3CH3CH3CHCHSHSCFeS2FeSFeHSHFeS2FeHSFeCHCS2CHC6H4C3H5SC3HCH4C6H5C4HNCHC3NS2CHC2HFeSCHCHSC2H2CNC9H15C2H2CFeHCHC4H6CH3C2SC2HC2HNC2HFeS2FeS2H2FeS3FeS2FeS2H2FeS4C2H2C6H6C2HC6H3FeHC3H4NC9HCH9CH2CHC3H2CH3CH2NH3CHCH2C2H3C2H3C3NH3FeCHC5HC2FeH3CH2CHS2FeSHS2HFeSFeSCNHSHFeS2FeSFeHSH3C4HCH3C7H5C2H4CHCH5CHC3HCHSH2SH2CFeHC2H2CNHCH2CH2C2H2CHCNC6HCSC4H2CH3CSHCH2CS2FeSHFeSHFeSFeS3FeSHFeSCFeSFeS2C7H4C4FeH3C3SH2C4H3SC6H6C2HCH3SCH2CH2NHSC3H3CSHC6H2CH2C3NHCHCNH10C2SCH2NC2HCHC2H2CH3CHSHC3H7FeS2FeS2FeSFeS3FeSCFeSHFeSFeS3HSHFeS2FeSFeS3H2CFeCSCH2SHC6H3CHC6H2CHC6H9C7H4C6H4C6H3C6HNH2NC9H14NSC3HFeH2C2H5CH2CHC2HNC9H18CSH3C2H2SHCHFeCH5C2H2CNCH2SHFeCHC3H2C3HC2HNCHSNHNHCHCH2CH2CHCSH2NCHCH5CH2C2H2CH3CH2CHCH8CSH2FeC2HCH2FeS2FeS2FeSFeS3FeHSFeHSH3S2FeHCFeS2CHFeCS2FeS2FeS3CFeS3HC2HC3H3C6H3FeC4H3C7H4C6H3C6HCH2C6H4C8H4C6H4NC9H13NCHCH5C2SCNC9H14NC7H15C3SCHNCHCH2CH3C3H6CH3CHSCHSFeHCH4CH4CNCH3CHC2HC2S2H4CH3FeHSH11CHCFeH4CHC2NH4C2NH
_chemical_formula_sum              "C1440 S384 H1728 Fe192 N96"
_cell_length_a       57.5665
_cell_length_b       57.6069
_cell_length_c       63.5732
_cell_angle_alpha    86.8034
_cell_angle_beta     87.1388
_cell_angle_gamma    87.5397

_space_group_name_H-M_alt    "P 1"
_space_group_IT_number       1

loop_
  _space_group_symop_operation_xyz
  'x, y, z'

loop_
  _atom_site_type_symbol
  _atom_site_label
  _atom_site_symmetry_multiplicity
  _atom_site_fract_x
  _atom_site_fract_y
  _atom_site_fract_z
  _atom_site_occupancy
  C   C1        1.0  0.34021  0.50474  0.09852  1.0000
  S   S1        1.0  0.12320  0.36470  0.21918  1.0000
  H   H1        1.0  0.43976  0.37445  0.02484  1.0000
  Fe  Fe1       1.0  0.12410  0.29648  0.22131  1.0000
  S   S2        1.0  0.11028  0.31799  0.19374  1.0000
  C   C2        1.0  0.02212  0.41712  0.23903  1.0000
  Fe  Fe2       1.0  0.14158  0.34018  0.19669  1.0000
  S   S3        1.0  0.16802  0.34740  0.16943  1.0000
  Fe  Fe3       1.0  0.09290  0.34078  0.21816  1.0000
  S   S4        1.0  0.05431  0.35068  0.22388  1.0000
  S   S5        1.0  0.15640  0.31651  0.22228  1.0000
  H   H2        1.0  0.06959  0.24758  0.23849  1.0000
  Fe  Fe4       1.0  0.09354  0.11061  0.23113  1.0000
  S   S6        1.0  0.09858  0.08021  0.21069  1.0000
  C   C3        1.0  0.22524  0.37557  0.21337  1.0000
  Fe  Fe5       1.0  0.08486  0.14494  0.19372  1.0000
  S   S7        1.0  0.09041  0.11719  0.17038  1.0000
  S   S8        1.0  0.07643  0.18177  0.18165  1.0000
  Fe  Fe6       1.0  0.06761  0.09653  0.19391  1.0000
  S   S9        1.0  0.03857  0.07553  0.18247  1.0000
  Fe  Fe7       1.0  0.12084  0.10368  0.18933  1.0000
  S   S10       1.0  0.16028  0.09864  0.18360  1.0000
  S   S11       1.0  0.06083  0.12502  0.21625  1.0000
  S   S12       1.0  0.11658  0.13349  0.21070  1.0000
  Fe  Fe8       1.0  0.29988  0.41098  0.09062  1.0000
  S   S13       1.0  0.28470  0.44501  0.10183  1.0000
  S   S14       1.0  0.29669  0.39870  0.05768  1.0000
  Fe  Fe9       1.0  0.32042  0.39669  0.13303  1.0000
  S   S15       1.0  0.30806  0.42998  0.14732  1.0000
  S   S16       1.0  0.33782  0.36512  0.14922  1.0000
  Fe  Fe10      1.0  0.27440  0.42417  0.13200  1.0000
  S   S17       1.0  0.24079  0.42785  0.15246  1.0000
  Fe  Fe11      1.0  0.31938  0.44780  0.11612  1.0000
  S   S18       1.0  0.34525  0.47647  0.11020  1.0000
  S   S19       1.0  0.28644  0.39005  0.11922  1.0000
  S   S20       1.0  0.33485  0.41459  0.10342  1.0000
  Fe  Fe12      1.0  0.30902  0.04777  0.09977  1.0000
  S   S21       1.0  0.28072  0.02844  0.08676  1.0000
  S   S22       1.0  0.33011  0.07500  0.08164  1.0000
  H   H3        1.0  0.29275  0.50092  0.99508  1.0000
  C   C4        1.0  0.24130  0.07183  0.06310  1.0000
  C   C5        1.0  0.37790  0.49913  0.99422  1.0000
  H   H4        1.0  0.38546  0.02193  0.06408  1.0000
  Fe  Fe13      1.0  0.26148  0.03280  0.11805  1.0000
  S   S23       1.0  0.22251  0.04122  0.11714  1.0000
  H   H5        1.0  0.30064  0.35010  0.06811  1.0000
  S   S24       1.0  0.28852  0.05519  0.12987  1.0000
  H   H6        1.0  0.39297  0.22213  0.23627  1.0000
  H   H7        1.0  0.02811  0.28836  0.18684  1.0000
  S   S25       1.0  0.39044  0.38402  0.23146  1.0000
  C   C6        1.0  0.17703  0.08261  0.16479  1.0000
  C   C7        1.0  0.16687  0.06922  0.15033  1.0000
  C   C8        1.0  0.18106  0.05658  0.13589  1.0000
  C   C9        1.0  0.20547  0.05691  0.13598  1.0000
  C   C10       1.0  0.21564  0.07026  0.15047  1.0000
  C   C11       1.0  0.20145  0.08321  0.16465  1.0000
  H   H8        1.0  0.14811  0.06863  0.15024  1.0000
  H   H9        1.0  0.17305  0.04635  0.12467  1.0000
  H   H10       1.0  0.23439  0.07090  0.15051  1.0000
  H   H11       1.0  0.20947  0.09390  0.17547  1.0000
  C   C12       1.0  0.29489  0.12795  0.03811  1.0000
  C   C13       1.0  0.16417  0.19995  0.21098  1.0000
  C   C14       1.0  0.22734  0.04447  0.20705  1.0000
  H   H12       1.0  0.22324  0.39405  0.20750  1.0000
  C   C15       1.0  0.11172  0.23722  0.21606  1.0000
  C   C16       1.0  0.10382  0.24240  0.19583  1.0000
  C   C17       1.0  0.09278  0.22535  0.18535  1.0000
  C   C18       1.0  0.09013  0.20299  0.19490  1.0000
  C   C19       1.0  0.09805  0.19789  0.21512  1.0000
  C   C20       1.0  0.10862  0.21502  0.22571  1.0000
  H   H13       1.0  0.10643  0.25941  0.18819  1.0000
  H   H14       1.0  0.08673  0.22933  0.16967  1.0000
  H   H15       1.0  0.09576  0.18081  0.22270  1.0000
  H   H16       1.0  0.34261  0.41212  0.23471  1.0000
  C   C21       1.0  0.18812  0.36997  0.16545  1.0000
  C   C22       1.0  0.18393  0.39189  0.17366  1.0000
  C   C23       1.0  0.20021  0.40942  0.16959  1.0000
  C   C24       1.0  0.22077  0.40528  0.15721  1.0000
  C   C25       1.0  0.22496  0.38334  0.14909  1.0000
  C   C26       1.0  0.20866  0.36588  0.15309  1.0000
  H   H17       1.0  0.16786  0.39553  0.18264  1.0000
  H   H18       1.0  0.19667  0.42641  0.17574  1.0000
  H   H19       1.0  0.24056  0.37990  0.13945  1.0000
  H   H20       1.0  0.21193  0.34911  0.14641  1.0000
  H   H21       1.0  0.25089  0.08038  0.10193  1.0000
  H   H22       1.0  0.30328  0.44753  0.04326  1.0000
  C   C27       1.0  0.33061  0.08169  0.21226  1.0000
  C   C28       1.0  0.34563  0.06204  0.21429  1.0000
  C   C29       1.0  0.34263  0.04268  0.20226  1.0000
  C   C30       1.0  0.32481  0.04289  0.18794  1.0000
  C   C31       1.0  0.31002  0.06269  0.18569  1.0000
  C   C32       1.0  0.31289  0.08197  0.19782  1.0000
  H   H23       1.0  0.35958  0.06174  0.22507  1.0000
  N   N1        1.0  0.21578  0.05258  0.22692  1.0000
  H   H24       1.0  0.29614  0.06302  0.17484  1.0000
  H   H25       1.0  0.30135  0.09718  0.19598  1.0000
  C   C33       1.0  0.37592  0.37842  0.20865  1.0000
  C   C34       1.0  0.37183  0.35568  0.20358  1.0000
  C   C35       1.0  0.36020  0.35174  0.18526  1.0000
  C   C36       1.0  0.35242  0.37051  0.17206  1.0000
  C   C37       1.0  0.35628  0.39323  0.17727  1.0000
  C   C38       1.0  0.36811  0.39716  0.19546  1.0000
  H   H26       1.0  0.37799  0.34112  0.21354  1.0000
  H   H27       1.0  0.35730  0.33412  0.18126  1.0000
  H   H28       1.0  0.35050  0.40780  0.16713  1.0000
  H   H29       1.0  0.47547  0.30554  0.23558  1.0000
  C   C39       1.0  0.36299  0.03072  0.02975  1.0000
  H   H30       1.0  0.28894  0.46083  0.00847  1.0000
  C   C40       1.0  0.32938  0.07823  0.05403  1.0000
  C   C41       1.0  0.31226  0.06807  0.04316  1.0000
  C   C42       1.0  0.31134  0.07210  0.02122  1.0000
  C   C43       1.0  0.32807  0.08549  0.00998  1.0000
  C   C44       1.0  0.34565  0.09501  0.02074  1.0000
  C   C45       1.0  0.34607  0.09167  0.04278  1.0000
  H   H31       1.0  0.29934  0.05777  0.05169  1.0000
  H   H32       1.0  0.35856  0.10542  0.01216  1.0000
  H   H33       1.0  0.35937  0.09955  0.05114  1.0000
  C   C46       1.0  0.29744  0.47295  0.01770  1.0000
  C   C47       1.0  0.36332  0.40248  0.03386  1.0000
  C   C48       1.0  0.34268  0.40641  0.04608  1.0000
  C   C49       1.0  0.32235  0.39563  0.04155  1.0000
  C   C50       1.0  0.32259  0.38161  0.02418  1.0000
  C   C51       1.0  0.34322  0.37776  0.01185  1.0000
  C   C52       1.0  0.19337  0.06454  0.22144  1.0000
  H   H34       1.0  0.34256  0.41780  0.05901  1.0000
  H   H35       1.0  0.30689  0.37329  0.02052  1.0000
  C   C53       1.0  0.03122  0.34460  0.18727  1.0000
  C   C54       1.0  0.29968  0.49615  0.01025  1.0000
  C   C55       1.0  0.31840  0.50400  0.04222  1.0000
  H   H36       1.0  0.27751  0.08095  0.08611  1.0000
  H   H37       1.0  0.45344  0.28459  0.23671  1.0000
  H   H38       1.0  0.36514  0.29940  0.01156  1.0000
  H   H39       1.0  0.29136  0.11530  0.06985  1.0000
  H   H40       1.0  0.50034  0.34887  0.03688  1.0000
  H   H41       1.0  0.34668  0.03332  0.02110  1.0000
  Fe  Fe14      1.0  0.30499  0.02139  0.14206  1.0000
  H   H42       1.0  0.36246  0.46030  0.03405  1.0000
  N   N2        1.0  0.47045  0.36399  0.00613  1.0000
  H   H43       1.0  0.11440  0.21107  0.24148  1.0000
  H   H44       1.0  0.25644  0.12359  0.00001  1.0000
  H   H45       1.0  0.48105  0.27854  0.22309  1.0000
  H   H46       1.0  0.05208  0.23786  0.21836  1.0000
  C   C56       1.0  0.30548  0.46537  0.03734  1.0000
  H   H47       1.0  0.19630  0.08099  0.21184  1.0000
  C   C57       1.0  0.26358  0.12189  0.01551  1.0000
  H   H48       1.0  0.24367  0.37223  0.21750  1.0000
  C   C58       1.0  0.06175  0.28279  0.21121  1.0000
  H   H49       1.0  0.34825  0.44027  0.00474  1.0000
  H   H50       1.0  0.23407  0.10503  0.02953  1.0000
  H   H51       1.0  0.22833  0.07314  0.05070  1.0000
  H   H52       1.0  0.20707  0.33462  0.22188  1.0000
  C   C59       1.0  0.16182  0.18816  0.23075  1.0000
  H   H53       1.0  0.17229  0.37215  0.23911  1.0000
  H   H54       1.0  0.30170  0.02106  0.01858  1.0000
  C   C60       1.0  0.29683  0.37460  0.19516  1.0000
  H   H55       1.0  0.07945  0.28201  0.21761  1.0000
  S   S26       1.0  0.32776  0.01563  0.11273  1.0000
  C   C61       1.0  0.25104  0.11110  0.03248  1.0000
  H   H56       1.0  0.46431  0.36610  0.03992  1.0000
  C   C62       1.0  0.27629  0.41106  0.20148  1.0000
  C   C63       1.0  0.28556  0.13008  0.01828  1.0000
  H   H57       1.0  0.31944  0.36084  0.21828  1.0000
  H   H58       1.0  0.35424  0.02748  0.20397  1.0000
  C   C64       1.0  0.02032  0.27379  0.21905  1.0000
  H   H59       1.0  0.29560  0.13775  0.00495  1.0000
  H   H60       1.0  0.33255  0.02348  0.24248  1.0000
  H   H61       1.0  0.01646  0.13536  0.13177  1.0000
  C   C65       1.0  0.34144  0.29429  0.03852  1.0000
  H   H62       1.0  0.31904  0.29344  0.06616  1.0000
  C   C66       1.0  0.18489  0.37573  0.22562  1.0000
  C   C67       1.0  0.37520  0.48922  0.01465  1.0000
  H   H63       1.0  0.35833  0.35369  0.09226  1.0000
  H   H64       1.0  0.03724  0.15714  0.13276  1.0000
  H   H65       1.0  0.32390  0.30019  0.10074  1.0000
  H   H66       1.0  0.24406  0.03466  0.20998  1.0000
  H   H67       1.0  0.03852  0.30511  0.24256  1.0000
  C   C68       1.0  0.30199  0.39341  0.22831  1.0000
  C   C69       1.0  0.35721  0.33600  0.05184  1.0000
  H   H68       1.0  0.03566  0.18468  0.15859  1.0000
  H   H69       1.0  0.33121  0.36215  0.10481  1.0000
  H   H70       1.0  0.28109  0.09757  0.23400  1.0000
  C   C70       1.0  0.02258  0.14214  0.17210  1.0000
  C   C71       1.0  0.33232  0.30315  0.05740  1.0000
  C   C72       1.0  0.16432  0.16352  0.23306  1.0000
  H   H71       1.0  0.23078  0.05924  0.19543  1.0000
  H   H72       1.0  0.27404  0.39253  0.17325  1.0000
  C   C73       1.0  0.31005  0.51251  0.02249  1.0000
  H   H73       1.0  0.29562  0.34646  0.09614  1.0000
  N   N3        1.0  0.24744  0.09490  0.07006  1.0000
  C   C74       1.0  0.35835  0.30618  0.02634  1.0000
  C   C75       1.0  0.22981  0.06866  0.23797  1.0000
  H   H74       1.0  0.37818  0.03336  0.01845  1.0000
  H   H75       1.0  0.26462  0.10731  0.09652  1.0000
  H   H76       1.0  0.30249  0.03068  0.23805  1.0000
  H   H77       1.0  0.17567  0.15381  0.18062  1.0000
  H   H78       1.0  0.16146  0.21875  0.20959  1.0000
  C   C76       1.0  0.05173  0.24868  0.23239  1.0000
  H   H79       1.0  0.05763  0.30143  0.20680  1.0000
  H   H80       1.0  0.29744  0.06513  0.01298  1.0000
  C   C77       1.0  0.25193  0.07616  0.22990  1.0000
  C   C78       1.0  0.36460  0.46797  0.01812  1.0000
  H   H81       1.0  0.04743  0.34822  0.17859  1.0000
  H   H82       1.0  0.37905  0.41063  0.03768  1.0000
  H   H83       1.0  0.37132  0.41479  0.19923  1.0000
  N   N4        1.0  0.04419  0.27311  0.22684  1.0000
  H   H84       1.0  0.02261  0.05292  0.23131  1.0000
  H   H85       1.0  0.36295  0.04506  0.04078  1.0000
  C   C79       1.0  0.21092  0.34419  0.23600  1.0000
  C   C80       1.0  0.28150  0.39260  0.18860  1.0000
  C   C81       1.0  0.01661  0.18244  0.16146  1.0000
  H   H86       1.0  0.34333  0.36654  0.99878  1.0000
  C   C82       1.0  0.22567  0.10820  0.07586  1.0000
  C   C83       1.0  0.33295  0.31658  0.10237  1.0000
  S   S27       1.0  0.33271  0.10584  0.22799  1.0000
  C   C84       1.0  0.47262  0.28652  0.23723  1.0000
  H   H87       1.0  0.33616  0.36991  0.07760  1.0000
  H   H88       1.0  0.18228  0.39434  0.22039  1.0000
  H   H89       1.0  0.17216  0.13282  0.21439  1.0000
  H   H90       1.0  0.30145  0.36070  0.18470  1.0000
  H   H91       1.0  0.04161  0.14515  0.17145  1.0000
  C   C85       1.0  0.03033  0.34367  0.20933  1.0000
  H   H92       1.0  0.32210  0.47500  0.06495  1.0000
  C   C86       1.0  0.26076  0.09076  0.08943  1.0000
  H   H93       1.0  0.22207  0.36513  0.19961  1.0000
  C   C87       1.0  0.35655  0.45661  0.00119  1.0000
  H   H94       1.0  0.37922  0.33628  0.02339  1.0000
  H   H95       1.0  0.47094  0.32971  0.02200  1.0000
  H   H96       1.0  0.32622  0.32365  0.11761  1.0000
  H   H97       1.0  0.23337  0.06080  0.07628  1.0000
  H   H98       1.0  0.06320  0.27283  0.19668  1.0000
  S   S28       1.0  0.12542  0.25780  0.23006  1.0000
  H   H99       1.0  0.21560  0.09903  0.08907  1.0000
  H   H100      1.0  0.17985  0.36531  0.21245  1.0000
  C   C88       1.0  0.36628  0.32691  0.03305  1.0000
  C   C89       1.0  0.36372  0.38794  0.01687  1.0000
  H   H101      1.0  0.30316  0.50650  0.10511  1.0000
  H   H102      1.0  0.17030  0.19679  0.17761  1.0000
  H   H103      1.0  0.33522  0.27824  0.03311  1.0000
  C   C90       1.0  0.33986  0.32435  0.06463  1.0000
  N   N5        1.0  0.20904  0.36980  0.23164  1.0000
  H   H104      1.0  0.46362  0.39355  0.02503  1.0000
  H   H105      1.0  0.31217  0.13406  0.04013  1.0000
  C   C91       1.0  0.26044  0.10775  0.05272  1.0000
  C   C92       1.0  0.16914  0.18763  0.19297  1.0000
  H   H106      1.0  0.20097  0.01887  0.23288  1.0000
  C   C93       1.0  0.17010  0.15154  0.21441  1.0000
  C   C94       1.0  0.17222  0.16349  0.19470  1.0000
  H   H107      1.0  0.29463  0.32203  0.08022  1.0000
  S   S29       1.0  0.39023  0.38260  0.00258  1.0000
  C   C95       1.0  0.28637  0.41156  0.22104  1.0000
  H   H108      1.0  0.36377  0.35244  0.05574  1.0000
  H   H109      1.0  0.35181  0.31207  0.10398  1.0000
  H   H110      1.0  0.18237  0.06913  0.23555  1.0000
  H   H111      1.0  0.21393  0.11074  0.06250  1.0000
  C   C96       1.0  0.28262  0.11699  0.05516  1.0000
  H   H112      1.0  0.22949  0.12574  0.08102  1.0000
  C   C97       1.0  0.45914  0.37495  0.02482  1.0000
  H   H113      1.0  0.37660  0.50871  0.09014  1.0000
  C   C98       1.0  0.30708  0.37494  0.21464  1.0000
  H   H114      1.0  0.26481  0.42531  0.19591  1.0000
  H   H115      1.0  0.25697  0.06209  0.05676  1.0000
  H   H116      1.0  0.26006  0.07028  0.21534  1.0000
  C   C99       1.0  0.31603  0.48085  0.04953  1.0000
  H   H117      1.0  0.38125  0.49806  0.02785  1.0000
  N   N6        1.0  0.32937  0.33367  0.08435  1.0000
  C   C100      1.0  0.33933  0.35577  0.08985  1.0000
  C   C101      1.0  0.30401  0.33816  0.08213  1.0000
  H   H118      1.0  0.28229  0.42660  0.23015  1.0000
  H   H119      1.0  0.18264  0.05362  0.21206  1.0000
  H   H120      1.0  0.51021  0.10492  0.05201  1.0000
  H   H121      1.0  0.03959  0.40915  0.23866  1.0000
  H   H122      1.0  0.34112  0.02106  0.06568  1.0000
  S   S30       1.0  0.32050  0.01760  0.17429  1.0000
  H   H123      1.0  0.20974  0.41732  0.23324  1.0000
  C   C102      1.0  0.49601  0.36636  0.00587  1.0000
  H   H124      1.0  0.44629  0.33633  0.00642  1.0000
  C   C103      1.0  0.46526  0.33895  0.00722  1.0000
  C   C104      1.0  0.01836  0.15381  0.13547  1.0000
  C   C105      1.0  0.21094  0.03167  0.24091  1.0000
  H   H125      1.0  0.21625  0.03262  0.19901  1.0000
  H   H126      1.0  0.22871  0.33836  0.24057  1.0000
  C   C106      1.0  0.26432  0.09191  0.24051  1.0000
  C   C107      1.0  0.50888  0.35741  0.02324  1.0000
  H   H127      1.0  0.51342  0.13277  0.03894  1.0000
  H   H128      1.0  0.47428  0.32997  0.99382  1.0000
  H   H129      1.0  0.49304  0.11103  0.24027  1.0000
  H   H130      1.0  0.02089  0.12367  0.16840  1.0000
  H   H131      1.0  0.01594  0.14404  0.18868  1.0000
  Fe  Fe15      1.0  0.20783  0.41254  0.38566  1.0000
  S   S31       1.0  0.23741  0.43585  0.38866  1.0000
  S   S32       1.0  0.20200  0.38649  0.41299  1.0000
  Fe  Fe16      1.0  0.19490  0.43596  0.34419  1.0000
  S   S33       1.0  0.22289  0.46197  0.34461  1.0000
  S   S34       1.0  0.17228  0.43838  0.31606  1.0000
  Fe  Fe17      1.0  0.24577  0.43094  0.35428  1.0000
  S   S35       1.0  0.28256  0.42940  0.33917  1.0000
  Fe  Fe18      1.0  0.21205  0.46481  0.37890  1.0000
  S   S36       1.0  0.21260  0.49508  0.40053  1.0000
  S   S37       1.0  0.21838  0.40480  0.35204  1.0000
  S   S38       1.0  0.18198  0.44151  0.37768  1.0000
  Fe  Fe19      1.0  0.17785  0.06387  0.37311  1.0000
  S   S39       1.0  0.19614  0.03620  0.39293  1.0000
  S   S40       1.0  0.16194  0.09778  0.38415  1.0000
  Fe  Fe20      1.0  0.18284  0.03589  0.33418  1.0000
  H   H132      1.0  0.28709  0.09747  0.39432  1.0000
  S   S41       1.0  0.17789  0.03709  0.29907  1.0000
  C   C108      1.0  0.10903  0.09464  0.44692  1.0000
  Fe  Fe21      1.0  0.22123  0.03327  0.36471  1.0000
  S   S42       1.0  0.25992  0.02951  0.37003  1.0000
  S   S43       1.0  0.15448  0.03912  0.35947  1.0000
  S   S44       1.0  0.20466  0.06313  0.34624  1.0000
  Fe  Fe22      1.0  0.42528  0.33406  0.29122  1.0000
  H   H133      1.0  0.14626  0.50855  0.42384  1.0000
  S   S45       1.0  0.45835  0.33067  0.30966  1.0000
  Fe  Fe23      1.0  0.37146  0.33397  0.29424  1.0000
  S   S46       1.0  0.36992  0.32677  0.26001  1.0000
  S   S47       1.0  0.33585  0.33550  0.31162  1.0000
  Fe  Fe24      1.0  0.40023  0.30150  0.26505  1.0000
  C   C109      1.0  0.25524  0.10053  0.25938  1.0000
  C   C110      1.0  0.17736  0.15933  0.26880  1.0000
  C   C111      1.0  0.32855  0.01859  0.28449  1.0000
  S   S48       1.0  0.39962  0.30605  0.29976  1.0000
  S   S49       1.0  0.39692  0.36241  0.28921  1.0000
  Fe  Fe25      1.0  0.37646  0.13814  0.28607  1.0000
  S   S50       1.0  0.39801  0.10883  0.30112  1.0000
  S   S51       1.0  0.37760  0.17302  0.30101  1.0000
  C   C112      1.0  0.15702  0.48780  0.46247  1.0000
  S   S52       1.0  0.38083  0.07586  0.26498  1.0000
  H   H134      1.0  0.23288  0.09674  0.38234  1.0000
  Fe  Fe26      1.0  0.36713  0.08693  0.29689  1.0000
  S   S53       1.0  0.35428  0.05948  0.32119  1.0000
  Fe  Fe27      1.0  0.40963  0.10078  0.26798  1.0000
  H   H135      1.0  0.06595  0.06391  0.42860  1.0000
  S   S54       1.0  0.34471  0.11681  0.28481  1.0000
  H   H136      1.0  0.29469  0.26072  0.30943  1.0000
  C   C113      1.0  0.47417  0.09408  0.26652  1.0000
  C   C114      1.0  0.49439  0.10206  0.25560  1.0000
  H   H137      1.0  0.22531  0.01589  0.30483  1.0000
  H   H138      1.0  0.06454  0.51090  0.47531  1.0000
  C   C115      1.0  0.47624  0.08243  0.28629  1.0000
  H   H139      1.0  0.17542  0.15005  0.28461  1.0000
  H   H140      1.0  0.18054  0.33954  0.42045  1.0000
  H   H141      1.0  0.46089  0.07598  0.29482  1.0000
  C   C116      1.0  0.39845  0.24031  0.26424  1.0000
  C   C117      1.0  0.39876  0.23839  0.28624  1.0000
  C   C118      1.0  0.39289  0.21745  0.29723  1.0000
  C   C119      1.0  0.38650  0.19831  0.28639  1.0000
  C   C120      1.0  0.38699  0.19993  0.26434  1.0000
  H   H142      1.0  0.15922  0.38345  0.48131  1.0000
  H   H143      1.0  0.40332  0.25308  0.29485  1.0000
  H   H144      1.0  0.39318  0.21614  0.31425  1.0000
  H   H145      1.0  0.13378  0.44793  0.46419  1.0000
  H   H146      1.0  0.30241  0.39794  0.28172  1.0000
  H   H147      1.0  0.17365  0.35336  0.31347  1.0000
  H   H148      1.0  0.49990  0.06863  0.30970  1.0000
  C   C121      1.0  0.48861  0.35685  0.28357  1.0000
  C   C122      1.0  0.48615  0.33942  0.29963  1.0000
  C   C123      1.0  0.35491  0.26134  0.34971  1.0000
  C   C124      1.0  0.45717  0.16161  0.25592  1.0000
  H   H149      1.0  0.16465  0.31317  0.47200  1.0000
  H   H150      1.0  0.47328  0.36512  0.27677  1.0000
  C   C125      1.0  0.32686  0.37330  0.25509  1.0000
  C   C126      1.0  0.21941  0.37275  0.26996  1.0000
  C   C127      1.0  0.28482  0.03896  0.35487  1.0000
  H   H151      1.0  0.45533  0.25012  0.25935  1.0000
  C   C128      1.0  0.32687  0.03489  0.34935  1.0000
  C   C129      1.0  0.32693  0.05320  0.33396  1.0000
  C   C130      1.0  0.30563  0.06468  0.32904  1.0000
  C   C131      1.0  0.28450  0.05742  0.33940  1.0000
  H   H152      1.0  0.44448  0.13074  0.28679  1.0000
  H   H153      1.0  0.48135  0.24133  0.24504  1.0000
  H   H154      1.0  0.30546  0.07908  0.31740  1.0000
  H   H155      1.0  0.26814  0.06626  0.33571  1.0000
  C   C132      1.0  0.15575  0.05685  0.29028  1.0000
  C   C133      1.0  0.14469  0.07271  0.30376  1.0000
  C   C134      1.0  0.12727  0.08848  0.29626  1.0000
  C   C135      1.0  0.12097  0.08863  0.27522  1.0000
  C   C136      1.0  0.35852  0.23773  0.35506  1.0000
  C   C137      1.0  0.14944  0.05700  0.26927  1.0000
  H   H156      1.0  0.14947  0.07280  0.32000  1.0000
  H   H157      1.0  0.11864  0.10057  0.30682  1.0000
  C   C138      1.0  0.07390  0.07856  0.43595  1.0000
  C   C139      1.0  0.32881  0.41436  0.24749  1.0000
  H   H158      1.0  0.10161  0.06230  0.40501  1.0000
  C   C140      1.0  0.29700  0.40314  0.33143  1.0000
  C   C141      1.0  0.31992  0.40376  0.32267  1.0000
  C   C142      1.0  0.33200  0.38326  0.31644  1.0000
  C   C143      1.0  0.32127  0.36187  0.31894  1.0000
  C   C144      1.0  0.29829  0.36128  0.32749  1.0000
  C   C145      1.0  0.28619  0.38179  0.33368  1.0000
  H   H159      1.0  0.32847  0.42016  0.32091  1.0000
  H   H160      1.0  0.34973  0.38399  0.31001  1.0000
  H   H161      1.0  0.28983  0.34485  0.32956  1.0000
  H   H162      1.0  0.26859  0.38103  0.34043  1.0000
  C   C146      1.0  0.16627  0.41201  0.30500  1.0000
  C   C147      1.0  0.15541  0.41238  0.28567  1.0000
  C   C148      1.0  0.15115  0.39148  0.27633  1.0000
  C   C149      1.0  0.15800  0.37015  0.28623  1.0000
  C   C150      1.0  0.16850  0.36982  0.30567  1.0000
  C   C151      1.0  0.17246  0.39064  0.31510  1.0000
  H   H163      1.0  0.15038  0.42888  0.27789  1.0000
  C   C152      1.0  0.34500  0.27718  0.28392  1.0000
  H   H164      1.0  0.18028  0.39011  0.33018  1.0000
  C   C153      1.0  0.17030  0.11536  0.45247  1.0000
  C   C154      1.0  0.15564  0.12917  0.43958  1.0000
  C   C155      1.0  0.15325  0.12363  0.41859  1.0000
  C   C156      1.0  0.16519  0.10408  0.41055  1.0000
  C   C157      1.0  0.17960  0.09013  0.42355  1.0000
  C   C158      1.0  0.18236  0.09591  0.44441  1.0000
  H   H165      1.0  0.14647  0.14433  0.44572  1.0000
  H   H166      1.0  0.14214  0.13452  0.40856  1.0000
  H   H167      1.0  0.18908  0.07526  0.41744  1.0000
  H   H168      1.0  0.19385  0.08534  0.45432  1.0000
  C   C159      1.0  0.13782  0.39870  0.45696  1.0000
  C   C160      1.0  0.15842  0.38871  0.46482  1.0000
  C   C161      1.0  0.17817  0.38551  0.45127  1.0000
  C   C162      1.0  0.17752  0.39240  0.42982  1.0000
  C   C163      1.0  0.15705  0.40276  0.42200  1.0000
  C   C164      1.0  0.13727  0.40593  0.43556  1.0000
  H   H169      1.0  0.19401  0.37759  0.45740  1.0000
  H   H170      1.0  0.15621  0.40756  0.40537  1.0000
  H   H171      1.0  0.23368  0.05932  0.42812  1.0000
  N   N7        1.0  0.32954  0.26043  0.29557  1.0000
  H   H172      1.0  0.09974  0.09805  0.46222  1.0000
  H   H173      1.0  0.47206  0.30674  0.27318  1.0000
  H   H174      1.0  0.12595  0.32806  0.47460  1.0000
  C   C165      1.0  0.21221  0.14030  0.41234  1.0000
  N   N8        1.0  0.14476  0.47813  0.44517  1.0000
  N   N9        1.0  0.14333  0.31969  0.44502  1.0000
  H   H175      1.0  0.28162  0.38485  0.26646  1.0000
  S   S55       1.0  0.09965  0.10916  0.26603  1.0000
  H   H176      1.0  0.28984  0.06611  0.39621  1.0000
  H   H177      1.0  0.13356  0.17560  0.26562  1.0000
  H   H178      1.0  0.30207  0.50405  0.34340  1.0000
  H   H179      1.0  0.03233  0.44831  0.25249  1.0000
  N   N10       1.0  0.26073  0.08097  0.41453  1.0000
  S   S56       1.0  0.05780  0.11596  0.48363  1.0000
  C   C166      1.0  0.27340  0.48453  0.37228  1.0000
  C   C167      1.0  0.31770  0.05578  0.26825  1.0000
  H   H180      1.0  0.27590  0.47422  0.35800  1.0000
  H   H181      1.0  0.20529  0.12996  0.38142  1.0000
  H   H182      1.0  0.31930  0.24803  0.26601  1.0000
  S   S57       1.0  0.40464  0.26667  0.24993  1.0000
  C   C168      1.0  0.48274  0.15861  0.28527  1.0000
  H   H183      1.0  0.14420  0.35536  0.36447  1.0000
  H   H184      1.0  0.12340  0.15249  0.25130  1.0000
  S   S58       1.0  0.15460  0.34343  0.27477  1.0000
  C   C169      1.0  0.12575  0.33338  0.45753  1.0000
  H   H185      1.0  0.21682  0.44011  0.26341  1.0000
  H   H186      1.0  0.28685  0.47792  0.38334  1.0000
  H   H187      1.0  0.05678  0.46937  0.48397  1.0000
  H   H188      1.0  0.11372  0.47254  0.46464  1.0000
  H   H189      1.0  0.16063  0.11706  0.26971  1.0000
  C   C170      1.0  0.16351  0.12565  0.25370  1.0000
  C   C171      1.0  0.34322  0.22830  0.32191  1.0000
  H   H190      1.0  0.31343  0.22877  0.28842  1.0000
  H   H191      1.0  0.25781  0.04366  0.41529  1.0000
  H   H192      1.0  0.12131  0.41339  0.42929  1.0000
  C   C172      1.0  0.11689  0.03342  0.43930  1.0000
  H   H193      1.0  0.46360  0.20133  0.27479  1.0000
  H   H194      1.0  0.14908  0.28429  0.43633  1.0000
  C   C173      1.0  0.10927  0.07555  0.41439  1.0000
  H   H195      1.0  0.51511  0.12215  0.31822  1.0000
  C   C174      1.0  0.23167  0.10752  0.39577  1.0000
  H   H196      1.0  0.13657  0.28734  0.46261  1.0000
  H   H197      1.0  0.16824  0.44810  0.44017  1.0000
  Fe  Fe28      1.0  0.35948  0.10682  0.25297  1.0000
  H   H198      1.0  0.25613  0.48032  0.37977  1.0000
  H   H199      1.0  0.17988  0.35538  0.38453  1.0000
  H   H200      1.0  0.33434  0.37449  0.27082  1.0000
  H   H201      1.0  0.46354  0.14391  0.25164  1.0000
  H   H202      1.0  0.27815  0.06350  0.28654  1.0000
  C   C175      1.0  0.47469  0.25112  0.25885  1.0000
  H   H203      1.0  0.50453  0.31532  0.32069  1.0000
  H   H204      1.0  0.31820  0.06361  0.28381  1.0000
  H   H205      1.0  0.10734  0.11129  0.43726  1.0000
  H   H206      1.0  0.44026  0.15127  0.30733  1.0000
  H   H207      1.0  0.17140  0.33864  0.45610  1.0000
  S   S59       1.0  0.38912  0.13116  0.25308  1.0000
  C   C176      1.0  0.16430  0.34779  0.39180  1.0000
  H   H208      1.0  0.04018  0.24035  0.24485  1.0000
  C   C177      1.0  0.21579  0.12656  0.39505  1.0000
  H   H209      1.0  0.10583  0.09272  0.40593  1.0000
  H   H210      1.0  0.23951  0.50868  0.30266  1.0000
  H   H211      1.0  0.45290  0.19148  0.30065  1.0000
  H   H212      1.0  0.11934  0.50634  0.43966  1.0000
  H   H213      1.0  0.17988  0.31016  0.44701  1.0000
  C   C178      1.0  0.51116  0.13618  0.30667  1.0000
  C   C179      1.0  0.22460  0.13514  0.43039  1.0000
  H   H214      1.0  0.28553  0.41571  0.26416  1.0000
  H   H215      1.0  0.30553  0.06626  0.25810  1.0000
  C   C180      1.0  0.17060  0.47290  0.47605  1.0000
  H   H216      1.0  0.17244  0.45442  0.47388  1.0000
  C   C181      1.0  0.07104  0.47731  0.49106  1.0000
  H   H217      1.0  0.12767  0.07293  0.24547  1.0000
  H   H218      1.0  0.29805  0.27819  0.28513  1.0000
  H   H219      1.0  0.12229  0.03346  0.42276  1.0000
  C   C182      1.0  0.22310  0.41036  0.28446  1.0000
  H   H220      1.0  0.19802  0.33839  0.24869  1.0000
  C   C183      1.0  0.10514  0.05284  0.44860  1.0000
  C   C184      1.0  0.12401  0.33871  0.39003  1.0000
  H   H221      1.0  0.15315  0.45827  0.41766  1.0000
  H   H222      1.0  0.22097  0.14531  0.44414  1.0000
  H   H223      1.0  0.34310  0.02588  0.35330  1.0000
  C   C185      1.0  0.22387  0.38617  0.28688  1.0000
  H   H224      1.0  0.33859  0.28275  0.26812  1.0000
  H   H225      1.0  0.42314  0.15399  0.28468  1.0000
  S   S60       1.0  0.44712  0.09820  0.25416  1.0000
  H   H226      1.0  0.35946  0.27419  0.36049  1.0000
  H   H227      1.0  0.35571  0.20285  0.34523  1.0000
  C   C186      1.0  0.09879  0.05029  0.47046  1.0000
  H   H228      1.0  0.10833  0.33900  0.38123  1.0000
  H   H229      1.0  0.12853  0.07261  0.41381  1.0000
  H   H230      1.0  0.36597  0.23218  0.36993  1.0000
  H   H231      1.0  0.26820  0.07992  0.38076  1.0000
  H   H232      1.0  0.22689  0.37785  0.30229  1.0000
  C   C187      1.0  0.25652  0.50915  0.33209  1.0000
  C   C188      1.0  0.27279  0.04576  0.28696  1.0000
  C   C189      1.0  0.16441  0.33854  0.41262  1.0000
  Fe  Fe29      1.0  0.39640  0.35402  0.25508  1.0000
  C   C190      1.0  0.45213  0.18876  0.28349  1.0000
  H   H233      1.0  0.49888  0.18477  0.26373  1.0000
  S   S61       1.0  0.11255  0.40220  0.47348  1.0000
  C   C191      1.0  0.50627  0.32890  0.30832  1.0000
  H   H234      1.0  0.31201  0.51062  0.36825  1.0000
  H   H235      1.0  0.12505  0.48851  0.41783  1.0000
  H   H236      1.0  0.23701  0.05969  0.39996  1.0000
  H   H237      1.0  0.13630  0.25007  0.49057  1.0000
  C   C192      1.0  0.27491  0.07877  0.43349  1.0000
  H   H238      1.0  0.36285  0.26952  0.28143  1.0000
  H   H239      1.0  0.33953  0.21451  0.31188  1.0000
  C   C193      1.0  0.14411  0.32909  0.42283  1.0000
  C   C194      1.0  0.13657  0.15691  0.26253  1.0000
  N   N11       1.0  0.27457  0.50988  0.36730  1.0000
  N   N12       1.0  0.48191  0.27563  0.25695  1.0000
  H   H240      1.0  0.31952  0.43135  0.24406  1.0000
  C   C195      1.0  0.23372  0.09341  0.26779  1.0000
  C   C196      1.0  0.13339  0.49623  0.43111  1.0000
  H   H241      1.0  0.24922  0.11302  0.44590  1.0000
  H   H242      1.0  0.08943  0.06417  0.47852  1.0000
  C   C197      1.0  0.48823  0.14081  0.30087  1.0000
  C   C198      1.0  0.30662  0.27238  0.29994  1.0000
  H   H243      1.0  0.45177  0.28451  0.27718  1.0000
  H   H244      1.0  0.28543  0.09438  0.43467  1.0000
  H   H245      1.0  0.34652  0.29334  0.29234  1.0000
  H   H246      1.0  0.17654  0.47455  0.42614  1.0000
  C   C199      1.0  0.34550  0.26857  0.33046  1.0000
  H   H247      1.0  0.10775  0.32284  0.41763  1.0000
  C   C200      1.0  0.21401  0.40803  0.24788  1.0000
  H   H248      1.0  0.21914  0.35418  0.27329  1.0000
  H   H249      1.0  0.12775  0.09121  0.45001  1.0000
  C   C201      1.0  0.24072  0.11628  0.43122  1.0000
  H   H250      1.0  0.15750  0.04444  0.25889  1.0000
  H   H251      1.0  0.43891  0.16391  0.25084  1.0000
  H   H252      1.0  0.06899  0.09502  0.42694  1.0000
  C   C202      1.0  0.14418  0.34791  0.38053  1.0000
  H   H253      1.0  0.28731  0.06338  0.43307  1.0000
  C   C203      1.0  0.39306  0.22085  0.25332  1.0000
  H   H254      1.0  0.48078  0.24214  0.27365  1.0000
  C   C204      1.0  0.16137  0.46421  0.43181  1.0000
  C   C205      1.0  0.24672  0.06001  0.41457  1.0000
  S   S62       1.0  0.42685  0.32833  0.25655  1.0000
  C   C206      1.0  0.29482  0.39847  0.26591  1.0000
  C   C207      1.0  0.21440  0.38333  0.24983  1.0000
  C   C208      1.0  0.49842  0.07822  0.29466  1.0000
  H   H255      1.0  0.13241  0.14682  0.27763  1.0000
  N   N13       1.0  0.09952  0.07492  0.43650  1.0000
  H   H256      1.0  0.12915  0.35225  0.45588  1.0000
  H   H257      1.0  0.14268  0.39191  0.26151  1.0000
  C   C209      1.0  0.13667  0.29503  0.44609  1.0000
  H   H258      1.0  0.43411  0.19358  0.27887  1.0000
  H   H259      1.0  0.22546  0.42067  0.29791  1.0000
  C   C210      1.0  0.21818  0.42127  0.26500  1.0000
  S   S63       1.0  0.11199  0.15464  0.49257  1.0000
  C   C211      1.0  0.16586  0.32047  0.45536  1.0000
  H   H260      1.0  0.34296  0.23171  0.27759  1.0000
  C   C212      1.0  0.12390  0.32945  0.41085  1.0000
  C   C213      1.0  0.27713  0.08128  0.39571  1.0000
  C   C214      1.0  0.32616  0.24134  0.28136  1.0000
  H   H261      1.0  0.30822  0.28827  0.30893  1.0000
  H   H262      1.0  0.26383  0.07618  0.44824  1.0000
  C   C215      1.0  0.25054  0.04154  0.29589  1.0000
  H   H263      1.0  0.10772  0.33131  0.45270  1.0000
  C   C216      1.0  0.24482  0.10189  0.41381  1.0000
  N   N14       1.0  0.45866  0.16433  0.27889  1.0000
  H   H264      1.0  0.20456  0.07260  0.26453  1.0000
  C   C217      1.0  0.44100  0.14940  0.28998  1.0000
  C   C218      1.0  0.33961  0.25229  0.31581  1.0000
  C   C219      1.0  0.35260  0.22126  0.34123  1.0000
  H   H265      1.0  0.11893  0.29297  0.44055  1.0000
  H   H266      1.0  0.17489  0.17821  0.27146  1.0000
  C   C220      1.0  0.50162  0.17119  0.27585  1.0000
  H   H267      1.0  0.11664  0.45514  0.44199  1.0000
  N   N15       1.0  0.31159  0.03092  0.27053  1.0000
  C   C221      1.0  0.47076  0.28759  0.27513  1.0000
  H   H268      1.0  0.34283  0.28709  0.32719  1.0000
  H   H269      1.0  0.38220  0.18527  0.25580  1.0000
  S   S64       1.0  0.17456  0.12279  0.47831  1.0000
  H   H270      1.0  0.19913  0.15441  0.41208  1.0000
  H   H271      1.0  0.31614  0.35764  0.25613  1.0000
  H   H272      1.0  0.19560  0.15626  0.26258  1.0000
  H   H273      1.0  0.22677  0.09991  0.28261  1.0000
  H   H274      1.0  0.47893  0.28188  0.29017  1.0000
  C   C222      1.0  0.28767  0.02732  0.27949  1.0000
  H   H275      1.0  0.33784  0.41570  0.26246  1.0000
  H   H276      1.0  0.33532  0.05790  0.26058  1.0000
  C   C223      1.0  0.12646  0.46280  0.45439  1.0000
  C   C224      1.0  0.30614  0.02803  0.35981  1.0000
  H   H277      1.0  0.47525  0.12985  0.30857  1.0000
  C   C225      1.0  0.13229  0.07297  0.26170  1.0000
  H   H278      1.0  0.06550  0.07995  0.45203  1.0000
  C   C226      1.0  0.10454  0.02993  0.48240  1.0000
  H   H279      1.0  0.46759  0.17432  0.24617  1.0000
  H   H280      1.0  0.34210  0.37041  0.24392  1.0000
  C   C227      1.0  0.01804  0.43911  0.24682  1.0000
  H   H281      1.0  0.23955  0.05567  0.30189  1.0000
  C   C228      1.0  0.51092  0.36442  0.27700  1.0000
  N   N16       1.0  0.16056  0.15139  0.25405  1.0000
  H   H282      1.0  0.51254  0.37851  0.26511  1.0000
  H   H283      1.0  0.26502  0.11269  0.26749  1.0000
  Fe  Fe30      1.0  0.13634  0.33942  0.24457  1.0000
  C   C229      1.0  0.22115  0.07771  0.25731  1.0000
  H   H284      1.0  0.27004  0.49692  0.32677  1.0000
  H   H285      1.0  0.15057  0.11837  0.24365  1.0000
  C   C230      1.0  0.07542  0.50062  0.48611  1.0000
  S   S65       1.0  0.10502  0.31774  0.24544  1.0000
  H   H286      1.0  0.03373  0.27948  0.25935  1.0000
  C   C231      1.0  0.15533  0.51178  0.46684  1.0000
  H   H287      1.0  0.06262  0.28732  0.25165  1.0000
  H   H288      1.0  0.18133  0.12013  0.24792  1.0000
  C   C232      1.0  0.31450  0.02148  0.24926  1.0000
  C   C233      1.0  0.24247  0.01906  0.29766  1.0000
  H   H289      1.0  0.50585  0.31604  0.25613  1.0000
  H   H290      1.0  0.20031  0.03587  0.25540  1.0000
  C   C234      1.0  0.50748  0.27802  0.25657  1.0000
  H   H291      1.0  0.22739  0.02277  0.24612  1.0000
  N   N17       1.0  0.31294  0.39468  0.24882  1.0000
  C   C235      1.0  0.04467  0.28676  0.24593  1.0000
  H   H292      1.0  0.34688  0.02244  0.27944  1.0000
  H   H293      1.0  0.32579  0.02397  0.30101  1.0000
  H   H294      1.0  0.15740  0.19855  0.24413  1.0000
  C   C236      1.0  0.18211  0.48155  0.49266  1.0000
  C   C237      1.0  0.29780  0.51475  0.35721  1.0000
  H   H295      1.0  0.18671  0.02522  0.49023  1.0000
  S   S66       1.0  0.20661  0.47048  0.58268  1.0000
  Fe  Fe31      1.0  0.12070  0.37210  0.54853  1.0000
  S   S67       1.0  0.09098  0.39015  0.53190  1.0000
  S   S68       1.0  0.13255  0.39210  0.57594  1.0000
  Fe  Fe32      1.0  0.11874  0.32897  0.52167  1.0000
  C   C238      1.0  0.12920  0.24736  0.50654  1.0000
  H   H296      1.0  0.11691  0.42905  0.51271  1.0000
  C   C239      1.0  0.15712  0.12183  0.59106  1.0000
  H   H297      1.0  0.11618  0.10051  0.60488  1.0000
  Fe  Fe33      1.0  0.07403  0.35577  0.53447  1.0000
  S   S69       1.0  0.03714  0.35130  0.54756  1.0000
  S   S70       1.0  0.13996  0.36131  0.51869  1.0000
  S   S71       1.0  0.10243  0.33796  0.55323  1.0000
  Fe  Fe34      1.0  0.11884  0.10637  0.53807  1.0000
  C   C240      1.0  0.15921  0.02010  0.58075  1.0000
  S   S72       1.0  0.12051  0.07871  0.56493  1.0000
  Fe  Fe35      1.0  0.11287  0.15928  0.52750  1.0000
  H   H298      1.0  0.28128  0.47943  0.59920  1.0000
  S   S73       1.0  0.10799  0.19261  0.54542  1.0000
  H   H299      1.0  0.08075  0.44612  0.50847  1.0000
  C   C241      1.0  0.09376  0.51078  0.49513  1.0000
  H   H300      1.0  0.04459  0.29967  0.55916  1.0000
  C   C242      1.0  0.20921  0.41816  0.62642  1.0000
  S   S74       1.0  0.08757  0.13112  0.53640  1.0000
  S   S75       1.0  0.14407  0.13490  0.53209  1.0000
  C   C243      1.0  0.14104  0.15095  0.61445  1.0000
  C   C244      1.0  0.17701  0.03727  0.54865  1.0000
  N   N18       1.0  0.11723  0.46001  0.53054  1.0000
  C   C245      1.0  0.12547  0.26644  0.51935  1.0000
  C   C246      1.0  0.11660  0.26259  0.54008  1.0000
  C   C247      1.0  0.11144  0.23987  0.54785  1.0000
  C   C248      1.0  0.11502  0.22081  0.53498  1.0000
  C   C249      1.0  0.12388  0.22468  0.51425  1.0000
  H   H301      1.0  0.14166  0.44638  0.50716  1.0000
  H   H302      1.0  0.11417  0.27703  0.55024  1.0000
  H   H303      1.0  0.19555  0.40915  0.61945  1.0000
  H   H304      1.0  0.03139  0.35192  0.50200  1.0000
  N   N19       1.0  0.04114  0.27394  0.53601  1.0000
  C   C250      1.0  0.24634  0.43791  0.62238  1.0000
  C   C251      1.0  0.14189  0.03816  0.58045  1.0000
  C   C252      1.0  0.14200  0.05578  0.56423  1.0000
  C   C253      1.0  0.15959  0.05520  0.54825  1.0000
  H   H305      1.0  0.12835  0.03850  0.59288  1.0000
  H   H306      1.0  0.15999  0.06878  0.53578  1.0000
  C   C254      1.0  0.18519  0.44957  0.58057  1.0000
  C   C255      1.0  0.16663  0.44701  0.59543  1.0000
  C   C256      1.0  0.15067  0.42940  0.59367  1.0000
  C   C257      1.0  0.15279  0.41442  0.57686  1.0000
  C   C258      1.0  0.17118  0.41722  0.56181  1.0000
  C   C259      1.0  0.18733  0.43463  0.56373  1.0000
  H   H307      1.0  0.16488  0.45823  0.60856  1.0000
  H   H308      1.0  0.13663  0.42725  0.60550  1.0000
  H   H309      1.0  0.17328  0.40558  0.54900  1.0000
  H   H310      1.0  0.20172  0.43638  0.55221  1.0000
  C   C260      1.0  0.12922  0.44021  0.51997  1.0000
  C   C261      1.0  0.26651  0.47218  0.60908  1.0000
  H   H311      1.0  0.15360  0.14460  0.62645  1.0000
  C   C262      1.0  0.17692  0.01966  0.56488  1.0000
  H   H312      1.0  0.04187  0.14345  0.51888  1.0000
  H   H313      1.0  0.13903  0.42857  0.53127  1.0000
  H   H314      1.0  0.28879  0.41770  0.62065  1.0000
  C   C263      1.0  0.05229  0.28252  0.55448  1.0000
  C   C264      1.0  0.10337  0.47414  0.51510  1.0000
  C   C265      1.0  0.20700  0.42317  0.64761  1.0000
  Fe  Fe36      1.0  0.20671  0.49936  0.60599  1.0000
  S   S76       1.0  0.13271  0.29457  0.50891  1.0000
  H   H315      1.0  0.10322  0.14901  0.59104  1.0000
  H   H316      1.0  0.12148  0.50703  0.51573  1.0000
  H   H317      1.0  0.09183  0.46506  0.55609  1.0000
  C   C266      1.0  0.18024  0.50519  0.49636  1.0000
  H   H318      1.0  0.25015  0.47976  0.60250  1.0000
  H   H319      1.0  0.12682  0.21017  0.50422  1.0000
  C   C267      1.0  0.22419  0.43526  0.65646  1.0000
  C   C268      1.0  0.19822  0.10325  0.57055  1.0000
  H   H320      1.0  0.28294  0.44607  0.57807  1.0000
  C   C269      1.0  0.10165  0.45073  0.54806  1.0000
  H   H321      1.0  0.11580  0.12790  0.57372  1.0000
  H   H322      1.0  0.21353  0.09599  0.56229  1.0000
  H   H323      1.0  0.30425  0.44219  0.60907  1.0000
  H   H324      1.0  0.16784  0.15442  0.57497  1.0000
  H   H325      1.0  0.12519  0.15825  0.62289  1.0000
  H   H326      1.0  0.10478  0.23703  0.56396  1.0000
  H   H327      1.0  0.10574  0.12285  0.62158  1.0000
  H   H328      1.0  0.14507  0.46215  0.55188  1.0000
  C   C270      1.0  0.26737  0.43956  0.58728  1.0000
  C   C271      1.0  0.12001  0.14165  0.58436  1.0000
  H   H329      1.0  0.13227  0.10695  0.62747  1.0000
  H   H330      1.0  0.25614  0.45240  0.65156  1.0000
  H   H331      1.0  0.14883  0.16582  0.60513  1.0000
  H   H332      1.0  0.08869  0.43893  0.54268  1.0000
  C   C272      1.0  0.10766  0.49786  0.50936  1.0000
  C   C273      1.0  0.12192  0.11477  0.61436  1.0000
  Fe  Fe37      1.0  0.08881  0.12480  0.50191  1.0000
  C   C274      1.0  0.16396  0.09785  0.59368  1.0000
  N   N20       1.0  0.26676  0.44640  0.60951  1.0000
  H   H333      1.0  0.12741  0.48822  0.54866  1.0000
  H   H334      1.0  0.19174  0.41795  0.65711  1.0000
  H   H335      1.0  0.29080  0.44368  0.63475  1.0000
  C   C275      1.0  0.22855  0.42532  0.61392  1.0000
  H   H336      1.0  0.14840  0.47981  0.52810  1.0000
  H   H337      1.0  0.19072  0.03716  0.53638  1.0000
  C   C276      1.0  0.02694  0.13592  0.51269  1.0000
  H   H338      1.0  0.26784  0.42031  0.58635  1.0000
  H   H339      1.0  0.25197  0.44711  0.57895  1.0000
  H   H340      1.0  0.18915  0.51195  0.50923  1.0000
  S   S77       1.0  0.11819  0.09787  0.50425  1.0000
  C   C277      1.0  0.28856  0.43705  0.61892  1.0000
  H   H341      1.0  0.22221  0.43950  0.67288  1.0000
  Fe  Fe38      1.0  0.14126  0.12808  0.49792  1.0000
  H   H342      1.0  0.07270  0.25595  0.52476  1.0000
  C   C278      1.0  0.17206  0.13611  0.57801  1.0000
  H   H343      1.0  0.06220  0.29382  0.51297  1.0000
  C   C279      1.0  0.19223  0.12687  0.56787  1.0000
  C   C280      1.0  0.24361  0.44251  0.64410  1.0000
  H   H344      1.0  0.11154  0.44027  0.56020  1.0000
  H   H345      1.0  0.26779  0.47894  0.62501  1.0000
  C   C281      1.0  0.18421  0.08882  0.58353  1.0000
  H   H346      1.0  0.07118  0.28516  0.55112  1.0000
  H   H347      1.0  0.18861  0.07031  0.58518  1.0000
  S   S78       1.0  0.08914  0.34494  0.50328  1.0000
  H   H348      1.0  0.20294  0.13799  0.55745  1.0000
  N   N21       1.0  0.13540  0.13193  0.60098  1.0000
  H   H349      1.0  0.22866  0.42144  0.59749  1.0000
  H   H350      1.0  0.12801  0.15593  0.57440  1.0000
  H   H351      1.0  0.15352  0.08541  0.60279  1.0000
  S   S79       1.0  0.21889  0.49736  0.63923  1.0000
  C   C282      1.0  0.13526  0.47322  0.54013  1.0000
  H   H352      1.0  0.05504  0.23898  0.54292  1.0000
  C   C283      1.0  0.05429  0.25246  0.52968  1.0000
  H   H353      1.0  0.05045  0.27008  0.56844  1.0000
  C   C284      1.0  0.04361  0.29159  0.51819  1.0000
  Fe  Fe39      1.0  0.10922  0.37764  0.50240  1.0000
  C   C285      1.0  0.08482  0.46418  0.50524  1.0000
  C   C286      1.0  0.02984  0.12182  0.49548  1.0000
  H   H354      1.0  0.10888  0.51210  0.58682  1.0000
  H   H355      1.0  0.04667  0.24497  0.51595  1.0000
  H   H356      1.0  0.03690  0.30911  0.52254  1.0000
  H   H357      1.0  0.03400  0.28679  0.50442  1.0000
  H   H358      1.0  0.09986  0.02866  0.49917  1.0000
  H   H359      1.0  0.19262  0.46990  0.50267  1.0000
  H   H360      1.0  0.01624  0.23246  0.53870  1.0000
  C   C287      1.0  0.01615  0.27037  0.54144  1.0000
  S   S80       1.0  0.30147  0.45827  0.90306  1.0000
  Fe  Fe40      1.0  0.38618  0.35348  0.92968  1.0000
  S   S81       1.0  0.41422  0.36795  0.94791  1.0000
  S   S82       1.0  0.37460  0.37219  0.89946  1.0000
  Fe  Fe41      1.0  0.38132  0.31047  0.95931  1.0000
  S   S83       1.0  0.40803  0.32220  0.98045  1.0000
  S   S84       1.0  0.36385  0.27653  0.96882  1.0000
  Fe  Fe42      1.0  0.39128  0.35782  0.97622  1.0000
  Fe  Fe43      1.0  0.29973  0.49197  0.88234  1.0000
  Fe  Fe44      1.0  0.42892  0.33131  0.95067  1.0000
  S   S85       1.0  0.46610  0.31737  0.95196  1.0000
  S   S86       1.0  0.36217  0.34563  0.95791  1.0000
  S   S87       1.0  0.40319  0.31737  0.92968  1.0000
  Fe  Fe45      1.0  0.38324  0.09330  0.92391  1.0000
  S   S88       1.0  0.38768  0.08150  0.95777  1.0000
  S   S89       1.0  0.38763  0.06419  0.90110  1.0000
  Fe  Fe46      1.0  0.37677  0.14499  0.93504  1.0000
  S   S90       1.0  0.37939  0.13610  0.96970  1.0000
  S   S91       1.0  0.37679  0.18227  0.92064  1.0000
  Fe  Fe47      1.0  0.40969  0.11254  0.95954  1.0000
  H   H361      1.0  0.41153  0.24686  0.98134  1.0000
  Fe  Fe48      1.0  0.35715  0.10586  0.96430  1.0000
  H   H362      1.0  0.35678  0.41874  0.97644  1.0000
  S   S92       1.0  0.40795  0.12250  0.92511  1.0000
  S   S93       1.0  0.35178  0.11666  0.93023  1.0000
  H   H363      1.0  0.34093  0.22836  0.86924  1.0000
  C   C288      1.0  0.37513  0.20781  0.93516  1.0000
  C   C289      1.0  0.36456  0.20813  0.95544  1.0000
  C   C290      1.0  0.36154  0.22924  0.96565  1.0000
  C   C291      1.0  0.36956  0.25013  0.95595  1.0000
  C   C292      1.0  0.38105  0.24963  0.93604  1.0000
  C   C293      1.0  0.38352  0.22863  0.92561  1.0000
  H   H364      1.0  0.35792  0.19227  0.96294  1.0000
  H   H365      1.0  0.35268  0.22942  0.98105  1.0000
  H   H366      1.0  0.38744  0.26549  0.92844  1.0000
  H   H367      1.0  0.39163  0.22861  0.90989  1.0000
  C   C294      1.0  0.45946  0.37502  0.98720  1.0000
  C   C295      1.0  0.48788  0.35672  0.93527  1.0000
  C   C296      1.0  0.49029  0.33459  0.94534  1.0000
  H   H368      1.0  0.48894  0.12236  0.98932  1.0000
  H   H369      1.0  0.47090  0.36348  0.93082  1.0000
  H   H370      1.0  0.32048  0.23360  0.93449  1.0000
  C   C297      1.0  0.49016  0.11928  0.97267  1.0000
  C   C298      1.0  0.47000  0.11442  0.96244  1.0000
  C   C299      1.0  0.47166  0.11063  0.94086  1.0000
  C   C300      1.0  0.49333  0.11162  0.92964  1.0000
  C   C301      1.0  0.32808  0.02592  0.87408  1.0000
  H   H371      1.0  0.45633  0.10661  0.93284  1.0000
  C   C302      1.0  0.35910  0.46612  0.98015  1.0000
  C   C303      1.0  0.32400  0.04842  0.88133  1.0000
  C   C304      1.0  0.34194  0.06024  0.88997  1.0000
  C   C305      1.0  0.36429  0.04982  0.89103  1.0000
  C   C306      1.0  0.36990  0.48791  0.97717  1.0000
  C   C307      1.0  0.33752  0.23898  0.88270  1.0000
  H   H372      1.0  0.30688  0.05679  0.88019  1.0000
  H   H373      1.0  0.33861  0.07760  0.89539  1.0000
  H   H374      1.0  0.32232  0.31371  0.92344  1.0000
  C   C308      1.0  0.32182  0.43443  0.90113  1.0000
  C   C309      1.0  0.33990  0.43391  0.88560  1.0000
  C   C310      1.0  0.35604  0.41478  0.88522  1.0000
  C   C311      1.0  0.35463  0.39639  0.90069  1.0000
  C   C312      1.0  0.33666  0.39704  0.91629  1.0000
  C   C313      1.0  0.32018  0.41579  0.91630  1.0000
  H   H375      1.0  0.34133  0.44812  0.87379  1.0000
  H   H376      1.0  0.36976  0.41430  0.87296  1.0000
  H   H377      1.0  0.33508  0.38281  0.92803  1.0000
  H   H378      1.0  0.30597  0.41579  0.92809  1.0000
  H   H379      1.0  0.32842  0.30770  0.86559  1.0000
  H   H380      1.0  0.34515  0.33233  0.91462  1.0000
  H   H381      1.0  0.32995  0.33340  0.87992  1.0000
  H   H382      1.0  0.37235  0.32326  0.88773  1.0000
  N   N22       1.0  0.44783  0.18783  0.94153  1.0000
  C   C314      1.0  0.44287  0.18736  0.91888  1.0000
  H   H383      1.0  0.35660  0.42047  0.94844  1.0000
  C   C315      1.0  0.32665  0.31440  0.88167  1.0000
  C   C316      1.0  0.43927  0.25881  0.96024  1.0000
  H   H384      1.0  0.31745  0.44367  0.95192  1.0000
  H   H385      1.0  0.49446  0.10853  0.91298  1.0000
  C   C317      1.0  0.42758  0.21884  0.96391  1.0000
  C   C318      1.0  0.34105  0.26290  0.88084  1.0000
  C   C319      1.0  0.50892  0.37685  0.98846  1.0000
  S   S94       1.0  0.29596  0.49953  0.84744  1.0000
  C   C320      1.0  0.36166  0.42992  0.96222  1.0000
  H   H386      1.0  0.34888  0.45542  0.92855  1.0000
  H   H387      1.0  0.32651  0.27491  0.93216  1.0000
  H   H388      1.0  0.31994  0.44054  0.97982  1.0000
  H   H389      1.0  0.42507  0.19481  0.91593  1.0000
  C   C321      1.0  0.47214  0.17901  0.94445  1.0000
  C   C322      1.0  0.42504  0.24191  0.96974  1.0000
  C   C323      1.0  0.36707  0.30485  0.88770  1.0000
  C   C324      1.0  0.31569  0.04174  0.94378  1.0000
  C   C325      1.0  0.44476  0.21201  0.94833  1.0000
  C   C326      1.0  0.43225  0.17130  0.95339  1.0000
  C   C327      1.0  0.34050  0.31372  0.91662  1.0000
  H   H390      1.0  0.43705  0.27672  0.96461  1.0000
  C   C328      1.0  0.33012  0.22849  0.90200  1.0000
  S   S95       1.0  0.32616  0.09052  0.98261  1.0000
  H   H391      1.0  0.48510  0.18914  0.93470  1.0000
  H   H392      1.0  0.44020  0.37348  0.98818  1.0000
  H   H393      1.0  0.30821  0.31252  0.88747  1.0000
  H   H394      1.0  0.41358  0.17593  0.95094  1.0000
  H   H395      1.0  0.32819  0.20980  0.90361  1.0000
  H   H396      1.0  0.36954  0.29994  0.87107  1.0000
  H   H397      1.0  0.35221  0.30514  0.92841  1.0000
  N   N23       1.0  0.34282  0.30203  0.89632  1.0000
  H   H398      1.0  0.47213  0.22598  0.92679  1.0000
  C   C329      1.0  0.45894  0.22974  0.93895  1.0000
  H   H399      1.0  0.43528  0.15330  0.94810  1.0000
  S   S96       1.0  0.44306  0.11363  0.97702  1.0000
  N   N24       1.0  0.35046  0.45363  0.96254  1.0000
  C   C330      1.0  0.36844  0.02746  0.88351  1.0000
  C   C331      1.0  0.32946  0.26584  0.91779  1.0000
  H   H400      1.0  0.34685  0.27020  0.86555  1.0000
  H   H401      1.0  0.47666  0.17944  0.96124  1.0000
  C   C332      1.0  0.35522  0.46545  0.94146  1.0000
  H   H402      1.0  0.41553  0.20683  0.97156  1.0000
  H   H403      1.0  0.43524  0.17031  0.97059  1.0000
  H   H404      1.0  0.51446  0.30873  0.95840  1.0000
  H   H405      1.0  0.32992  0.04864  0.95260  1.0000
  H   H406      1.0  0.38098  0.43063  0.96135  1.0000
  H   H407      1.0  0.37243  0.49669  0.96183  1.0000
  C   C333      1.0  0.32490  0.45160  0.96554  1.0000
  C   C334      1.0  0.45621  0.25275  0.94490  1.0000
  H   H408      1.0  0.47481  0.16067  0.93985  1.0000
  C   C335      1.0  0.32580  0.24194  0.91940  1.0000
  H   H409      1.0  0.37960  0.29392  0.89712  1.0000
  C   C336      1.0  0.33765  0.27700  0.89846  1.0000
  H   H410      1.0  0.29875  0.04956  0.94966  1.0000
  H   H411      1.0  0.44369  0.16928  0.91342  1.0000
  H   H412      1.0  0.45537  0.19745  0.90855  1.0000
  H   H413      1.0  0.37421  0.46730  0.93798  1.0000
  H   H414      1.0  0.34606  0.48286  0.94000  1.0000
  H   H415      1.0  0.46717  0.26610  0.93754  1.0000
  H   H416      1.0  0.30983  0.03874  0.98359  1.0000
  H   H417      1.0  0.46574  0.36645  0.97264  1.0000
  H   H418      1.0  0.50089  0.38368  0.97430  1.0000
  H   H419      1.0  0.31599  0.46901  0.96700  1.0000
  H   H420      1.0  0.31844  0.04861  0.92719  1.0000
  C   C337      1.0  0.51351  0.11630  0.93990  1.0000
  C   C338      1.0  0.30872  0.02003  0.98496  1.0000
  C   C339      1.0  0.50760  0.37013  0.93086  1.0000
  C   C340      1.0  0.51183  0.12024  0.96144  1.0000
  H   H421      1.0  0.50570  0.38726  0.92311  1.0000
  H   H422      1.0  0.16702  0.50315  0.86492  1.0000
  H   H423      1.0  0.38575  0.01940  0.88399  1.0000
  H   H424      1.0  0.46276  0.39392  0.98524  1.0000
  C   C341      1.0  0.51245  0.32589  0.95073  1.0000
  N   N25       1.0  0.31583  0.01587  0.94535  1.0000
  H   H425      1.0  0.30004  0.01644  0.91509  1.0000
  C   C342      1.0  0.35039  0.01545  0.87532  1.0000
  S   S97       1.0  0.30016  0.96756  0.07798  1.0000
  C   C343      1.0  0.48298  0.72840  0.04374  1.0000
  S   S98       1.0  0.34849  0.61180  0.01690  1.0000
  C   C344      1.0  0.43135  0.67063  0.03875  1.0000
  Fe  Fe49      1.0  0.40944  0.60746  0.03999  1.0000
  S   S99       1.0  0.37931  0.62739  0.05535  1.0000
  S   S100      1.0  0.44417  0.60830  0.05495  1.0000
  Fe  Fe50      1.0  0.35853  0.59642  0.04868  1.0000
  S   S101      1.0  0.32986  0.57897  0.06885  1.0000
  Fe  Fe51      1.0  0.37241  0.64072  0.02230  1.0000
  H   H426      1.0  0.42532  0.65382  0.03371  1.0000
  S   S102      1.0  0.38935  0.57551  0.03621  1.0000
  H   H427      1.0  0.51213  0.54211  0.08749  1.0000
  Fe  Fe52      1.0  0.42017  0.83829  0.01346  1.0000
  S   S103      1.0  0.40992  0.83180  0.04765  1.0000
  C   C345      1.0  0.36999  0.72547  0.01154  1.0000
  C   C346      1.0  0.43127  0.68752  0.00314  1.0000
  S   S104      1.0  0.35545  0.83354  0.03398  1.0000
  H   H428      1.0  0.30104  0.54841  0.04734  1.0000
  Fe  Fe53      1.0  0.38144  0.85937  0.04215  1.0000
  S   S105      1.0  0.37672  0.88509  0.06820  1.0000
  Fe  Fe54      1.0  0.38478  0.80654  0.03693  1.0000
  S   S106      1.0  0.38110  0.77198  0.05577  1.0000
  C   C347      1.0  0.30421  0.01007  0.00529  1.0000
  H   H429      1.0  0.44517  0.54934  0.06134  1.0000
  C   C348      1.0  0.36956  0.70408  0.02331  1.0000
  C   C349      1.0  0.37220  0.70382  0.04509  1.0000
  C   C350      1.0  0.37543  0.72476  0.05490  1.0000
  C   C351      1.0  0.37610  0.74611  0.04304  1.0000
  C   C352      1.0  0.37332  0.74635  0.02131  1.0000
  C   C353      1.0  0.29583  0.55118  0.03077  1.0000
  H   H430      1.0  0.37171  0.68751  0.05437  1.0000
  H   H431      1.0  0.37753  0.72437  0.07173  1.0000
  H   H432      1.0  0.48987  0.69402  0.03435  1.0000
  H   H433      1.0  0.28273  0.89379  0.07553  1.0000
  H   H434      1.0  0.29917  0.97840  0.02438  1.0000
  C   C354      1.0  0.47968  0.83975  0.03458  1.0000
  C   C355      1.0  0.48103  0.84165  0.01252  1.0000
  H   H435      1.0  0.37309  0.92822  0.02923  1.0000
  H   H436      1.0  0.45890  0.65122  0.00804  1.0000
  C   C356      1.0  0.51324  0.54884  0.05329  1.0000
  H   H437      1.0  0.46304  0.83742  0.04290  1.0000
  H   H438      1.0  0.32633  0.51537  0.05243  1.0000
  C   C357      1.0  0.35935  0.51689  0.08978  1.0000
  H   H439      1.0  0.45146  0.60141  0.01030  1.0000
  C   C358      1.0  0.46789  0.60528  0.01655  1.0000
  C   C359      1.0  0.46920  0.60897  0.03798  1.0000
  C   C360      1.0  0.49072  0.61355  0.04599  1.0000
  S   S107      1.0  0.27657  0.99903  0.13202  1.0000
  H   H440      1.0  0.31044  0.89795  0.10330  1.0000
  C   C361      1.0  0.36852  0.96461  0.03547  1.0000
  H   H441      1.0  0.49176  0.61638  0.06260  1.0000
  C   C362      1.0  0.49996  0.84091  0.04589  1.0000
  C   C363      1.0  0.35540  0.90806  0.07038  1.0000
  C   C364      1.0  0.35648  0.92324  0.08686  1.0000
  C   C365      1.0  0.33978  0.94161  0.08938  1.0000
  C   C366      1.0  0.32176  0.94491  0.07543  1.0000
  C   C367      1.0  0.32075  0.92984  0.05887  1.0000
  C   C368      1.0  0.33744  0.91145  0.05636  1.0000
  H   H442      1.0  0.37028  0.92071  0.09781  1.0000
  H   H443      1.0  0.34072  0.95305  0.10222  1.0000
  H   H444      1.0  0.30687  0.93226  0.04800  1.0000
  H   H445      1.0  0.33632  0.89981  0.04370  1.0000
  C   C369      1.0  0.33429  0.55061  0.08064  1.0000
  C   C370      1.0  0.35640  0.53960  0.08070  1.0000
  C   C371      1.0  0.47788  0.54505  0.07637  1.0000
  H   H446      1.0  0.41552  0.68116  0.04350  1.0000
  C   C372      1.0  0.31512  0.53857  0.08957  1.0000
  H   H447      1.0  0.37133  0.54873  0.07418  1.0000
  H   H448      1.0  0.29795  0.54698  0.08971  1.0000
  H   H449      1.0  0.47152  0.76270  0.05293  1.0000
  S   S108      1.0  0.40359  0.62212  0.00721  1.0000
  H   H450      1.0  0.37369  0.76263  0.01198  1.0000
  S   S109      1.0  0.36674  0.67826  0.00979  1.0000
  H   H451      1.0  0.44138  0.66659  0.05313  1.0000
  Fe  Fe55      1.0  0.29809  0.99629  0.10146  1.0000
  H   H452      1.0  0.38675  0.99104  0.06465  1.0000
  C   C373      1.0  0.47650  0.70765  0.03561  1.0000
  C   C374      1.0  0.43706  0.72357  0.03318  1.0000
  N   N26       1.0  0.34132  0.82195  0.09845  1.0000
  C   C375      1.0  0.33823  0.80019  0.08756  1.0000
  C   C376      1.0  0.36561  0.82896  0.09386  1.0000
  C   C377      1.0  0.33795  0.81635  0.12144  1.0000
  C   C378      1.0  0.32502  0.84134  0.09192  1.0000
  C   C379      1.0  0.32512  0.86296  0.10162  1.0000
  C   C380      1.0  0.30897  0.83963  0.07580  1.0000
  C   C381      1.0  0.30974  0.88144  0.09596  1.0000
  C   C382      1.0  0.29387  0.85836  0.07009  1.0000
  C   C383      1.0  0.29418  0.87916  0.08021  1.0000
  H   H453      1.0  0.34184  0.80261  0.07024  1.0000
  H   H454      1.0  0.35060  0.78587  0.09287  1.0000
  H   H455      1.0  0.32037  0.79371  0.09050  1.0000
  H   H456      1.0  0.36837  0.83462  0.07699  1.0000
  H   H457      1.0  0.37851  0.81443  0.09725  1.0000
  H   H458      1.0  0.37018  0.84388  0.10301  1.0000
  H   H459      1.0  0.31953  0.81216  0.12566  1.0000
  H   H460      1.0  0.34924  0.80114  0.12668  1.0000
  H   H461      1.0  0.34237  0.83097  0.13100  1.0000
  H   H462      1.0  0.33748  0.86597  0.11331  1.0000
  H   H463      1.0  0.30798  0.82417  0.06709  1.0000
  C   C384      1.0  0.51082  0.61476  0.03254  1.0000
  H   H464      1.0  0.28205  0.85683  0.05752  1.0000
  H   H465      1.0  0.41443  0.69675  0.00696  1.0000
  C   C385      1.0  0.45328  0.70475  0.02979  1.0000
  C   C386      1.0  0.36568  0.98785  0.02703  1.0000
  C   C387      1.0  0.50944  0.61111  0.01109  1.0000
  C   C388      1.0  0.48796  0.60642  0.00314  1.0000
  C   C389      1.0  0.33523  0.54544  0.01685  1.0000
  H   H466      1.0  0.51079  0.77388  0.03318  1.0000
  H   H467      1.0  0.47502  0.65961  0.02916  1.0000
  H   H468      1.0  0.36157  0.00790  0.99686  1.0000
  S   S110      1.0  0.39734  0.81088  0.00315  1.0000
  H   H469      1.0  0.50070  0.73011  0.04828  1.0000
  C   C390      1.0  0.50273  0.84472  0.00189  1.0000
  C   C391      1.0  0.37043  0.94579  0.02243  1.0000
  C   C392      1.0  0.47430  0.55169  0.03891  1.0000
  Fe  Fe56      1.0  0.38030  0.59216  0.00475  1.0000
  H   H470      1.0  0.46334  0.55484  0.02557  1.0000
  C   C393      1.0  0.36887  0.94941  0.00072  1.0000
  H   H471      1.0  0.50767  0.77114  0.00543  1.0000
  H   H472      1.0  0.32752  0.00422  0.04715  1.0000
  H   H473      1.0  0.36925  0.96074  0.05227  1.0000
  H   H474      1.0  0.43082  0.75833  0.04361  1.0000
  N   N27       1.0  0.44559  0.68277  0.02185  1.0000
  C   C394      1.0  0.46521  0.66669  0.01541  1.0000
  H   H475      1.0  0.47741  0.67530  0.00363  1.0000
  C   C395      1.0  0.46400  0.54854  0.05908  1.0000
  N   N28       1.0  0.31107  0.53760  0.01604  1.0000
  H   H476      1.0  0.34149  0.54477  0.03314  1.0000
  H   H477      1.0  0.49881  0.83943  0.06295  1.0000
  C   C396      1.0  0.44371  0.74425  0.04119  1.0000
  C   C397      1.0  0.36413  0.99097  0.00475  1.0000
  H   H478      1.0  0.27738  0.54621  0.03049  1.0000
  S   S111      1.0  0.39374  0.86779  0.00847  1.0000
  H   H479      1.0  0.46971  0.54278  0.09206  1.0000
  H   H480      1.0  0.34488  0.99009  0.06693  1.0000
  C   C398      1.0  0.31800  0.51560  0.09824  1.0000
  H   H481      1.0  0.29658  0.57027  0.02696  1.0000
  H   H482      1.0  0.41892  0.72237  0.03004  1.0000
  C   C399      1.0  0.46663  0.74670  0.04644  1.0000
  C   C400      1.0  0.50214  0.54495  0.07358  1.0000
  C   C401      1.0  0.30268  0.98606  0.00859  1.0000
  C   C402      1.0  0.49853  0.55206  0.03593  1.0000
  H   H483      1.0  0.33672  0.56386  0.01089  1.0000
  C   C403      1.0  0.38550  0.00683  0.05382  1.0000
  S   S112      1.0  0.45624  0.83980  0.99763  1.0000
  H   H484      1.0  0.50518  0.55551  0.01993  1.0000
  Fe  Fe57      1.0  0.37003  0.83979  0.00078  1.0000
  C   C404      1.0  0.34366  0.00566  0.05582  1.0000
  H   H485      1.0  0.36787  0.72590  0.99470  1.0000
  H   H486      1.0  0.34755  0.53489  0.00695  1.0000
  C   C405      1.0  0.30334  0.54346  0.99435  1.0000
  H   H487      1.0  0.42624  0.67118  0.99627  1.0000
  N   N29       1.0  0.36445  0.00752  0.04117  1.0000
  H   H488      1.0  0.40164  0.00715  0.04342  1.0000
  H   H489      1.0  0.30425  0.95318  0.99410  1.0000
  S   S113      1.0  0.15217  0.98805  0.40090  1.0000
  Fe  Fe58      1.0  0.07614  0.59054  0.45533  1.0000
  S   S114      1.0  0.09483  0.61791  0.43567  1.0000
  S   S115      1.0  0.04330  0.57898  0.44167  1.0000
  H   H490      1.0  0.05946  0.89178  0.37177  1.0000
  S   S116      1.0  0.13749  0.61176  0.46817  1.0000
  C   C406      1.0  0.05548  0.89617  0.38843  1.0000
  Fe  Fe59      1.0  0.10338  0.63273  0.46616  1.0000
  S   S117      1.0  0.09249  0.67109  0.46970  1.0000
  Fe  Fe60      1.0  0.12701  0.59481  0.43907  1.0000
  S   S118      1.0  0.14882  0.58729  0.40925  1.0000
  C   C407      1.0  0.02722  0.67937  0.46199  1.0000
  S   S119      1.0  0.10769  0.56642  0.45645  1.0000
  Fe  Fe61      1.0  0.12226  0.80640  0.45955  1.0000
  C   C408      1.0  0.01979  0.83915  0.44999  1.0000
  S   S120      1.0  0.13950  0.76988  0.45861  1.0000
  Fe  Fe62      1.0  0.13087  0.85693  0.44209  1.0000
  S   S121      1.0  0.10020  0.87160  0.46079  1.0000
  S   S122      1.0  0.15489  0.87789  0.41931  1.0000
  C   C409      1.0  0.23677  0.53239  0.35867  1.0000
  C   C410      1.0  0.19105  0.53034  0.42226  1.0000
  Fe  Fe63      1.0  0.08124  0.84071  0.45138  1.0000
  S   S123      1.0  0.04625  0.84686  0.43654  1.0000
  S   S124      1.0  0.14465  0.83480  0.46936  1.0000
  S   S125      1.0  0.11126  0.82746  0.43062  1.0000
  H   H491      1.0  0.09655  0.87284  0.38443  1.0000
  H   H492      1.0  0.12237  0.90208  0.37955  1.0000
  H   H493      1.0  0.06263  0.89294  0.43040  1.0000
  C   C411      1.0  0.12225  0.01303  0.45134  1.0000
  H   H494      1.0  0.10749  0.88125  0.40898  1.0000
  H   H495      1.0  0.20472  0.54996  0.34958  1.0000
  C   C412      1.0  0.11156  0.95889  0.36653  1.0000
  C   C413      1.0  0.10628  0.69824  0.46758  1.0000
  C   C414      1.0  0.13037  0.69993  0.46429  1.0000
  C   C415      1.0  0.14025  0.72199  0.46178  1.0000
  C   C416      1.0  0.12621  0.74258  0.46266  1.0000
  C   C417      1.0  0.10220  0.74089  0.46646  1.0000
  C   C418      1.0  0.09233  0.71884  0.46888  1.0000
  H   H496      1.0  0.16615  0.94509  0.47593  1.0000
  H   H497      1.0  0.23429  0.53888  0.37427  1.0000
  H   H498      1.0  0.09118  0.75654  0.46723  1.0000
  S   S126      1.0  0.08239  0.60639  0.48586  1.0000
  C   C419      1.0  0.15408  0.95749  0.40645  1.0000
  C   C420      1.0  0.13818  0.94742  0.42147  1.0000
  C   C421      1.0  0.13860  0.92317  0.42601  1.0000
  C   C422      1.0  0.15475  0.90866  0.41534  1.0000
  C   C423      1.0  0.17085  0.91876  0.40055  1.0000
  C   C424      1.0  0.17063  0.94305  0.39620  1.0000
  H   H499      1.0  0.12529  0.95841  0.42949  1.0000
  H   H500      1.0  0.12636  0.91567  0.43762  1.0000
  H   H501      1.0  0.18348  0.90769  0.39228  1.0000
  H   H502      1.0  0.18303  0.95054  0.38468  1.0000
  H   H503      1.0  0.08013  0.97877  0.37380  1.0000
  C   C425      1.0  0.16500  0.54827  0.38884  1.0000
  C   C426      1.0  0.16398  0.55991  0.40777  1.0000
  C   C427      1.0  0.17667  0.55051  0.42464  1.0000
  H   H504      1.0  0.04265  0.91113  0.38838  1.0000
  H   H505      1.0  0.15528  0.55543  0.37569  1.0000
  H   H506      1.0  0.17624  0.55939  0.43922  1.0000
  C   C428      1.0  0.12297  0.93711  0.36799  1.0000
  C   C429      1.0  0.07764  0.94286  0.38506  1.0000
  C   C430      1.0  0.07065  0.90757  0.42083  1.0000
  H   H507      1.0  0.06011  0.94596  0.39144  1.0000
  H   H508      1.0  0.17195  0.97381  0.44704  1.0000
  N   N30       1.0  0.14132  0.66372  0.40324  1.0000
  C   C431      1.0  0.12147  0.65325  0.39369  1.0000
  C   C432      1.0  0.16284  0.65619  0.39116  1.0000
  C   C433      1.0  0.14307  0.65402  0.42520  1.0000
  C   C434      1.0  0.13759  0.68931  0.40353  1.0000
  C   C435      1.0  0.11676  0.69911  0.41289  1.0000
  C   C436      1.0  0.15474  0.70512  0.39576  1.0000
  C   C437      1.0  0.11324  0.72315  0.41422  1.0000
  C   C438      1.0  0.15113  0.72915  0.39747  1.0000
  C   C439      1.0  0.13049  0.73812  0.40676  1.0000
  H   H509      1.0  0.11889  0.66090  0.37747  1.0000
  H   H510      1.0  0.12421  0.63402  0.39271  1.0000
  H   H511      1.0  0.10481  0.65574  0.40303  1.0000
  H   H512      1.0  0.16282  0.66321  0.37450  1.0000
  H   H513      1.0  0.16457  0.63681  0.39078  1.0000
  H   H514      1.0  0.17877  0.66157  0.39852  1.0000
  H   H515      1.0  0.12692  0.65762  0.43502  1.0000
  H   H516      1.0  0.14626  0.63480  0.42575  1.0000
  H   H517      1.0  0.15759  0.66165  0.43306  1.0000
  H   H518      1.0  0.10334  0.68824  0.42006  1.0000
  H   H519      1.0  0.17125  0.69938  0.38866  1.0000
  H   H520      1.0  0.09742  0.73016  0.42189  1.0000
  H   H521      1.0  0.16458  0.74094  0.39193  1.0000
  H   H522      1.0  0.12804  0.75669  0.40867  1.0000
  C   C440      1.0  0.11204  0.91817  0.37833  1.0000
  H   H523      1.0  0.14077  0.93507  0.36172  1.0000
  H   H524      1.0  0.03712  0.64294  0.46305  1.0000
  C   C441      1.0  0.27263  0.52163  0.38759  1.0000
  C   C442      1.0  0.01924  0.82911  0.47054  1.0000
  C   C443      1.0  0.08888  0.96174  0.37493  1.0000
  C   C444      1.0  0.08898  0.92053  0.38733  1.0000
  C   C445      1.0  0.16690  0.52022  0.48348  1.0000
  H   H525      1.0  0.04644  0.88117  0.39662  1.0000
  H   H526      1.0  0.27300  0.54088  0.38498  1.0000
  H   H527      1.0  0.05777  0.92243  0.42145  1.0000
  C   C446      1.0  0.17871  0.52754  0.38675  1.0000
  H   H528      1.0  0.03528  0.82586  0.47856  1.0000
  H   H529      1.0  0.08627  0.91241  0.42897  1.0000
  H   H530      1.0  0.32720  0.99939  0.28489  1.0000
  C   C447      1.0  0.19230  0.51886  0.40328  1.0000
  C   C448      1.0  0.09148  0.87914  0.40030  1.0000
  H   H531      1.0  0.31142  0.00260  0.24932  1.0000
  N   N31       1.0  0.07702  0.90111  0.39895  1.0000
  H   H532      1.0  0.13124  0.99852  0.44384  1.0000
  H   H533      1.0  0.08197  0.86484  0.40893  1.0000
  H   H534      1.0  0.12051  0.97367  0.35919  1.0000
  Fe  Fe64      1.0  0.11579  0.58448  0.48551  1.0000
  S   S127      1.0  0.20109  0.00537  0.35113  1.0000
  Fe  Fe65      1.0  0.11259  0.84762  0.48738  1.0000
  H   H535      1.0  0.20149  0.52377  0.43516  1.0000
  H   H536      1.0  0.04504  0.68485  0.46046  1.0000
  Fe  Fe66      1.0  0.17437  0.01089  0.37789  1.0000
  H   H537      1.0  0.17948  0.51883  0.37207  1.0000
  H   H538      1.0  0.12084  0.99561  0.48216  1.0000
  H   H539      1.0  0.25044  0.98305  0.29251  1.0000
  H   H540      1.0  0.07369  0.71777  0.47158  1.0000
  C   C449      1.0  0.21941  0.53882  0.34460  1.0000
  H   H541      1.0  0.29874  0.53340  0.35173  1.0000
  C   C450      1.0  0.11631  0.01135  0.47287  1.0000
  H   H542      1.0  0.16550  0.53863  0.48641  1.0000
  C   C451      1.0  0.22050  0.53044  0.32444  1.0000
  H   H543      1.0  0.14138  0.68430  0.46364  1.0000
  H   H544      1.0  0.02772  0.58482  0.48566  1.0000
  S   S128      1.0  0.09093  0.81772  0.47965  1.0000
  C   C452      1.0  0.27894  0.00457  0.28179  1.0000
  H   H545      1.0  0.30668  0.01392  0.37178  1.0000
  H   H546      1.0  0.28951  0.98959  0.27715  1.0000
  C   C453      1.0  0.25664  0.00060  0.29065  1.0000
  H   H547      1.0  0.15886  0.72311  0.45893  1.0000
  C   C454      1.0  0.02273  0.65577  0.46348  1.0000
  C   C455      1.0  0.18209  0.00765  0.48737  1.0000
  H   H548      1.0  0.14533  0.52451  0.45757  1.0000
  C   C456      1.0  0.17370  0.97871  0.46313  1.0000
  C   C457      1.0  0.17034  0.96234  0.48000  1.0000
  H   H549      1.0  0.25631  0.51722  0.39687  1.0000
  H   H550      1.0  0.09704  0.52897  0.49130  1.0000
  H   H551      1.0  0.20672  0.53508  0.31377  1.0000
  C   C458      1.0  0.17935  0.00136  0.46681  1.0000
  H   H552      1.0  0.28708  0.51604  0.39797  1.0000
  C   C459      1.0  0.01557  0.57999  0.45478  1.0000
  C   C460      1.0  0.23902  0.51565  0.31819  1.0000
  H   H553      1.0  0.18171  0.01399  0.45366  1.0000
  C   C461      1.0  0.25603  0.51743  0.35275  1.0000
  C   C462      1.0  0.23786  0.56279  0.69473  1.0000
  S   S129      1.0  0.38248  0.59429  0.72123  1.0000
  C   C463      1.0  0.05356  0.87969  0.70175  1.0000
  Fe  Fe67      1.0  0.39302  0.65830  0.70113  1.0000
  S   S130      1.0  0.40078  0.62796  0.68079  1.0000
  S   S131      1.0  0.40019  0.69400  0.68611  1.0000
  Fe  Fe68      1.0  0.36633  0.61407  0.69362  1.0000
  S   S132      1.0  0.33298  0.60769  0.67676  1.0000
  Fe  Fe69      1.0  0.41624  0.61119  0.71011  1.0000
  S   S133      1.0  0.45211  0.59352  0.71367  1.0000
  S   S134      1.0  0.35787  0.64599  0.71178  1.0000
  H   H554      1.0  0.11489  0.79271  0.51696  1.0000
  Fe  Fe70      1.0  0.41666  0.85438  0.69359  1.0000
  S   S135      1.0  0.41209  0.84842  0.72862  1.0000
  S   S136      1.0  0.45248  0.85698  0.67718  1.0000
  Fe  Fe71      1.0  0.36375  0.85217  0.68712  1.0000
  S   S137      1.0  0.35601  0.84541  0.72184  1.0000
  S   S138      1.0  0.33353  0.85098  0.66545  1.0000
  Fe  Fe72      1.0  0.38116  0.87338  0.72574  1.0000
  C   C464      1.0  0.47754  0.67761  0.69436  1.0000
  Fe  Fe73      1.0  0.38763  0.82100  0.72079  1.0000
  S   S139      1.0  0.16862  0.52218  0.67605  1.0000
  S   S140      1.0  0.38736  0.88137  0.69094  1.0000
  S   S141      1.0  0.39375  0.82571  0.68583  1.0000
  Fe  Fe74      1.0  0.20191  0.55200  0.60507  1.0000
  C   C465      1.0  0.21654  0.93723  0.72911  1.0000
  S   S142      1.0  0.19014  0.58344  0.58505  1.0000
  Fe  Fe75      1.0  0.19099  0.52479  0.64583  1.0000
  H   H555      1.0  0.20021  0.96090  0.53439  1.0000
  H   H556      1.0  0.50377  0.56423  0.66442  1.0000
  H   H557      1.0  0.49791  0.70958  0.74168  1.0000
  S   S143      1.0  0.17662  0.52404  0.61363  1.0000
  H   H558      1.0  0.49720  0.86937  0.73946  1.0000
  S   S144      1.0  0.21406  0.55476  0.63796  1.0000
  H   H559      1.0  0.50244  0.62802  0.65655  1.0000
  Fe  Fe76      1.0  0.18309  0.93591  0.62550  1.0000
  S   S145      1.0  0.20821  0.96477  0.62273  1.0000
  S   S146      1.0  0.15706  0.93696  0.65315  1.0000
  Fe  Fe77      1.0  0.20378  0.91360  0.58669  1.0000
  S   S147      1.0  0.23112  0.94029  0.58157  1.0000
  S   S148      1.0  0.20425  0.88653  0.56221  1.0000
  Fe  Fe78      1.0  0.23523  0.93614  0.61662  1.0000
  S   S149      1.0  0.26828  0.93752  0.63489  1.0000
  Fe  Fe79      1.0  0.20167  0.96629  0.58813  1.0000
  H   H560      1.0  0.47243  0.74767  0.69618  1.0000
  S   S150      1.0  0.21031  0.90722  0.62128  1.0000
  S   S151      1.0  0.17417  0.93969  0.59134  1.0000
  C   C466      1.0  0.51338  0.56043  0.67852  1.0000
  H   H561      1.0  0.14256  0.53194  0.71468  1.0000
  H   H562      1.0  0.07673  0.89423  0.73451  1.0000
  N   N32       1.0  0.46945  0.78445  0.70201  1.0000
  C   C467      1.0  0.13747  0.86816  0.53166  1.0000
  C   C468      1.0  0.15914  0.86534  0.52096  1.0000
  C   C469      1.0  0.17946  0.87136  0.53039  1.0000
  C   C470      1.0  0.17826  0.88044  0.55047  1.0000
  C   C471      1.0  0.15657  0.88364  0.56104  1.0000
  C   C472      1.0  0.13625  0.87737  0.55170  1.0000
  C   C473      1.0  0.17910  0.99133  0.50432  1.0000
  H   H563      1.0  0.19620  0.86877  0.52216  1.0000
  H   H564      1.0  0.15550  0.89047  0.57659  1.0000
  H   H565      1.0  0.11953  0.87958  0.56005  1.0000
  C   C474      1.0  0.17420  0.57661  0.56341  1.0000
  C   C475      1.0  0.16436  0.59450  0.55038  1.0000
  C   C476      1.0  0.15065  0.58923  0.53368  1.0000
  H   H566      1.0  0.33406  0.68391  0.68503  1.0000
  C   C477      1.0  0.15690  0.54817  0.54285  1.0000
  C   C478      1.0  0.17073  0.55343  0.55936  1.0000
  H   H567      1.0  0.16710  0.61245  0.55337  1.0000
  C   C479      1.0  0.42056  0.93307  0.68974  1.0000
  H   H568      1.0  0.17856  0.53952  0.56905  1.0000
  C   C480      1.0  0.47823  0.85934  0.69097  1.0000
  C   C481      1.0  0.47742  0.86284  0.71259  1.0000
  C   C482      1.0  0.49802  0.86629  0.72279  1.0000
  H   H569      1.0  0.48345  0.54884  0.69702  1.0000
  H   H570      1.0  0.49642  0.59934  0.73140  1.0000
  H   H571      1.0  0.46096  0.86309  0.72148  1.0000
  H   H572      1.0  0.10190  0.53785  0.55495  1.0000
  H   H573      1.0  0.50443  0.76318  0.67809  1.0000
  C   C483      1.0  0.31553  0.87528  0.65729  1.0000
  C   C484      1.0  0.29612  0.87167  0.64545  1.0000
  C   C485      1.0  0.28150  0.89050  0.63846  1.0000
  C   C486      1.0  0.28623  0.91319  0.64316  1.0000
  C   C487      1.0  0.30547  0.91679  0.65524  1.0000
  C   C488      1.0  0.32004  0.89795  0.66232  1.0000
  H   H574      1.0  0.29251  0.85421  0.64147  1.0000
  H   H575      1.0  0.26677  0.88747  0.62918  1.0000
  H   H576      1.0  0.30924  0.93429  0.65897  1.0000
  H   H577      1.0  0.33491  0.90098  0.67139  1.0000
  C   C489      1.0  0.39780  0.71900  0.70096  1.0000
  C   C490      1.0  0.40003  0.74087  0.69042  1.0000
  C   C491      1.0  0.39739  0.76127  0.70154  1.0000
  C   C492      1.0  0.39282  0.75999  0.72337  1.0000
  C   C493      1.0  0.49993  0.85851  0.67985  1.0000
  C   C494      1.0  0.39327  0.71759  0.72280  1.0000
  H   H578      1.0  0.40349  0.74209  0.67352  1.0000
  H   H579      1.0  0.39880  0.77792  0.69314  1.0000
  H   H580      1.0  0.26321  0.93331  0.67978  1.0000
  H   H581      1.0  0.27480  0.54597  0.72701  1.0000
  C   C495      1.0  0.47768  0.60692  0.70319  1.0000
  C   C496      1.0  0.49759  0.60618  0.71522  1.0000
  H   H582      1.0  0.45742  0.81789  0.71285  1.0000
  C   C497      1.0  0.47943  0.61559  0.68219  1.0000
  C   C498      1.0  0.46139  0.79058  0.68051  1.0000
  H   H583      1.0  0.46433  0.61596  0.67268  1.0000
  C   C499      1.0  0.31853  0.58413  0.66686  1.0000
  C   C500      1.0  0.32782  0.56125  0.66763  1.0000
  C   C501      1.0  0.31528  0.54324  0.65985  1.0000
  C   C502      1.0  0.29336  0.54784  0.65126  1.0000
  C   C503      1.0  0.28405  0.57069  0.65064  1.0000
  C   C504      1.0  0.29660  0.58867  0.65833  1.0000
  H   H584      1.0  0.34472  0.55746  0.67399  1.0000
  C   C505      1.0  0.51063  0.77512  0.68886  1.0000
  H   H585      1.0  0.26732  0.57457  0.64395  1.0000
  H   H586      1.0  0.28928  0.60629  0.65753  1.0000
  C   C506      1.0  0.15856  0.87486  0.70109  1.0000
  C   C507      1.0  0.14916  0.89648  0.70690  1.0000
  C   C508      1.0  0.14867  0.91545  0.69206  1.0000
  C   C509      1.0  0.15793  0.91297  0.67146  1.0000
  C   C510      1.0  0.16748  0.89139  0.66570  1.0000
  C   C511      1.0  0.16779  0.87239  0.68049  1.0000
  H   H587      1.0  0.46093  0.90562  0.68262  1.0000
  H   H588      1.0  0.14131  0.93215  0.69657  1.0000
  H   H589      1.0  0.17416  0.88918  0.64974  1.0000
  H   H590      1.0  0.17504  0.85567  0.67590  1.0000
  C   C512      1.0  0.14669  0.59058  0.70605  1.0000
  C   C513      1.0  0.14061  0.56937  0.71621  1.0000
  C   C514      1.0  0.14762  0.54834  0.70705  1.0000
  C   C515      1.0  0.16083  0.54851  0.68787  1.0000
  C   C516      1.0  0.16717  0.56974  0.67805  1.0000
  C   C517      1.0  0.16003  0.59067  0.68704  1.0000
  H   H591      1.0  0.16113  0.78587  0.49636  1.0000
  H   H592      1.0  0.14255  0.89869  0.72287  1.0000
  H   H593      1.0  0.17711  0.57015  0.66327  1.0000
  S   S152      1.0  0.11165  0.86012  0.52063  1.0000
  H   H594      1.0  0.14911  0.94886  0.54916  1.0000
  H   H595      1.0  0.43226  0.89347  0.71096  1.0000
  H   H596      1.0  0.24567  0.55378  0.68139  1.0000
  H   H597      1.0  0.23957  0.88861  0.68693  1.0000
  H   H598      1.0  0.04257  0.89574  0.69874  1.0000
  H   H599      1.0  0.14268  0.60309  0.52398  1.0000
  H   H600      1.0  0.19037  0.93261  0.54238  1.0000
  H   H601      1.0  0.17775  0.83326  0.57814  1.0000
  H   H602      1.0  0.36240  0.94895  0.69483  1.0000
  H   H603      1.0  0.51287  0.67153  0.68492  1.0000
  C   C518      1.0  0.46141  0.68706  0.70887  1.0000
  S   S153      1.0  0.23148  0.52758  0.59565  1.0000
  H   H604      1.0  0.44211  0.78998  0.67991  1.0000
  H   H605      1.0  0.23910  0.90781  0.66392  1.0000
  C   C519      1.0  0.24772  0.58270  0.70122  1.0000
  N   N33       1.0  0.22935  0.92423  0.69302  1.0000
  C   C520      1.0  0.15612  0.77338  0.50968  1.0000
  H   H606      1.0  0.47147  0.66812  0.68154  1.0000
  H   H607      1.0  0.13473  0.81589  0.51255  1.0000
  H   H608      1.0  0.22380  0.95403  0.72536  1.0000
  H   H609      1.0  0.44780  0.96516  0.70264  1.0000
  H   H610      1.0  0.29958  0.57392  0.71199  1.0000
  C   C521      1.0  0.40141  0.93292  0.65602  1.0000
  H   H611      1.0  0.08901  0.84852  0.69765  1.0000
  C   C522      1.0  0.21689  0.94373  0.68153  1.0000
  H   H612      1.0  0.44537  0.75689  0.70841  1.0000
  C   C523      1.0  0.51398  0.54779  0.71548  1.0000
  H   H613      1.0  0.32904  0.60112  0.73778  1.0000
  H   H614      1.0  0.21227  0.89894  0.67604  1.0000
  H   H615      1.0  0.19123  0.55956  0.72887  1.0000
  H   H616      1.0  0.22493  0.94723  0.66540  1.0000
  H   H617      1.0  0.35228  0.70268  0.69737  1.0000
  C   C524      1.0  0.16787  0.79875  0.53731  1.0000
  C   C525      1.0  0.16384  0.81102  0.55600  1.0000
  C   C526      1.0  0.19041  0.80003  0.52714  1.0000
  C   C527      1.0  0.45531  0.79903  0.71685  1.0000
  C   C528      1.0  0.46442  0.75978  0.70774  1.0000
  H   H618      1.0  0.14220  0.93292  0.50606  1.0000
  H   H619      1.0  0.34759  0.72539  0.64136  1.0000
  C   C529      1.0  0.19204  0.94541  0.52864  1.0000
  H   H620      1.0  0.35187  0.69646  0.65259  1.0000
  C   C530      1.0  0.25376  0.93062  0.69537  1.0000
  N   N34       1.0  0.44101  0.92873  0.70291  1.0000
  C   C531      1.0  0.38027  0.94009  0.66571  1.0000
  C   C532      1.0  0.18136  0.82343  0.56419  1.0000
  C   C533      1.0  0.30553  0.88738  0.73414  1.0000
  C   C534      1.0  0.31396  0.56463  0.72048  1.0000
  H   H621      1.0  0.14163  0.76349  0.50401  1.0000
  H   H622      1.0  0.21405  0.63403  0.73160  1.0000
  C   C535      1.0  0.46273  0.92207  0.69067  1.0000
  H   H623      1.0  0.43633  0.79609  0.71629  1.0000
  H   H624      1.0  0.12124  0.81030  0.53806  1.0000
  C   C536      1.0  0.19608  0.89501  0.74034  1.0000
  H   H625      1.0  0.32802  0.76020  0.64806  1.0000
  H   H626      1.0  0.13681  0.96860  0.52935  1.0000
  H   H627      1.0  0.46160  0.94761  0.72317  1.0000
  C   C537      1.0  0.29971  0.87551  0.71669  1.0000
  S   S154      1.0  0.38936  0.78538  0.73779  1.0000
  C   C538      1.0  0.08175  0.90146  0.71839  1.0000
  C   C539      1.0  0.27746  0.86730  0.71553  1.0000
  H   H628      1.0  0.07087  0.91768  0.71598  1.0000
  Fe  Fe80      1.0  0.37551  0.62686  0.73851  1.0000
  H   H629      1.0  0.24562  0.61006  0.72241  1.0000
  C   C540      1.0  0.12911  0.80172  0.52402  1.0000
  H   H630      1.0  0.39660  0.94295  0.71579  1.0000
  H   H631      1.0  0.45988  0.79503  0.73350  1.0000
  N   N35       1.0  0.07865  0.88450  0.70212  1.0000
  H   H632      1.0  0.10934  0.92267  0.62678  1.0000
  H   H633      1.0  0.31272  0.87220  0.70415  1.0000
  H   H634      1.0  0.18215  0.99686  0.51990  1.0000
  C   C541      1.0  0.08694  0.89432  0.68118  1.0000
  C   C542      1.0  0.07712  0.91574  0.67288  1.0000
  C   C543      1.0  0.49284  0.70097  0.72805  1.0000
  C   C544      1.0  0.08504  0.92572  0.65342  1.0000
  H   H635      1.0  0.36480  0.94232  0.65662  1.0000
  C   C545      1.0  0.26082  0.87114  0.73179  1.0000
  S   S155      1.0  0.41003  0.64236  0.72966  1.0000
  H   H636      1.0  0.15582  0.75588  0.55021  1.0000
  H   H637      1.0  0.20645  0.88437  0.70990  1.0000
  C   C546      1.0  0.21769  0.91979  0.71409  1.0000
  H   H638      1.0  0.39150  0.70077  0.73108  1.0000
  C   C547      1.0  0.43617  0.90953  0.71881  1.0000
  S   S156      1.0  0.13771  0.61745  0.71612  1.0000
  C   C548      1.0  0.37896  0.94388  0.68719  1.0000
  C   C549      1.0  0.39093  0.73806  0.73398  1.0000
  H   H639      1.0  0.06345  0.92512  0.68153  1.0000
  H   H640      1.0  0.29782  0.60340  0.73910  1.0000
  H   H641      1.0  0.12752  0.75688  0.53929  1.0000
  H   H642      1.0  0.15515  0.91792  0.52806  1.0000
  H   H643      1.0  0.08460  0.85549  0.72452  1.0000
  N   N36       1.0  0.12179  0.57558  0.62761  1.0000
  C   C550      1.0  0.14508  0.58568  0.62509  1.0000
  C   C551      1.0  0.10421  0.59446  0.63230  1.0000
  C   C552      1.0  0.12176  0.55890  0.64632  1.0000
  C   C553      1.0  0.11656  0.56478  0.60785  1.0000
  C   C554      1.0  0.11508  0.54031  0.60644  1.0000
  C   C555      1.0  0.11317  0.57882  0.58909  1.0000
  C   C556      1.0  0.10973  0.53078  0.58757  1.0000
  C   C557      1.0  0.10747  0.56914  0.57045  1.0000
  C   C558      1.0  0.10574  0.54519  0.56967  1.0000
  H   H644      1.0  0.14958  0.59444  0.63943  1.0000
  H   H645      1.0  0.15888  0.57202  0.62201  1.0000
  H   H646      1.0  0.14640  0.59876  0.61157  1.0000
  H   H647      1.0  0.10509  0.60939  0.62050  1.0000
  H   H648      1.0  0.10680  0.60187  0.64782  1.0000
  H   H649      1.0  0.08626  0.58791  0.63276  1.0000
  H   H650      1.0  0.13625  0.54549  0.64511  1.0000
  H   H651      1.0  0.12422  0.56772  0.66114  1.0000
  H   H652      1.0  0.10498  0.55000  0.64862  1.0000
  H   H653      1.0  0.11826  0.52813  0.61961  1.0000
  H   H654      1.0  0.11531  0.59738  0.58855  1.0000
  S   S157      1.0  0.27833  0.52463  0.64141  1.0000
  C   C559      1.0  0.11235  0.89329  0.64898  1.0000
  H   H655      1.0  0.50380  0.54167  0.72922  1.0000
  N   N37       1.0  0.33202  0.71976  0.67292  1.0000
  C   C560      1.0  0.35051  0.71514  0.65638  1.0000
  C   C561      1.0  0.33498  0.70190  0.69047  1.0000
  C   C562      1.0  0.30901  0.71654  0.66419  1.0000
  C   C563      1.0  0.33332  0.74395  0.67944  1.0000
  C   C564      1.0  0.33731  0.74943  0.70048  1.0000
  C   C565      1.0  0.33079  0.76296  0.66439  1.0000
  C   C566      1.0  0.33840  0.77253  0.70598  1.0000
  C   C567      1.0  0.33204  0.78596  0.67007  1.0000
  C   C568      1.0  0.33580  0.79072  0.69082  1.0000
  H   H656      1.0  0.36783  0.71966  0.66162  1.0000
  H   H657      1.0  0.32125  0.70388  0.70326  1.0000
  H   H658      1.0  0.29464  0.72067  0.67595  1.0000
  H   H659      1.0  0.30610  0.72786  0.64975  1.0000
  H   H660      1.0  0.30721  0.69829  0.65970  1.0000
  H   H661      1.0  0.34011  0.73627  0.71296  1.0000
  H   H662      1.0  0.22471  0.81375  0.52730  1.0000
  H   H663      1.0  0.33024  0.80029  0.65834  1.0000
  C   C569      1.0  0.20700  0.89852  0.72031  1.0000
  S   S158      1.0  0.12709  0.55857  0.51142  1.0000
  H   H664      1.0  0.32271  0.52567  0.66032  1.0000
  S   S159      1.0  0.19926  0.99754  0.56459  1.0000
  H   H665      1.0  0.49423  0.81384  0.72638  1.0000
  C   C570      1.0  0.50109  0.62229  0.67305  1.0000
  H   H666      1.0  0.16481  0.60704  0.67916  1.0000
  Fe  Fe81      1.0  0.24140  0.52756  0.62952  1.0000
  C   C571      1.0  0.39874  0.94047  0.69906  1.0000
  H   H667      1.0  0.25494  0.94717  0.70330  1.0000
  H   H668      1.0  0.32336  0.89252  0.73460  1.0000
  H   H669      1.0  0.20455  0.93760  0.51685  1.0000
  C   C572      1.0  0.20327  0.82420  0.55395  1.0000
  H   H670      1.0  0.21655  0.83449  0.56002  1.0000
  H   H671      1.0  0.14695  0.81154  0.56421  1.0000
  H   H672      1.0  0.07775  0.94240  0.64764  1.0000
  C   C573      1.0  0.14659  0.56603  0.53015  1.0000
  H   H673      1.0  0.47776  0.91872  0.70100  1.0000
  H   H674      1.0  0.15383  0.53021  0.54018  1.0000
  H   H675      1.0  0.43693  0.92331  0.65928  1.0000
  H   H676      1.0  0.11372  0.86721  0.67360  1.0000
  H   H677      1.0  0.46892  0.77864  0.66861  1.0000
  C   C574      1.0  0.17262  0.96831  0.50123  1.0000
  H   H678      1.0  0.17082  0.76054  0.51229  1.0000
  H   H679      1.0  0.05039  0.86752  0.68930  1.0000
  N   N38       1.0  0.14903  0.78557  0.52910  1.0000
  H   H680      1.0  0.21704  0.96028  0.68965  1.0000
  H   H681      1.0  0.26357  0.91673  0.70448  1.0000
  C   C575      1.0  0.50141  0.67973  0.69655  1.0000
  H   H682      1.0  0.50076  0.85577  0.66312  1.0000
  H   H683      1.0  0.46773  0.93595  0.67863  1.0000
  C   C576      1.0  0.23749  0.59453  0.71818  1.0000
  C   C577      1.0  0.21770  0.55469  0.70514  1.0000
  C   C578      1.0  0.10481  0.88328  0.66855  1.0000
  S   S160      1.0  0.15926  0.85064  0.71915  1.0000
  H   H684      1.0  0.15896  0.00666  0.59333  1.0000
  H   H685      1.0  0.27331  0.85769  0.70210  1.0000
  H   H686      1.0  0.04688  0.87170  0.71715  1.0000
  C   C579      1.0  0.14105  0.76774  0.54530  1.0000
  H   H687      1.0  0.33691  0.80857  0.69509  1.0000
  C   C580      1.0  0.20777  0.81261  0.53545  1.0000
  N   N39       1.0  0.16924  0.95146  0.51950  1.0000
  C   C581      1.0  0.15898  0.92952  0.51388  1.0000
  H   H688      1.0  0.40225  0.92960  0.63936  1.0000
  C   C582      1.0  0.23006  0.90391  0.67955  1.0000
  H   H689      1.0  0.18664  0.62335  0.72503  1.0000
  H   H690      1.0  0.19834  0.93979  0.67969  1.0000
  H   H691      1.0  0.26317  0.58919  0.69280  1.0000
  H   H692      1.0  0.11010  0.86493  0.71016  1.0000
  H   H693      1.0  0.10021  0.90648  0.71840  1.0000
  H   H694      1.0  0.33039  0.57146  0.71294  1.0000
  H   H695      1.0  0.13313  0.77560  0.55967  1.0000
  C   C583      1.0  0.09119  0.86242  0.70877  1.0000
  C   C584      1.0  0.49485  0.78768  0.70237  1.0000
  H   H696      1.0  0.16033  0.85831  0.50554  1.0000
  C   C585      1.0  0.42132  0.92939  0.66775  1.0000
  C   C586      1.0  0.50199  0.55166  0.69692  1.0000
  H   H697      1.0  0.31413  0.54582  0.71729  1.0000
  C   C587      1.0  0.15342  0.96179  0.53601  1.0000
  C   C588      1.0  0.20717  0.56651  0.72199  1.0000
  C   C589      1.0  0.21680  0.58689  0.72905  1.0000
  H   H698      1.0  0.10506  0.58019  0.55626  1.0000
  C   C590      1.0  0.10270  0.91457  0.64155  1.0000
  H   H699      1.0  0.46627  0.80855  0.67513  1.0000
  H   H700      1.0  0.12645  0.88497  0.63985  1.0000
  H   H701      1.0  0.19502  0.79177  0.51260  1.0000
  H   H702      1.0  0.13014  0.56919  0.73082  1.0000
  H   H703      1.0  0.20980  0.53943  0.69973  1.0000
  H   H704      1.0  0.43121  0.95452  0.72561  1.0000
  H   H705      1.0  0.44296  0.68494  0.70726  1.0000
  H   H706      1.0  0.45124  0.90535  0.72887  1.0000
  H   H707      1.0  0.42099  0.91367  0.72968  1.0000
  C   C591      1.0  0.50982  0.69153  0.71355  1.0000
  C   C592      1.0  0.46901  0.69877  0.72565  1.0000
  C   C593      1.0  0.50470  0.80320  0.71580  1.0000
  H   H708      1.0  0.01680  0.66879  0.72563  1.0000
  H   H709      1.0  0.47092  0.75436  0.72353  1.0000
  H   H710      1.0  0.16131  0.97626  0.54365  1.0000
  C   C594      1.0  0.44556  0.94993  0.71403  1.0000
  C   C595      1.0  0.19893  0.62409  0.73798  1.0000
  H   H711      1.0  0.45629  0.70570  0.73708  1.0000
  H   H712      1.0  0.17110  0.91915  0.50351  1.0000
  H   H713      1.0  0.24364  0.86429  0.73105  1.0000
  H   H714      1.0  0.34185  0.77636  0.72204  1.0000
  S   S161      1.0  0.37221  0.90598  0.74311  1.0000
  N   N40       1.0  0.31213  0.56842  0.74344  1.0000
  H   H715      1.0  0.03011  0.64703  0.74311  1.0000
  Fe  Fe82      1.0  0.29646  0.54336  0.89145  1.0000
  H   H716      1.0  0.35615  0.88835  0.88882  1.0000
  S   S162      1.0  0.29667  0.56866  0.91749  1.0000
  Fe  Fe83      1.0  0.32028  0.52858  0.85058  1.0000
  H   H717      1.0  0.29840  0.98937  0.92968  1.0000
  S   S163      1.0  0.35133  0.53491  0.82799  1.0000
  H   H718      1.0  0.03704  0.69715  0.74686  1.0000
  C   C596      1.0  0.14254  0.53066  0.85513  1.0000
  S   S164      1.0  0.32659  0.51867  0.88457  1.0000
  S   S165      1.0  0.29209  0.55559  0.85751  1.0000
  C   C597      1.0  0.42827  0.88627  0.91339  1.0000
  Fe  Fe84      1.0  0.30321  0.93355  0.89639  1.0000
  S   S166      1.0  0.27526  0.95449  0.87963  1.0000
  S   S167      1.0  0.30447  0.93269  0.93186  1.0000
  Fe  Fe85      1.0  0.33200  0.92619  0.85538  1.0000
  S   S168      1.0  0.30707  0.94806  0.83589  1.0000
  S   S169      1.0  0.36284  0.90471  0.84282  1.0000
  Fe  Fe86      1.0  0.30566  0.97223  0.86288  1.0000
  C   C598      1.0  0.27596  0.90984  0.78431  1.0000
  Fe  Fe87      1.0  0.27924  0.92814  0.85446  1.0000
  S   S170      1.0  0.25657  0.90561  0.83586  1.0000
  S   S171      1.0  0.33319  0.95197  0.88042  1.0000
  S   S172      1.0  0.30465  0.90557  0.87319  1.0000
  Fe  Fe88      1.0  0.09011  0.61316  0.78732  1.0000
  H   H719      1.0  0.31367  0.59822  0.76262  1.0000
  S   S173      1.0  0.05908  0.59567  0.80371  1.0000
  Fe  Fe89      1.0  0.14059  0.62367  0.79368  1.0000
  S   S174      1.0  0.14211  0.64861  0.76524  1.0000
  S   S175      1.0  0.17280  0.61912  0.81312  1.0000
  Fe  Fe90      1.0  0.10657  0.66198  0.77582  1.0000
  S   S176      1.0  0.09182  0.69892  0.77071  1.0000
  Fe  Fe91      1.0  0.13996  0.85309  0.75072  1.0000
  H   H720      1.0  0.28000  0.01362  0.93765  1.0000
  S   S177      1.0  0.10643  0.63976  0.80591  1.0000
  S   S178      1.0  0.12435  0.59531  0.77735  1.0000
  Fe  Fe92      1.0  0.13564  0.87394  0.79333  1.0000
  S   S179      1.0  0.15824  0.84478  0.78073  1.0000
  S   S180      1.0  0.15009  0.90102  0.81336  1.0000
  Fe  Fe93      1.0  0.09178  0.85821  0.77316  1.0000
  S   S181      1.0  0.11185  0.82813  0.75902  1.0000
  S   S182      1.0  0.05510  0.85807  0.76138  1.0000
  Fe  Fe94      1.0  0.12803  0.82239  0.79012  1.0000
  S   S183      1.0  0.13304  0.78753  0.80794  1.0000
  C   C599      1.0  0.19529  0.91248  0.75467  1.0000
  C   C600      1.0  0.38260  0.61633  0.93351  1.0000
  S   S184      1.0  0.10633  0.85090  0.80518  1.0000
  S   S185      1.0  0.11907  0.88385  0.76244  1.0000
  C   C601      1.0  0.43909  0.85990  0.94268  1.0000
  H   H721      1.0  0.18826  0.57237  0.87230  1.0000
  C   C602      1.0  0.10586  0.72257  0.78022  1.0000
  C   C603      1.0  0.10413  0.74425  0.76912  1.0000
  C   C604      1.0  0.11339  0.76397  0.77705  1.0000
  C   C605      1.0  0.12372  0.76241  0.79654  1.0000
  C   C606      1.0  0.12574  0.74066  0.80756  1.0000
  C   C607      1.0  0.11703  0.72072  0.79933  1.0000
  H   H722      1.0  0.19612  0.52992  0.87563  1.0000
  H   H723      1.0  0.11229  0.78038  0.76816  1.0000
  H   H724      1.0  0.13381  0.73923  0.82261  1.0000
  H   H725      1.0  0.11833  0.70408  0.80806  1.0000
  C   C608      1.0  0.03275  0.59802  0.79034  1.0000
  C   C609      1.0  0.33276  0.55651  0.75293  1.0000
  C   C610      1.0  0.22702  0.90573  0.82909  1.0000
  C   C611      1.0  0.21025  0.92211  0.83627  1.0000
  C   C612      1.0  0.18680  0.92061  0.83114  1.0000
  C   C613      1.0  0.17995  0.90295  0.81862  1.0000
  C   C614      1.0  0.19685  0.88696  0.81103  1.0000
  C   C615      1.0  0.22019  0.88825  0.81636  1.0000
  H   H726      1.0  0.21525  0.93565  0.84607  1.0000
  H   H727      1.0  0.17386  0.93312  0.83705  1.0000
  H   H728      1.0  0.19192  0.87347  0.80122  1.0000
  H   H729      1.0  0.23297  0.87538  0.81088  1.0000
  H   H730      1.0  0.29545  0.93749  0.75279  1.0000
  C   C616      1.0  0.31534  0.90650  0.94373  1.0000
  C   C617      1.0  0.32488  0.90642  0.96364  1.0000
  C   C618      1.0  0.33516  0.88587  0.97264  1.0000
  C   C619      1.0  0.33542  0.86531  0.96191  1.0000
  C   C620      1.0  0.32537  0.86533  0.94229  1.0000
  C   C621      1.0  0.31559  0.88593  0.93309  1.0000
  H   H731      1.0  0.32478  0.92234  0.97188  1.0000
  C   C622      1.0  0.11398  0.55414  0.82189  1.0000
  H   H732      1.0  0.32545  0.84939  0.93403  1.0000
  H   H733      1.0  0.30811  0.88582  0.91784  1.0000
  C   C623      1.0  0.36595  0.90508  0.81513  1.0000
  C   C624      1.0  0.35984  0.92513  0.80292  1.0000
  C   C625      1.0  0.36271  0.92537  0.78086  1.0000
  C   C626      1.0  0.37100  0.90537  0.77084  1.0000
  C   C627      1.0  0.37711  0.88526  0.78299  1.0000
  C   C628      1.0  0.37486  0.88523  0.80514  1.0000
  H   H734      1.0  0.35339  0.94063  0.81051  1.0000
  C   C629      1.0  0.25408  0.53896  0.75490  1.0000
  H   H735      1.0  0.37968  0.86970  0.81455  1.0000
  C   C630      1.0  0.21868  0.55378  0.82958  1.0000
  C   C631      1.0  0.19917  0.55208  0.81733  1.0000
  C   C632      1.0  0.18515  0.57195  0.81178  1.0000
  C   C633      1.0  0.19051  0.59372  0.81850  1.0000
  C   C634      1.0  0.21033  0.59548  0.83028  1.0000
  C   C635      1.0  0.22438  0.57565  0.83577  1.0000
  H   H736      1.0  0.19457  0.53520  0.81258  1.0000
  H   H737      1.0  0.16993  0.57030  0.80279  1.0000
  H   H738      1.0  0.21463  0.61225  0.83554  1.0000
  H   H739      1.0  0.23932  0.57722  0.84520  1.0000
  C   C636      1.0  0.35242  0.56090  0.81203  1.0000
  C   C637      1.0  0.37072  0.56372  0.79679  1.0000
  C   C638      1.0  0.37188  0.58420  0.78371  1.0000
  C   C639      1.0  0.35500  0.60215  0.78618  1.0000
  C   C640      1.0  0.33700  0.59953  0.80170  1.0000
  C   C641      1.0  0.33553  0.57886  0.81437  1.0000
  H   H740      1.0  0.38390  0.54992  0.79492  1.0000
  H   H741      1.0  0.32391  0.61339  0.80367  1.0000
  H   H742      1.0  0.32127  0.57692  0.82587  1.0000
  C   C642      1.0  0.31971  0.56747  0.93490  1.0000
  C   C643      1.0  0.33776  0.55049  0.93368  1.0000
  C   C644      1.0  0.35652  0.55077  0.94697  1.0000
  C   C645      1.0  0.35718  0.56777  0.96185  1.0000
  C   C646      1.0  0.33885  0.58439  0.96349  1.0000
  C   C647      1.0  0.32021  0.58426  0.95001  1.0000
  H   H743      1.0  0.33737  0.53722  0.92245  1.0000
  H   H744      1.0  0.37068  0.53791  0.94560  1.0000
  H   H745      1.0  0.30632  0.59749  0.95104  1.0000
  H   H746      1.0  0.01976  0.64751  0.78206  1.0000
  H   H747      1.0  0.24137  0.53005  0.74662  1.0000
  C   C648      1.0  0.40418  0.88331  0.91845  1.0000
  H   H748      1.0  0.30449  0.56240  0.99007  1.0000
  H   H749      1.0  0.36440  0.97465  0.97499  1.0000
  H   H750      1.0  0.09653  0.56363  0.87264  1.0000
  C   C649      1.0  0.25125  0.54062  0.77668  1.0000
  H   H751      1.0  0.18635  0.90984  0.77001  1.0000
  H   H752      1.0  0.37964  0.92114  0.88086  1.0000
  H   H753      1.0  0.09568  0.74576  0.75425  1.0000
  H   H754      1.0  0.44069  0.69817  0.99060  1.0000
  C   C650      1.0  0.29779  0.00851  0.93145  1.0000
  H   H755      1.0  0.28158  0.91976  0.79762  1.0000
  C   C651      1.0  0.44537  0.87471  0.92544  1.0000
  H   H756      1.0  0.18841  0.57198  0.76322  1.0000
  S   S186      1.0  0.23490  0.52809  0.83728  1.0000
  H   H757      1.0  0.05816  0.80582  0.82126  1.0000
  H   H758      1.0  0.40401  0.90164  0.87666  1.0000
  H   H759      1.0  0.40536  0.92521  0.89439  1.0000
  C   C652      1.0  0.03194  0.68626  0.76123  1.0000
  H   H760      1.0  0.38028  0.86769  0.88713  1.0000
  N   N41       1.0  0.38549  0.89607  0.90680  1.0000
  H   H761      1.0  0.31195  0.96985  0.95847  1.0000
  H   H762      1.0  0.38612  0.51575  0.99156  1.0000
  H   H763      1.0  0.03923  0.87974  0.80077  1.0000
  H   H764      1.0  0.33983  0.98794  0.93599  1.0000
  H   H765      1.0  0.04955  0.59966  0.75933  1.0000
  C   C653      1.0  0.31143  0.00603  0.96716  1.0000
  H   H766      1.0  0.46365  0.87731  0.92150  1.0000
  H   H767      1.0  0.45234  0.85115  0.95215  1.0000
  H   H768      1.0  0.36350  0.90028  0.93493  1.0000
  H   H769      1.0  0.37704  0.60984  0.85629  1.0000
  C   C654      1.0  0.26748  0.55206  0.78738  1.0000
  H   H770      1.0  0.38208  0.92385  0.92814  1.0000
  H   H771      1.0  0.11438  0.59837  0.85485  1.0000
  H   H772      1.0  0.26529  0.55317  0.80438  1.0000
  H   H773      1.0  0.21431  0.61187  0.77675  1.0000
  H   H774      1.0  0.43436  0.89747  0.90028  1.0000
  H   H775      1.0  0.35657  0.92011  0.91353  1.0000
  H   H776      1.0  0.09863  0.56188  0.81356  1.0000
  C   C655      1.0  0.37020  0.87930  0.89800  1.0000
  H   H777      1.0  0.02291  0.82672  0.81524  1.0000
  H   H778      1.0  0.23655  0.53291  0.78542  1.0000
  C   C656      1.0  0.18457  0.58985  0.75636  1.0000
  C   C657      1.0  0.41569  0.85635  0.94783  1.0000
  H   H779      1.0  0.36133  0.86810  0.91043  1.0000
  C   C658      1.0  0.31312  0.59382  0.74587  1.0000
  C   C659      1.0  0.05267  0.76590  0.80272  1.0000
  Fe  Fe95      1.0  0.12378  0.62122  0.74955  1.0000
  N   N42       1.0  0.17878  0.82506  0.84482  1.0000
  C   C660      1.0  0.17328  0.80399  0.85830  1.0000
  C   C661      1.0  0.15640  0.83764  0.84014  1.0000
  C   C662      1.0  0.18971  0.81769  0.82448  1.0000
  C   C663      1.0  0.19504  0.83924  0.85552  1.0000
  C   C664      1.0  0.21769  0.83012  0.86002  1.0000
  C   C665      1.0  0.18914  0.86221  0.86169  1.0000
  C   C666      1.0  0.23366  0.84343  0.86942  1.0000
  C   C667      1.0  0.20517  0.87522  0.87133  1.0000
  C   C668      1.0  0.22745  0.86599  0.87494  1.0000
  H   H780      1.0  0.16541  0.80876  0.87391  1.0000
  H   H781      1.0  0.16073  0.79312  0.85080  1.0000
  H   H782      1.0  0.18898  0.79259  0.86126  1.0000
  H   H783      1.0  0.14659  0.84282  0.85478  1.0000
  H   H784      1.0  0.14468  0.82663  0.83191  1.0000
  H   H785      1.0  0.15923  0.85350  0.82967  1.0000
  H   H786      1.0  0.17743  0.80819  0.81537  1.0000
  H   H787      1.0  0.19550  0.83299  0.81442  1.0000
  H   H788      1.0  0.20510  0.80565  0.82660  1.0000
  H   H789      1.0  0.22334  0.81272  0.85606  1.0000
  H   H790      1.0  0.17251  0.87088  0.85876  1.0000
  H   H791      1.0  0.25107  0.83639  0.87225  1.0000
  H   H792      1.0  0.20057  0.89294  0.87537  1.0000
  H   H793      1.0  0.24006  0.87653  0.88169  1.0000
  H   H794      1.0  0.09792  0.59582  0.83218  1.0000
  N   N43       1.0  0.20578  0.60036  0.74636  1.0000
  H   H795      1.0  0.35394  0.99837  0.86940  1.0000
  C   C669      1.0  0.02080  0.79452  0.79847  1.0000
  C   C670      1.0  0.02424  0.87445  0.79291  1.0000
  H   H796      1.0  0.11171  0.53507  0.82299  1.0000
  Fe  Fe96      1.0  0.26780  0.52630  0.85623  1.0000
  H   H797      1.0  0.35825  0.94107  0.77155  1.0000
  H   H798      1.0  0.38591  0.58616  0.77184  1.0000
  H   H799      1.0  0.17703  0.60024  0.76950  1.0000
  C   C671      1.0  0.30991  0.98163  0.97116  1.0000
  H   H800      1.0  0.04550  0.80858  0.76412  1.0000
  H   H801      1.0  0.33839  0.60892  0.90203  1.0000
  H   H802      1.0  0.37949  0.58217  0.84443  1.0000
  H   H803      1.0  0.15288  0.58861  0.85751  1.0000
  H   H804      1.0  0.31141  0.93590  0.77652  1.0000
  C   C672      1.0  0.39848  0.86776  0.93590  1.0000
  S   S187      1.0  0.38122  0.56775  0.97798  1.0000
  H   H805      1.0  0.33927  0.59774  0.97472  1.0000
  H   H806      1.0  0.40154  0.59030  0.86118  1.0000
  C   C673      1.0  0.35604  0.60706  0.90710  1.0000
  C   C674      1.0  0.09561  0.55687  0.85664  1.0000
  H   H807      1.0  0.04248  0.77783  0.76285  1.0000
  C   C675      1.0  0.38247  0.59118  0.85911  1.0000
  H   H808      1.0  0.34685  0.62850  0.93323  1.0000
  C   C676      1.0  0.16334  0.52178  0.86350  1.0000
  H   H809      1.0  0.34161  0.57043  0.85887  1.0000
  H   H810      1.0  0.04506  0.75204  0.79410  1.0000
  N   N44       1.0  0.11589  0.56393  0.84283  1.0000
  H   H811      1.0  0.28477  0.53952  0.99277  1.0000
  C   C677      1.0  0.34441  0.58101  0.87254  1.0000
  H   H812      1.0  0.39635  0.55337  0.88140  1.0000
  C   C678      1.0  0.13771  0.55500  0.85239  1.0000
  H   H813      1.0  0.41730  0.60153  0.93006  1.0000
  C   C679      1.0  0.40029  0.60327  0.92342  1.0000
  C   C680      1.0  0.28681  0.56152  0.77644  1.0000
  H   H814      1.0  0.37008  0.93468  0.99075  1.0000
  C   C681      1.0  0.37360  0.59322  0.89661  1.0000
  H   H815      1.0  0.07888  0.56364  0.85001  1.0000
  C   C682      1.0  0.27349  0.54823  0.74379  1.0000
  C   C683      1.0  0.39603  0.59214  0.90507  1.0000
  C   C684      1.0  0.11435  0.58968  0.83965  1.0000
  H   H816      1.0  0.41040  0.58246  0.89770  1.0000
  H   H817      1.0  0.04705  0.76347  0.81969  1.0000
  H   H818      1.0  0.05800  0.82431  0.79724  1.0000
  C   C685      1.0  0.36065  0.61851  0.92518  1.0000
  H   H819      1.0  0.26804  0.89400  0.79190  1.0000
  N   N45       1.0  0.36933  0.58057  0.87759  1.0000
  H   H820      1.0  0.30476  0.87199  0.78699  1.0000
  C   C686      1.0  0.15467  0.56986  0.85918  1.0000
  S   S188      1.0  0.34908  0.83948  0.97186  1.0000
  H   H821      1.0  0.41082  0.84479  0.96126  1.0000
  H   H822      1.0  0.20464  0.94717  0.76024  1.0000
  C   C687      1.0  0.02731  0.86345  0.77384  1.0000
  C   C688      1.0  0.17525  0.56075  0.86779  1.0000
  H   H823      1.0  0.04685  0.67364  0.76402  1.0000
  H   H824      1.0  0.22824  0.58479  0.76974  1.0000
  H   H825      1.0  0.38577  0.62451  0.94800  1.0000
  H   H826      1.0  0.50385  0.84634  0.98483  1.0000
  H   H827      1.0  0.36906  0.54767  0.89530  1.0000
  C   C689      1.0  0.30556  0.97187  0.99154  1.0000
  H   H828      1.0  0.38352  0.86974  0.77538  1.0000
  N   N46       1.0  0.04604  0.78968  0.79422  1.0000
  S   S189      1.0  0.08815  0.63633  0.75793  1.0000
  C   C690      1.0  0.06106  0.80617  0.80382  1.0000
  H   H829      1.0  0.26223  0.92080  0.77640  1.0000
  H   H830      1.0  0.38738  0.73690  0.75088  1.0000
  H   H831      1.0  0.29906  0.56992  0.78557  1.0000
  H   H832      1.0  0.33759  0.59891  0.86818  1.0000
  H   H833      1.0  0.31849  0.89707  0.79539  1.0000
  C   C691      1.0  0.20557  0.93352  0.74909  1.0000
  H   H834      1.0  0.19006  0.63463  0.75042  1.0000
  H   H835      1.0  0.09452  0.53765  0.85863  1.0000
  H   H836      1.0  0.07023  0.78884  0.76718  1.0000
  C   C692      1.0  0.39421  0.91164  0.88898  1.0000
  H   H837      1.0  0.33349  0.57365  0.88601  1.0000
  H   H838      1.0  0.32379  0.92320  0.75364  1.0000
  S   S190      1.0  0.35535  0.62779  0.76981  1.0000
  C   C693      1.0  0.30703  0.92604  0.76274  1.0000
  H   H839      1.0  0.33368  0.55972  0.76990  1.0000
  C   C694      1.0  0.37134  0.91073  0.92145  1.0000
  C   C695      1.0  0.36570  0.97194  0.99190  1.0000
  H   H840      1.0  0.34287  0.88590  0.98782  1.0000
  N   N47       1.0  0.29581  0.90393  0.76949  1.0000
  H   H841      1.0  0.07993  0.80181  0.80060  1.0000
  C   C696      1.0  0.03311  0.60003  0.76833  1.0000
  H   H842      1.0  0.25264  0.88556  0.76129  1.0000
  C   C697      1.0  0.37719  0.55574  0.88057  1.0000
  C   C698      1.0  0.05126  0.79123  0.77111  1.0000
  H   H843      1.0  0.31439  0.53417  0.98235  1.0000
  H   H844      1.0  0.12902  0.59615  0.82914  1.0000
  C   C699      1.0  0.29068  0.55955  0.75434  1.0000
  H   H845      1.0  0.03069  0.69724  0.77511  1.0000
  H   H846      1.0  0.34294  0.01460  0.92080  1.0000
  H   H847      1.0  0.37250  0.54536  0.86722  1.0000
  H   H848      1.0  0.13040  0.51828  0.85059  1.0000
  H   H849      1.0  0.38059  0.86439  0.94065  1.0000
  H   H850      1.0  0.35306  0.01209  0.94705  1.0000
  H   H851      1.0  0.48686  0.60351  0.98655  1.0000
  H   H852      1.0  0.12980  0.55752  0.81159  1.0000
  C   C700      1.0  0.22240  0.60229  0.76326  1.0000
  H   H853      1.0  0.32847  0.88416  0.77144  1.0000
  C   C701      1.0  0.17969  0.53681  0.86972  1.0000
  C   C702      1.0  0.31260  0.88866  0.78130  1.0000
  H   H854      1.0  0.07185  0.76237  0.80155  1.0000
  C   C703      1.0  0.26631  0.88336  0.74920  1.0000
  H   H855      1.0  0.23810  0.61181  0.75772  1.0000
  H   H856      1.0  0.33252  0.53732  0.75170  1.0000
  C   C704      1.0  0.28896  0.89190  0.75088  1.0000
  H   H857      1.0  0.34935  0.56260  0.74520  1.0000
  C   C705      1.0  0.33892  0.00717  0.93705  1.0000
  S   S191      1.0  0.30511  0.01168  0.86319  1.0000
  H   H858      1.0  0.17061  0.58925  0.74494  1.0000
  S   S192      1.0  0.26949  0.51643  0.89095  1.0000
  H   H859      1.0  0.18770  0.87878  0.74459  1.0000
  Fe  Fe97      1.0  0.92765  0.33487  0.18988  1.0000
  S   S193      1.0  0.92366  0.32337  0.22397  1.0000
  S   S194      1.0  0.96352  0.33777  0.17342  1.0000
  Fe  Fe98      1.0  0.87437  0.34003  0.18530  1.0000
  S   S195      1.0  0.86727  0.32923  0.21947  1.0000
  S   S196      1.0  0.84341  0.34148  0.16403  1.0000
  Fe  Fe99      1.0  0.89633  0.35221  0.22570  1.0000
  H   H860      1.0  0.84206  0.33611  0.10288  1.0000
  Fe  Fe100     1.0  0.89520  0.30144  0.21439  1.0000
  H   H861      1.0  0.62593  0.44756  0.15430  1.0000
  S   S197      1.0  0.90174  0.36532  0.19188  1.0000
  S   S198      1.0  0.90096  0.31067  0.17993  1.0000
  Fe  Fe101     1.0  0.86556  0.11113  0.22984  1.0000
  S   S199      1.0  0.86595  0.07896  0.21164  1.0000
  H   H862      1.0  0.77476  0.40159  0.19296  1.0000
  Fe  Fe102     1.0  0.87187  0.14303  0.19036  1.0000
  S   S200      1.0  0.87223  0.11307  0.16900  1.0000
  S   S201      1.0  0.87637  0.17909  0.17505  1.0000
  Fe  Fe103     1.0  0.84229  0.09947  0.18972  1.0000
  S   S202      1.0  0.80534  0.08902  0.18364  1.0000
  Fe  Fe104     1.0  0.89589  0.09541  0.19286  1.0000
  S   S203      1.0  0.92770  0.07294  0.18346  1.0000
  S   S204      1.0  0.84034  0.13104  0.20927  1.0000
  S   S205      1.0  0.89718  0.12613  0.21278  1.0000
  Fe  Fe105     1.0  0.68518  0.41504  0.12535  1.0000
  S   S206      1.0  0.70573  0.44503  0.13434  1.0000
  S   S207      1.0  0.65597  0.39788  0.14428  1.0000
  Fe  Fe106     1.0  0.71003  0.41176  0.08281  1.0000
  S   S208      1.0  0.73309  0.44080  0.08870  1.0000
  S   S209      1.0  0.71466  0.39686  0.05066  1.0000
  Fe  Fe107     1.0  0.73661  0.42398  0.12126  1.0000
  S   S210      1.0  0.77155  0.42385  0.13701  1.0000
  Fe  Fe108     1.0  0.70055  0.45928  0.10100  1.0000
  C   C706      1.0  0.67608  0.45678  0.04412  1.0000
  S   S211      1.0  0.71621  0.39315  0.11420  1.0000
  S   S212      1.0  0.67730  0.43105  0.09330  1.0000
  H   H863      1.0  0.72240  0.11404  0.07407  1.0000
  C   C707      1.0  0.59290  0.16509  0.02570  1.0000
  N   N48       1.0  0.56367  0.05279  0.22643  1.0000
  S   S213      1.0  0.69718  0.05015  0.12852  1.0000
  H   H864      1.0  0.55818  0.09431  0.06595  1.0000
  C   C708      1.0  0.57048  0.16766  0.01844  1.0000
  C   C709      1.0  0.77787  0.40785  0.22578  1.0000
  Fe  Fe109     1.0  0.68187  0.05023  0.09668  1.0000
  S   S214      1.0  0.67731  0.08326  0.07604  1.0000
  C   C710      1.0  0.63364  0.51282  0.06540  1.0000
  H   H865      1.0  0.95338  0.38514  0.19590  1.0000
  C   C711      1.0  0.55474  0.14995  0.02254  1.0000
  H   H866      1.0  0.59559  0.37210  0.21242  1.0000
  C   C712      1.0  0.71969  0.10754  0.11520  1.0000
  C   C713      1.0  0.95829  0.07590  0.18406  1.0000
  C   C714      1.0  0.96899  0.09226  0.19566  1.0000
  C   C715      1.0  0.99368  0.09275  0.19554  1.0000
  C   C716      1.0  0.97237  0.06037  0.17245  1.0000
  H   H867      1.0  0.95834  0.10433  0.20478  1.0000
  H   H868      1.0  0.96442  0.04764  0.16349  1.0000
  C   C717      1.0  0.79357  0.07008  0.16606  1.0000
  C   C718      1.0  0.80746  0.05650  0.15240  1.0000
  C   C719      1.0  0.79702  0.04174  0.13887  1.0000
  C   C720      1.0  0.77265  0.04039  0.13886  1.0000
  C   C721      1.0  0.75883  0.05409  0.15246  1.0000
  C   C722      1.0  0.76922  0.06884  0.16588  1.0000
  H   H869      1.0  0.82620  0.05728  0.15228  1.0000
  H   H870      1.0  0.61687  0.39348  0.23874  1.0000
  H   H871      1.0  0.74011  0.05315  0.15281  1.0000
  H   H872      1.0  0.75825  0.07945  0.17612  1.0000
  C   C723      1.0  0.88809  0.24135  0.21462  1.0000
  C   C724      1.0  0.88994  0.24353  0.19260  1.0000
  C   C725      1.0  0.88638  0.22427  0.18067  1.0000
  C   C726      1.0  0.88121  0.20263  0.19066  1.0000
  C   C727      1.0  0.87970  0.20033  0.21269  1.0000
  C   C728      1.0  0.88307  0.21967  0.22462  1.0000
  H   H873      1.0  0.89400  0.26004  0.18470  1.0000
  H   H874      1.0  0.88767  0.22611  0.16363  1.0000
  H   H875      1.0  0.87576  0.18369  0.22053  1.0000
  C   C729      1.0  0.76669  0.39998  0.20874  1.0000
  C   C730      1.0  0.98932  0.33859  0.18747  1.0000
  C   C731      1.0  0.98877  0.33641  0.20949  1.0000
  H   H876      1.0  0.65704  0.46063  0.04642  1.0000
  H   H877      1.0  0.64646  0.03755  0.00427  1.0000
  S   S215      1.0  0.66584  0.38250  0.24264  1.0000
  H   H878      1.0  0.97260  0.33303  0.21820  1.0000
  C   C732      1.0  0.99665  0.06100  0.17217  1.0000
  H   H879      1.0  0.68456  0.46506  0.05701  1.0000
  C   C733      1.0  0.82236  0.36433  0.15900  1.0000
  C   C734      1.0  0.80205  0.35930  0.14898  1.0000
  C   C735      1.0  0.78579  0.37713  0.14294  1.0000
  C   C736      1.0  0.78997  0.40033  0.14639  1.0000
  C   C737      1.0  0.80995  0.40527  0.15697  1.0000
  C   C738      1.0  0.82595  0.38736  0.16345  1.0000
  H   H880      1.0  0.79908  0.34154  0.14549  1.0000
  H   H881      1.0  0.77030  0.37293  0.13524  1.0000
  H   H882      1.0  0.81330  0.42314  0.15981  1.0000
  H   H883      1.0  0.84151  0.39151  0.17109  1.0000
  H   H884      1.0  0.63706  0.36097  0.21372  1.0000
  C   C739      1.0  0.62935  0.08777  0.20010  1.0000
  C   C740      1.0  0.63302  0.08729  0.17813  1.0000
  C   C741      1.0  0.64137  0.06678  0.16880  1.0000
  C   C742      1.0  0.64583  0.04657  0.18142  1.0000
  C   C743      1.0  0.64259  0.04719  0.20339  1.0000
  C   C744      1.0  0.63445  0.06772  0.21272  1.0000
  H   H885      1.0  0.62918  0.10276  0.16827  1.0000
  H   H886      1.0  0.64383  0.06644  0.15183  1.0000
  H   H887      1.0  0.80011  0.35681  0.24280  1.0000
  H   H888      1.0  0.63204  0.06790  0.22964  1.0000
  C   C745      1.0  0.66430  0.38517  0.21507  1.0000
  C   C746      1.0  0.67894  0.40038  0.20329  1.0000
  C   C747      1.0  0.67720  0.40361  0.18137  1.0000
  C   C748      1.0  0.66029  0.39220  0.17126  1.0000
  C   C749      1.0  0.64578  0.37688  0.18303  1.0000
  C   C750      1.0  0.64804  0.37308  0.20484  1.0000
  H   H889      1.0  0.69143  0.40996  0.21112  1.0000
  H   H890      1.0  0.68839  0.41552  0.17240  1.0000
  H   H891      1.0  0.63278  0.36794  0.17522  1.0000
  S   S216      1.0  0.70717  0.02310  0.08447  1.0000
  H   H892      1.0  0.97362  0.18953  0.17114  1.0000
  C   C751      1.0  0.58495  0.42030  0.18599  1.0000
  C   C752      1.0  0.68884  0.38224  0.01903  1.0000
  C   C753      1.0  0.68899  0.38734  0.04035  1.0000
  C   C754      1.0  0.66865  0.38495  0.05313  1.0000
  C   C755      1.0  0.64834  0.37745  0.04466  1.0000
  H   H893      1.0  0.68884  0.49939  0.03517  1.0000
  H   H894      1.0  0.70445  0.38419  0.00900  1.0000
  H   H895      1.0  0.66861  0.38857  0.06964  1.0000
  H   H896      1.0  0.63272  0.37555  0.05470  1.0000
  C   C756      1.0  0.62342  0.08014  0.02586  1.0000
  C   C757      1.0  0.63814  0.09887  0.02547  1.0000
  C   C758      1.0  0.65472  0.09972  0.04089  1.0000
  C   C759      1.0  0.65691  0.08164  0.05649  1.0000
  C   C760      1.0  0.64253  0.06270  0.05649  1.0000
  C   C761      1.0  0.62566  0.06209  0.04138  1.0000
  H   H897      1.0  0.63638  0.11297  0.01365  1.0000
  H   H898      1.0  0.66578  0.11444  0.04082  1.0000
  H   H899      1.0  0.64422  0.04858  0.06825  1.0000
  H   H900      1.0  0.80768  0.43132  0.06886  1.0000
  H   H901      1.0  0.56642  0.38163  0.20674  1.0000
  H   H902      1.0  0.79630  0.28210  0.18009  1.0000
  H   H903      1.0  0.73950  0.13580  0.08458  1.0000
  H   H904      1.0  0.78692  0.42978  0.09123  1.0000
  H   H905      1.0  0.85593  0.28505  0.19825  1.0000
  H   H906      1.0  0.71929  0.46780  0.00730  1.0000
  H   H907      1.0  0.75690  0.39418  0.07602  1.0000
  C   C762      1.0  0.66448  0.03254  0.00666  1.0000
  C   C763      1.0  0.82711  0.40244  0.10072  1.0000
  C   C764      1.0  0.73902  0.11695  0.08170  1.0000
  H   H908      1.0  0.63113  0.31991  0.99674  1.0000
  H   H909      1.0  0.00708  0.04872  0.16303  1.0000
  C   C765      1.0  0.77202  0.38799  0.08539  1.0000
  H   H910      1.0  0.62903  0.42660  0.21928  1.0000
  H   H911      1.0  0.78426  0.12915  0.15574  1.0000
  H   H912      1.0  0.77723  0.42961  0.06507  1.0000
  H   H913      1.0  0.80790  0.03125  0.12842  1.0000
  C   C766      1.0  0.98961  0.03963  0.22456  1.0000
  H   H914      1.0  0.79697  0.37094  0.05311  1.0000
  H   H915      1.0  0.84578  0.26386  0.18159  1.0000
  C   C767      1.0  0.93607  0.14770  0.16393  1.0000
  H   H916      1.0  0.79594  0.05615  0.22241  1.0000
  H   H917      1.0  0.93224  0.18252  0.17415  1.0000
  N   N49       1.0  0.54440  0.11006  0.03731  1.0000
  H   H918      1.0  0.64796  0.25581  0.03781  1.0000
  H   H919      1.0  0.98348  0.38430  0.20065  1.0000
  C   C768      1.0  0.55350  0.08952  0.05002  1.0000
  C   C769      1.0  0.56113  0.12893  0.03396  1.0000
  C   C770      1.0  0.58409  0.12700  0.04138  1.0000
  H   H920      1.0  0.56286  0.03635  0.19681  1.0000
  C   C771      1.0  0.59962  0.14491  0.03729  1.0000
  H   H921      1.0  0.99702  0.02941  0.21186  1.0000
  C   C772      1.0  0.65746  0.26667  0.00492  1.0000
  H   H922      1.0  0.62762  0.22714  0.23677  1.0000
  C   C773      1.0  0.67424  0.45512  0.00536  1.0000
  H   H923      1.0  0.85141  0.37681  0.24039  1.0000
  H   H924      1.0  0.97505  0.36931  0.23872  1.0000
  H   H925      1.0  0.65822  0.19954  0.99712  1.0000
  H   H926      1.0  0.95540  0.03025  0.21942  1.0000
  H   H927      1.0  0.67964  0.43769  0.04661  1.0000
  H   H928      1.0  0.54264  0.51219  0.04793  1.0000
  H   H929      1.0  0.56913  0.08121  0.04203  1.0000
  H   H930      1.0  0.59075  0.11163  0.04995  1.0000
  H   H931      1.0  0.00800  0.38808  0.22601  1.0000
  S   S217      1.0  0.76008  0.02178  0.12142  1.0000
  H   H932      1.0  0.65027  0.31863  0.02969  1.0000
  H   H933      1.0  0.54050  0.07573  0.05238  1.0000
  H   H934      1.0  0.82213  0.10066  0.10295  1.0000
  H   H935      1.0  0.82156  0.11817  0.13763  1.0000
  N   N50       1.0  0.82042  0.27603  0.20511  1.0000
  C   C774      1.0  0.97706  0.43734  0.24010  1.0000
  H   H936      1.0  0.65006  0.48355  0.08258  1.0000
  C   C775      1.0  0.81440  0.29778  0.21594  1.0000
  C   C776      1.0  0.80674  0.31815  0.20423  1.0000
  H   H937      1.0  0.93937  0.43103  0.21436  1.0000
  H   H938      1.0  0.00823  0.33843  0.23740  1.0000
  C   C777      1.0  0.65268  0.25044  0.02213  1.0000
  H   H939      1.0  0.61724  0.50448  0.06472  1.0000
  H   H940      1.0  0.91799  0.04423  0.22104  1.0000
  H   H941      1.0  0.77217  0.36868  0.08612  1.0000
  H   H942      1.0  0.70356  0.10295  0.10764  1.0000
  H   H943      1.0  0.80528  0.31824  0.18734  1.0000
  H   H944      1.0  0.58680  0.43184  0.15307  1.0000
  C   C778      1.0  0.91654  0.03982  0.23833  1.0000
  H   H945      1.0  0.83680  0.29376  0.17766  1.0000
  C   C779      1.0  0.97865  0.26665  0.22555  1.0000
  C   C780      1.0  0.65133  0.29929  0.02890  1.0000
  N   N51       1.0  0.01002  0.15849  0.15736  1.0000
  H   H946      1.0  0.81466  0.39566  0.04710  1.0000
  H   H947      1.0  0.00775  0.19570  0.15090  1.0000
  C   C781      1.0  0.80538  0.11575  0.13013  1.0000
  H   H948      1.0  0.55474  0.06673  0.19546  1.0000
  H   H949      1.0  0.61443  0.04747  0.04169  1.0000
  H   H950      1.0  0.71929  0.46672  0.03546  1.0000
  C   C782      1.0  0.80385  0.34044  0.23546  1.0000
  H   H951      1.0  0.59824  0.02193  0.20913  1.0000
  C   C783      1.0  0.80563  0.10578  0.11067  1.0000
  H   H952      1.0  0.56564  0.18316  0.00888  1.0000
  C   C784      1.0  0.78472  0.10184  0.10139  1.0000
  S   S218      1.0  0.62223  0.36307  0.01334  1.0000
  S   S219      1.0  0.61756  0.11339  0.21116  1.0000
  C   C785      1.0  0.71059  0.46004  0.02185  1.0000
  H   H953      1.0  0.78444  0.26779  0.20384  1.0000
  N   N52       1.0  0.96158  0.40167  0.22424  1.0000
  H   H954      1.0  0.96438  0.26097  0.23613  1.0000
  H   H955      1.0  0.55811  0.09020  0.22484  1.0000
  H   H956      1.0  0.74282  0.06639  0.11131  1.0000
  C   C786      1.0  0.79150  0.42313  0.07533  1.0000
  H   H957      1.0  0.66211  0.49600  0.02254  1.0000
  C   C787      1.0  0.79758  0.39007  0.05420  1.0000
  C   C788      1.0  0.64812  0.37246  0.02333  1.0000
  N   N53       1.0  0.68516  0.46553  0.02304  1.0000
  H   H958      1.0  0.52645  0.08715  0.01833  1.0000
  N   N54       1.0  0.79412  0.39731  0.07624  1.0000
  H   H959      1.0  0.72006  0.09711  0.13049  1.0000
  H   H960      1.0  0.52952  0.11581  0.00675  1.0000
  C   C789      1.0  0.76283  0.10741  0.11160  1.0000
  C   C790      1.0  0.59580  0.02086  0.22612  1.0000
  H   H961      1.0  0.94486  0.11334  0.15387  1.0000
  H   H962      1.0  0.00188  0.10495  0.20483  1.0000
  H   H963      1.0  0.01265  0.18652  0.17821  1.0000
  C   C791      1.0  0.00380  0.40516  0.23172  1.0000
  C   C792      1.0  0.78426  0.12198  0.14031  1.0000
  H   H964      1.0  0.80966  0.35169  0.08225  1.0000
  H   H965      1.0  0.96972  0.41109  0.19151  1.0000
  H   H966      1.0  0.72434  0.07330  0.08980  1.0000
  C   C793      1.0  0.68108  0.49118  0.02181  1.0000
  C   C794      1.0  0.71003  0.01866  0.01621  1.0000
  C   C795      1.0  0.61743  0.44003  0.16853  1.0000
  C   C796      1.0  0.65223  0.50089  0.07550  1.0000
  C   C797      1.0  0.66870  0.01677  0.02374  1.0000
  S   S220      1.0  0.60188  0.07882  0.00737  1.0000
  H   H967      1.0  0.64901  0.21439  0.03249  1.0000
  C   C798      1.0  0.76323  0.11787  0.13133  1.0000
  H   H968      1.0  0.71751  0.12632  0.11836  1.0000
  H   H969      1.0  0.78364  0.39770  0.04404  1.0000
  N   N55       1.0  0.74092  0.10257  0.10165  1.0000
  H   H970      1.0  0.68892  0.49960  0.00718  1.0000
  H   H971      1.0  0.00857  0.16496  0.12378  1.0000
  C   C799      1.0  0.84570  0.39311  0.11225  1.0000
  C   C800      1.0  0.95150  0.13001  0.15732  1.0000
  H   H972      1.0  0.74760  0.12255  0.14045  1.0000
  C   C801      1.0  0.82679  0.25594  0.21968  1.0000
  H   H973      1.0  0.98860  0.28869  0.17551  1.0000
  C   C802      1.0  0.74084  0.07769  0.09677  1.0000
  H   H974      1.0  0.82329  0.42086  0.10177  1.0000
  H   H975      1.0  0.75340  0.11276  0.07003  1.0000
  H   H976      1.0  0.61718  0.14286  0.04275  1.0000
  C   C803      1.0  0.81368  0.38806  0.08895  1.0000
  C   C804      1.0  0.61869  0.42776  0.20552  1.0000
  H   H977      1.0  0.66845  0.37137  0.99399  1.0000
  C   C805      1.0  0.96728  0.39532  0.20219  1.0000
  H   H978      1.0  0.78588  0.09403  0.08631  1.0000
  H   H979      1.0  0.75504  0.07243  0.08537  1.0000
  H   H980      1.0  0.98671  0.11892  0.15094  1.0000
  C   C806      1.0  0.00908  0.33925  0.22034  1.0000
  C   C807      1.0  0.66844  0.37490  0.01051  1.0000
  H   H981      1.0  0.63458  0.29322  0.03630  1.0000
  C   C808      1.0  0.85124  0.36934  0.11273  1.0000
  C   C809      1.0  0.84052  0.27985  0.19000  1.0000
  C   C810      1.0  0.94448  0.16893  0.16885  1.0000
  C   C811      1.0  0.80038  0.26931  0.19327  1.0000
  C   C812      1.0  0.93867  0.41461  0.22441  1.0000
  H   H982      1.0  0.79435  0.09742  0.22875  1.0000
  C   C813      1.0  0.81958  0.36383  0.09011  1.0000
  H   H983      1.0  0.76850  0.39361  0.10173  1.0000
  H   H984      1.0  0.56678  0.43640  0.23428  1.0000
  C   C814      1.0  0.96558  0.04028  0.22916  1.0000
  H   H985      1.0  0.52681  0.12630  0.06362  1.0000
  H   H986      1.0  0.01139  0.34380  0.15934  1.0000
  C   C815      1.0  0.56664  0.05339  0.20305  1.0000
  S   S221      1.0  0.89086  0.26555  0.23008  1.0000
  H   H987      1.0  0.94535  0.36904  0.23195  1.0000
  H   H988      1.0  0.92490  0.40411  0.21827  1.0000
  C   C816      1.0  0.83810  0.35470  0.10182  1.0000
  H   H989      1.0  0.69295  0.07733  0.23353  1.0000
  H   H990      1.0  0.80391  0.25230  0.18595  1.0000
  C   C817      1.0  0.67343  0.51159  0.07673  1.0000
  H   H991      1.0  0.57269  0.37142  0.23279  1.0000
  C   C818      1.0  0.65862  0.21802  0.99948  1.0000
  C   C819      1.0  0.62885  0.43871  0.18737  1.0000
  C   C820      1.0  0.96839  0.17269  0.16698  1.0000
  C   C821      1.0  0.65325  0.22648  0.01932  1.0000
  H   H992      1.0  0.54263  0.35178  0.03651  1.0000
  C   C822      1.0  0.01073  0.34222  0.17640  1.0000
  N   N56       1.0  0.65490  0.29217  0.00680  1.0000
  S   S222      1.0  0.69753  0.49723  0.08890  1.0000
  C   C823      1.0  0.00139  0.26606  0.23247  1.0000
  C   C824      1.0  0.57979  0.38171  0.21872  1.0000
  C   C825      1.0  0.59643  0.41794  0.20531  1.0000
  H   H993      1.0  0.66593  0.29269  0.03871  1.0000
  H   H994      1.0  0.85540  0.40428  0.12149  1.0000
  H   H995      1.0  0.71694  0.38197  0.23367  1.0000
  C   C826      1.0  0.98464  0.15505  0.16001  1.0000
  H   H996      1.0  0.64646  0.03172  0.21321  1.0000
  C   C827      1.0  0.74487  0.39052  0.21194  1.0000
  C   C828      1.0  0.01508  0.28174  0.19815  1.0000
  C   C829      1.0  0.54519  0.36932  0.00589  1.0000
  C   C830      1.0  0.57914  0.03518  0.23719  1.0000
  C   C831      1.0  0.56866  0.07620  0.23313  1.0000
  H   H997      1.0  0.92250  0.02135  0.24134  1.0000
  C   C832      1.0  0.75198  0.07699  0.22637  1.0000
  H   H998      1.0  0.56793  0.41349  0.18464  1.0000
  C   C833      1.0  0.73415  0.38886  0.23218  1.0000
  H   H999      1.0  0.79641  0.35451  0.20436  1.0000
  H   H1000     1.0  0.86520  0.36212  0.12226  1.0000
  H   H1001     1.0  0.69194  0.29633  0.00469  1.0000
  H   H1002     1.0  0.91752  0.14493  0.16538  1.0000
  C   C834      1.0  0.63443  0.30096  0.99516  1.0000
  C   C835      1.0  0.80164  0.33912  0.21386  1.0000
  H   H1003     1.0  0.64617  0.44537  0.18765  1.0000
  H   H1004     1.0  0.76486  0.07919  0.21352  1.0000
  H   H1005     1.0  0.88167  0.21781  0.24167  1.0000
  C   C836      1.0  0.97413  0.27469  0.20504  1.0000
  H   H1006     1.0  0.95645  0.27549  0.19979  1.0000
  H   H1007     1.0  0.83148  0.23993  0.21104  1.0000
  C   C837      1.0  0.97544  0.13347  0.15556  1.0000
  C   C838      1.0  0.56344  0.41822  0.23057  1.0000
  C   C839      1.0  0.99232  0.28199  0.19134  1.0000
  C   C840      1.0  0.59546  0.43098  0.16786  1.0000
  C   C841      1.0  0.98068  0.41491  0.23192  1.0000
  H   H1008     1.0  0.58466  0.05809  0.19758  1.0000
  H   H1009     1.0  0.79473  0.41554  0.22317  1.0000
  H   H1010     1.0  0.52679  0.06059  0.22393  1.0000
  C   C842      1.0  0.79575  0.05195  0.23972  1.0000
  C   C843      1.0  0.65756  0.43755  0.00848  1.0000
  H   H1011     1.0  0.55048  0.41908  0.21813  1.0000
  N   N57       1.0  0.58535  0.40557  0.22400  1.0000
  C   C844      1.0  0.53895  0.04813  0.23232  1.0000
  C   C845      1.0  0.72852  0.07862  0.22148  1.0000
  H   H1012     1.0  0.71421  0.44084  0.02212  1.0000
  H   H1013     1.0  0.73596  0.38485  0.19858  1.0000
  C   C846      1.0  0.70606  0.03449  0.99916  1.0000
  C   C847      1.0  0.71114  0.07610  0.23739  1.0000
  S   S223      1.0  0.65458  0.02497  0.10732  1.0000
  H   H1014     1.0  0.55426  0.09595  0.00737  1.0000
  C   C848      1.0  0.53836  0.10193  0.01659  1.0000
  H   H1015     1.0  0.61839  0.29209  0.00105  1.0000
  Fe  Fe110     1.0  0.72086  0.02109  0.11721  1.0000
  C   C849      1.0  0.00759  0.07701  0.18368  1.0000
  H   H1016     1.0  0.65170  0.43080  0.02395  1.0000
  C   C850      1.0  0.67586  0.30380  0.99750  1.0000
  C   C851      1.0  0.00409  0.05293  0.23550  1.0000
  Fe  Fe111     1.0  0.67244  0.02202  0.13794  1.0000
  H   H1017     1.0  0.89761  0.04094  0.24281  1.0000
  H   H1018     1.0  0.60521  0.17861  0.02188  1.0000
  C   C852      1.0  0.52282  0.11892  0.04845  1.0000
  H   H1019     1.0  0.67487  0.32287  0.99988  1.0000
  H   H1020     1.0  0.93236  0.41861  0.24071  1.0000
  H   H1021     1.0  0.84242  0.25931  0.22846  1.0000
  H   H1022     1.0  0.72378  0.08174  0.20523  1.0000
  H   H1023     1.0  0.92493  0.08487  0.22821  1.0000
  H   H1024     1.0  0.58727  0.07996  0.22972  1.0000
  C   C853      1.0  0.95872  0.38013  0.23783  1.0000
  H   H1025     1.0  0.53780  0.15256  0.01601  1.0000
  C   C854      1.0  0.53309  0.35891  0.02318  1.0000
  H   H1026     1.0  0.53474  0.03018  0.22859  1.0000
  S   S224      1.0  0.65407  0.02000  0.17021  1.0000
  H   H1027     1.0  0.68083  0.08788  0.99634  1.0000
  H   H1028     1.0  0.81223  0.25167  0.23122  1.0000
  H   H1029     1.0  0.56401  0.37021  0.00572  1.0000
  C   C855      1.0  0.81650  0.29972  0.23800  1.0000
  H   H1030     1.0  0.96011  0.44607  0.24112  1.0000
  C   C856      1.0  0.60029  0.40335  0.24247  1.0000
  H   H1031     1.0  0.63593  0.41382  0.99411  1.0000
  H   H1032     1.0  0.78715  0.03507  0.24285  1.0000
  C   C857      1.0  0.68315  0.04188  0.99377  1.0000
  H   H1033     1.0  0.61110  0.19097  0.25328  1.0000
  H   H1034     1.0  0.56610  0.04268  0.26908  1.0000
  H   H1035     1.0  0.81328  0.32200  0.26427  1.0000
  Fe  Fe112     1.0  0.79942  0.03901  0.38768  1.0000
  C   C858      1.0  0.76724  0.40640  0.24608  1.0000
  S   S225      1.0  0.79953  0.06559  0.41258  1.0000
  C   C859      1.0  0.75879  0.07244  0.24741  1.0000
  C   C860      1.0  0.79486  0.09288  0.24597  1.0000
  H   H1036     1.0  0.95793  0.19208  0.47248  1.0000
  C   C861      1.0  0.81124  0.32080  0.24751  1.0000
  S   S226      1.0  0.78834  0.04761  0.35452  1.0000
  Fe  Fe113     1.0  0.63914  0.33405  0.30404  1.0000
  S   S227      1.0  0.65852  0.32387  0.27442  1.0000
  S   S228      1.0  0.66055  0.32984  0.33306  1.0000
  Fe  Fe114     1.0  0.59438  0.34779  0.28120  1.0000
  H   H1037     1.0  0.92885  0.09285  0.25461  1.0000
  S   S229      1.0  0.55847  0.36561  0.27812  1.0000
  Fe  Fe115     1.0  0.62560  0.30713  0.26713  1.0000
  H   H1038     1.0  0.86302  0.06306  0.25391  1.0000
  Fe  Fe116     1.0  0.64254  0.35666  0.26009  1.0000
  H   H1039     1.0  0.70664  0.09092  0.36152  1.0000
  S   S230      1.0  0.60693  0.31447  0.29810  1.0000
  S   S231      1.0  0.62480  0.36802  0.29017  1.0000
  Fe  Fe117     1.0  0.63164  0.10647  0.28968  1.0000
  S   S232      1.0  0.63116  0.13674  0.26561  1.0000
  S   S233      1.0  0.66795  0.10380  0.30307  1.0000
  Fe  Fe118     1.0  0.57926  0.09871  0.28363  1.0000
  S   S234      1.0  0.57625  0.12810  0.25933  1.0000
  S   S235      1.0  0.54635  0.07979  0.29443  1.0000
  H   H1040     1.0  0.78607  0.10749  0.25439  1.0000
  C   C862      1.0  0.88193  0.46127  0.42930  1.0000
  Fe  Fe119     1.0  0.59686  0.14758  0.28094  1.0000
  S   S236      1.0  0.58467  0.18242  0.29286  1.0000
  S   S237      1.0  0.61291  0.08296  0.26947  1.0000
  S   S238      1.0  0.59829  0.11898  0.30627  1.0000
  Fe  Fe120     1.0  0.80215  0.42066  0.33085  1.0000
  S   S239      1.0  0.77441  0.44564  0.34322  1.0000
  S   S240      1.0  0.80575  0.41625  0.29571  1.0000
  Fe  Fe121     1.0  0.80976  0.39853  0.37447  1.0000
  S   S241      1.0  0.78157  0.42072  0.38988  1.0000
  S   S242      1.0  0.83514  0.37308  0.39034  1.0000
  Fe  Fe122     1.0  0.76072  0.41439  0.36167  1.0000
  S   S243      1.0  0.72166  0.41071  0.35940  1.0000
  Fe  Fe123     1.0  0.79771  0.45009  0.37010  1.0000
  S   S244      1.0  0.79966  0.48340  0.38784  1.0000
  S   S245      1.0  0.78754  0.38934  0.34828  1.0000
  S   S246      1.0  0.82692  0.42795  0.35582  1.0000
  H   H1041     1.0  0.68070  0.20278  0.34479  1.0000
  C   C863      1.0  0.87307  0.38619  0.26497  1.0000
  Fe  Fe124     1.0  0.81331  0.01801  0.34623  1.0000
  C   C864      1.0  0.83135  0.39393  0.26507  1.0000
  C   C865      1.0  0.83179  0.40432  0.28448  1.0000
  C   C866      1.0  0.85290  0.40548  0.29423  1.0000
  C   C867      1.0  0.87356  0.39661  0.28437  1.0000
  C   C868      1.0  0.95528  0.18715  0.48957  1.0000
  N   N58       1.0  0.92991  0.05577  0.25027  1.0000
  H   H1042     1.0  0.85338  0.41373  0.30907  1.0000
  H   H1043     1.0  0.99249  0.46627  0.25355  1.0000
  S   S247      1.0  0.72376  0.02339  0.35471  1.0000
  C   C869      1.0  0.61512  0.24862  0.26197  1.0000
  C   C870      1.0  0.60270  0.24915  0.28141  1.0000
  C   C871      1.0  0.59316  0.22876  0.29061  1.0000
  C   C872      1.0  0.59625  0.20773  0.28056  1.0000
  C   C873      1.0  0.60873  0.20713  0.26116  1.0000
  H   H1044     1.0  0.75285  0.09217  0.41917  1.0000
  H   H1045     1.0  0.60043  0.26523  0.28936  1.0000
  H   H1046     1.0  0.58356  0.22925  0.30567  1.0000
  H   H1047     1.0  0.66599  0.09870  0.35482  1.0000
  C   C874      1.0  0.52921  0.14894  0.29719  1.0000
  C   C875      1.0  0.70965  0.38656  0.34851  1.0000
  C   C876      1.0  0.69456  0.39042  0.33187  1.0000
  C   C877      1.0  0.68063  0.37258  0.32590  1.0000
  C   C878      1.0  0.68121  0.35089  0.33700  1.0000
  C   C879      1.0  0.69694  0.34676  0.35311  1.0000
  C   C880      1.0  0.71121  0.36446  0.35875  1.0000
  H   H1048     1.0  0.69285  0.40762  0.32425  1.0000
  H   H1049     1.0  0.66852  0.37602  0.31354  1.0000
  H   H1050     1.0  0.69742  0.33010  0.36186  1.0000
  H   H1051     1.0  0.72234  0.36142  0.37194  1.0000
  C   C881      1.0  0.70906  0.04472  0.33841  1.0000
  C   C882      1.0  0.68492  0.04336  0.33648  1.0000
  C   C883      1.0  0.67220  0.06071  0.32487  1.0000
  C   C884      1.0  0.68347  0.07987  0.31535  1.0000
  C   C885      1.0  0.70769  0.08107  0.31697  1.0000
  C   C886      1.0  0.72050  0.06346  0.32820  1.0000
  H   H1052     1.0  0.71757  0.05248  0.42507  1.0000
  H   H1053     1.0  0.65358  0.05959  0.32386  1.0000
  H   H1054     1.0  0.71658  0.09582  0.30964  1.0000
  H   H1055     1.0  0.73908  0.06465  0.32940  1.0000
  C   C887      1.0  0.84282  0.04337  0.30262  1.0000
  C   C888      1.0  0.85172  0.04288  0.28170  1.0000
  C   C889      1.0  0.85658  0.06365  0.27004  1.0000
  C   C890      1.0  0.85318  0.08500  0.27937  1.0000
  C   C891      1.0  0.84457  0.08549  0.30038  1.0000
  C   C892      1.0  0.83918  0.06473  0.31194  1.0000
  H   H1056     1.0  0.56708  0.39748  0.32428  1.0000
  C   C893      1.0  0.92496  0.05003  0.27308  1.0000
  H   H1057     1.0  0.84197  0.10196  0.30772  1.0000
  H   H1058     1.0  0.83251  0.06522  0.32813  1.0000
  C   C894      1.0  0.83008  0.35898  0.46200  1.0000
  C   C895      1.0  0.85074  0.35373  0.45042  1.0000
  C   C896      1.0  0.85202  0.35802  0.42841  1.0000
  C   C897      1.0  0.83283  0.36797  0.41793  1.0000
  C   C898      1.0  0.81227  0.37355  0.42953  1.0000
  C   C899      1.0  0.81086  0.36890  0.45150  1.0000
  H   H1059     1.0  0.86563  0.34608  0.45840  1.0000
  H   H1060     1.0  0.86799  0.35367  0.41953  1.0000
  H   H1061     1.0  0.79733  0.38101  0.42156  1.0000
  C   C900      1.0  0.86528  0.07256  0.44923  1.0000
  C   C901      1.0  0.86604  0.05900  0.43151  1.0000
  C   C902      1.0  0.84601  0.05679  0.42012  1.0000
  C   C903      1.0  0.82509  0.06823  0.42633  1.0000
  C   C904      1.0  0.82436  0.08196  0.44393  1.0000
  C   C905      1.0  0.84439  0.08413  0.45536  1.0000
  H   H1062     1.0  0.88222  0.05021  0.42657  1.0000
  H   H1063     1.0  0.84686  0.04655  0.40635  1.0000
  H   H1064     1.0  0.80828  0.09101  0.44873  1.0000
  N   N59       1.0  0.85532  0.33626  0.33803  1.0000
  C   C906      1.0  0.86917  0.35732  0.33881  1.0000
  C   C907      1.0  0.83025  0.34346  0.33818  1.0000
  C   C908      1.0  0.85923  0.32164  0.35765  1.0000
  C   C909      1.0  0.86193  0.32428  0.31847  1.0000
  C   C910      1.0  0.87162  0.30111  0.31850  1.0000
  C   C911      1.0  0.85890  0.33596  0.29850  1.0000
  C   C912      1.0  0.87805  0.29064  0.29960  1.0000
  C   C913      1.0  0.86556  0.32540  0.27978  1.0000
  C   C914      1.0  0.87515  0.30280  0.28029  1.0000
  H   H1065     1.0  0.86546  0.37039  0.32578  1.0000
  H   H1066     1.0  0.86533  0.36639  0.35370  1.0000
  H   H1067     1.0  0.88818  0.35281  0.33774  1.0000
  H   H1068     1.0  0.82628  0.35703  0.32558  1.0000
  H   H1069     1.0  0.82427  0.35110  0.35332  1.0000
  H   H1070     1.0  0.81929  0.32838  0.33611  1.0000
  H   H1071     1.0  0.87795  0.31643  0.35906  1.0000
  H   H1072     1.0  0.85401  0.33120  0.37205  1.0000
  H   H1073     1.0  0.84872  0.30582  0.35849  1.0000
  H   H1074     1.0  0.87456  0.29075  0.33287  1.0000
  H   H1075     1.0  0.85167  0.35357  0.29722  1.0000
  H   H1076     1.0  0.88559  0.27304  0.29986  1.0000
  H   H1077     1.0  0.86367  0.33501  0.26479  1.0000
  H   H1078     1.0  0.88055  0.29478  0.26570  1.0000
  C   C915      1.0  0.65413  0.09413  0.38730  1.0000
  H   H1079     1.0  0.66920  0.27124  0.31730  1.0000
  C   C916      1.0  0.70169  0.08462  0.39583  1.0000
  H   H1080     1.0  0.54390  0.32784  0.30825  1.0000
  H   H1081     1.0  0.78045  0.07862  0.28488  1.0000
  H   H1082     1.0  0.93251  0.03251  0.27781  1.0000
  C   C917      1.0  0.54766  0.26157  0.25601  1.0000
  H   H1083     1.0  0.93201  0.06282  0.28328  1.0000
  C   C918      1.0  0.72845  0.05498  0.41029  1.0000
  C   C919      1.0  0.81863  0.44511  0.43845  1.0000
  N   N60       1.0  0.73283  0.39567  0.27105  1.0000
  C   C920      1.0  0.72364  0.37217  0.27612  1.0000
  C   C921      1.0  0.71307  0.41301  0.27090  1.0000
  H   H1084     1.0  0.91796  0.21275  0.47524  1.0000
  C   C922      1.0  0.52447  0.16640  0.28180  1.0000
  H   H1085     1.0  0.72437  0.09371  0.43143  1.0000
  C   C923      1.0  0.71715  0.07189  0.25825  1.0000
  H   H1086     1.0  0.76367  0.38903  0.28880  1.0000
  H   H1087     1.0  0.54697  0.14514  0.30165  1.0000
  C   C924      1.0  0.89563  0.48030  0.43179  1.0000
  C   C925      1.0  0.61803  0.22760  0.25184  1.0000
  H   H1088     1.0  0.70307  0.41277  0.28634  1.0000
  S   S248      1.0  0.61132  0.33916  0.24984  1.0000
  Fe  Fe125     1.0  0.76249  0.01976  0.36104  1.0000
  H   H1089     1.0  0.59167  0.39379  0.25619  1.0000
  C   C926      1.0  0.66127  0.24349  0.29787  1.0000
  H   H1090     1.0  0.75361  0.41916  0.28703  1.0000
  N   N61       1.0  0.84375  0.44138  0.43244  1.0000
  C   C927      1.0  0.84535  0.43514  0.41006  1.0000
  H   H1091     1.0  0.81360  0.09230  0.24972  1.0000
  C   C928      1.0  0.85776  0.46191  0.43508  1.0000
  C   C929      1.0  0.84827  0.48268  0.44380  1.0000
  S   S249      1.0  0.89052  0.07388  0.46369  1.0000
  H   H1092     1.0  0.86324  0.42956  0.40465  1.0000
  H   H1093     1.0  0.83418  0.42038  0.40738  1.0000
  H   H1094     1.0  0.83960  0.45014  0.39949  1.0000
  H   H1095     1.0  0.81512  0.39309  0.25742  1.0000
  S   S250      1.0  0.83615  0.01703  0.31637  1.0000
  C   C930      1.0  0.67476  0.16387  0.32924  1.0000
  H   H1096     1.0  0.73861  0.06750  0.37030  1.0000
  S   S251      1.0  0.82769  0.35355  0.48954  1.0000
  H   H1097     1.0  0.97275  0.10944  0.49057  1.0000
  H   H1098     1.0  0.72321  0.04204  0.39915  1.0000
  N   N62       1.0  0.63037  0.40329  0.36691  1.0000
  C   C931      1.0  0.64864  0.38880  0.37775  1.0000
  C   C932      1.0  0.64230  0.41977  0.35160  1.0000
  C   C933      1.0  0.61721  0.41672  0.38316  1.0000
  C   C934      1.0  0.61410  0.38958  0.35573  1.0000
  C   C935      1.0  0.59604  0.40101  0.34415  1.0000
  C   C936      1.0  0.61568  0.36487  0.35576  1.0000
  H   H1099     1.0  0.67594  0.02891  0.34427  1.0000
  H   H1100     1.0  0.99882  0.25833  0.48063  1.0000
  H   H1101     1.0  0.88000  0.51107  0.37806  1.0000
  H   H1102     1.0  0.65947  0.37851  0.36642  1.0000
  H   H1103     1.0  0.66098  0.39956  0.38558  1.0000
  H   H1104     1.0  0.64101  0.37660  0.39016  1.0000
  H   H1105     1.0  0.64997  0.41053  0.33784  1.0000
  H   H1106     1.0  0.65676  0.42842  0.35872  1.0000
  H   H1107     1.0  0.63033  0.43386  0.34537  1.0000
  H   H1108     1.0  0.60749  0.40491  0.39460  1.0000
  H   H1109     1.0  0.62900  0.42682  0.39223  1.0000
  H   H1110     1.0  0.60431  0.42947  0.37623  1.0000
  H   H1111     1.0  0.59379  0.41974  0.34332  1.0000
  H   H1112     1.0  0.62900  0.35454  0.36376  1.0000
  H   H1113     1.0  0.89041  0.44603  0.42272  1.0000
  H   H1114     1.0  0.84839  0.48467  0.37136  1.0000
  C   C937      1.0  0.82309  0.50149  0.39211  1.0000
  H   H1115     1.0  0.63595  0.09735  0.38396  1.0000
  H   H1116     1.0  0.79481  0.37292  0.46038  1.0000
  C   C938      1.0  0.84516  0.49843  0.38215  1.0000
  H   H1117     1.0  0.78074  0.04777  0.28017  1.0000
  H   H1118     1.0  0.95308  0.38420  0.25429  1.0000
  H   H1119     1.0  0.63936  0.15326  0.30870  1.0000
  H   H1120     1.0  0.88995  0.39783  0.29179  1.0000
  H   H1121     1.0  0.77662  0.41341  0.25843  1.0000
  C   C939      1.0  0.53101  0.35420  0.28594  1.0000
  C   C940      1.0  0.74789  0.40088  0.28841  1.0000
  H   H1122     1.0  0.81062  0.45974  0.42869  1.0000
  C   C941      1.0  0.74264  0.08034  0.38192  1.0000
  C   C942      1.0  0.67109  0.09493  0.37091  1.0000
  N   N63       1.0  0.72627  0.07901  0.40072  1.0000
  H   H1123     1.0  0.63476  0.17974  0.29345  1.0000
  H   H1124     1.0  0.81586  0.44871  0.45542  1.0000
  S   S252      1.0  0.85943  0.11128  0.26516  1.0000
  H   H1125     1.0  0.62986  0.17936  0.32145  1.0000
  C   C943      1.0  0.66055  0.08890  0.40792  1.0000
  H   H1126     1.0  0.64728  0.08815  0.42063  1.0000
  N   N64       1.0  0.78380  0.07052  0.25204  1.0000
  C   C944      1.0  0.69454  0.09032  0.37501  1.0000
  C   C945      1.0  0.66037  0.21943  0.29630  1.0000
  C   C946      1.0  0.64151  0.17239  0.30856  1.0000
  C   C947      1.0  0.68000  0.17094  0.29184  1.0000
  H   H1127     1.0  0.83003  0.48509  0.44829  1.0000
  H   H1128     1.0  0.70899  0.36838  0.26623  1.0000
  C   C948      1.0  0.68396  0.08424  0.41219  1.0000
  H   H1129     1.0  0.65380  0.21338  0.28202  1.0000
  H   H1130     1.0  0.68804  0.08000  0.42840  1.0000
  H   H1131     1.0  0.73865  0.39897  0.30421  1.0000
  C   C949      1.0  0.66742  0.20356  0.31289  1.0000
  H   H1132     1.0  0.76094  0.07617  0.38620  1.0000
  H   H1133     1.0  0.99590  0.34898  0.48161  1.0000
  H   H1134     1.0  0.65582  0.25527  0.28496  1.0000
  C   C950      1.0  0.73405  0.09539  0.41591  1.0000
  H   H1135     1.0  0.87090  0.41573  0.44070  1.0000
  H   H1136     1.0  0.67991  0.15175  0.29025  1.0000
  H   H1137     1.0  0.67308  0.17891  0.27697  1.0000
  N   N65       1.0  0.66607  0.17814  0.31085  1.0000
  H   H1138     1.0  0.69843  0.17584  0.29244  1.0000
  C   C951      1.0  0.88578  0.50037  0.44035  1.0000
  H   H1139     1.0  0.74246  0.09807  0.37405  1.0000
  H   H1140     1.0  0.73754  0.35836  0.27401  1.0000
  H   H1141     1.0  0.60204  0.33372  0.34475  1.0000
  H   H1142     1.0  0.85862  0.01846  0.45496  1.0000
  H   H1143     1.0  0.67382  0.14487  0.32695  1.0000
  C   C952      1.0  0.78793  0.06483  0.27467  1.0000
  Fe  Fe126     1.0  0.61083  0.11398  0.24648  1.0000
  C   C953      1.0  0.98167  0.25537  0.48784  1.0000
  H   H1144     1.0  0.00598  0.07744  0.25949  1.0000
  C   C954      1.0  0.85288  0.42142  0.44576  1.0000
  H   H1145     1.0  0.69333  0.16706  0.33169  1.0000
  C   C955      1.0  0.67518  0.21334  0.33126  1.0000
  C   C956      1.0  0.86304  0.51350  0.38592  1.0000
  H   H1146     1.0  0.74671  0.05041  0.41448  1.0000
  S   S253      1.0  0.89909  0.37491  0.25319  1.0000
  H   H1147     1.0  0.66407  0.16728  0.34390  1.0000
  H   H1148     1.0  0.85447  0.02637  0.27443  1.0000
  H   H1149     1.0  0.80680  0.06341  0.27759  1.0000
  C   C957      1.0  0.97064  0.06752  0.25609  1.0000
  H   H1150     1.0  0.73183  0.11373  0.40964  1.0000
  H   H1151     1.0  0.70056  0.40969  0.25873  1.0000
  H   H1152     1.0  0.53467  0.04998  0.24944  1.0000
  C   C958      1.0  0.57815  0.03230  0.25955  1.0000
  C   C959      1.0  0.52863  0.33601  0.30132  1.0000
  H   H1153     1.0  0.80856  0.42948  0.43590  1.0000
  H   H1154     1.0  0.68159  0.24466  0.34688  1.0000
  Fe  Fe127     1.0  0.89087  0.09679  0.49152  1.0000
  H   H1155     1.0  0.96411  0.07893  0.26815  1.0000
  C   C960      1.0  0.74058  0.06998  0.26331  1.0000
  H   H1156     1.0  0.84215  0.40594  0.44510  1.0000
  H   H1157     1.0  0.84367  0.09482  0.46884  1.0000
  H   H1158     1.0  0.74388  0.06644  0.27977  1.0000
  H   H1159     1.0  0.71926  0.43093  0.26738  1.0000
  C   C961      1.0  0.58062  0.38849  0.33326  1.0000
  C   C962      1.0  0.67581  0.23748  0.33271  1.0000
  C   C963      1.0  0.52362  0.25857  0.25652  1.0000
  H   H1160     1.0  0.85304  0.42578  0.46260  1.0000
  H   H1161     1.0  0.90589  0.05003  0.27714  1.0000
  C   C964      1.0  0.74505  0.39661  0.24994  1.0000
  C   C965      1.0  0.92101  0.07984  0.24514  1.0000
  H   H1162     1.0  0.98461  0.21909  0.48369  1.0000
  H   H1163     1.0  0.71645  0.37022  0.29268  1.0000
  C   C966      1.0  0.66886  0.25252  0.31607  1.0000
  H   H1164     1.0  0.53872  0.17613  0.27443  1.0000
  S   S254      1.0  0.90341  0.13343  0.49046  1.0000
  H   H1165     1.0  0.55975  0.24656  0.25605  1.0000
  H   H1166     1.0  0.53158  0.10519  0.25576  1.0000
  C   C967      1.0  0.99464  0.06685  0.25125  1.0000
  H   H1167     1.0  0.57084  0.35471  0.32496  1.0000
  C   C968      1.0  0.58268  0.36431  0.33361  1.0000
  C   C969      1.0  0.60017  0.35255  0.34481  1.0000
  C   C970      1.0  0.59301  0.01632  0.27014  1.0000
  H   H1168     1.0  0.60438  0.42063  0.24799  1.0000
  C   C971      1.0  0.86223  0.50148  0.44650  1.0000
  H   H1169     1.0  0.90183  0.08179  0.24822  1.0000
  C   C972      1.0  0.51697  0.30042  0.25603  1.0000
  H   H1170     1.0  0.70352  0.06997  0.27060  1.0000
  H   H1171     1.0  0.82257  0.28535  0.24819  1.0000
  C   C973      1.0  0.85190  0.38471  0.25540  1.0000
  H   H1172     1.0  0.01225  0.10163  0.47405  1.0000
  H   H1173     1.0  0.00403  0.25956  0.24848  1.0000
  C   C974      1.0  0.97320  0.23284  0.48962  1.0000
  C   C975      1.0  0.91738  0.20581  0.49194  1.0000
  C   C976      1.0  0.55633  0.28380  0.25551  1.0000
  C   C977      1.0  0.01017  0.11247  0.48742  1.0000
  S   S255      1.0  0.62759  0.27373  0.25009  1.0000
  C   C978      1.0  0.99557  0.44918  0.24738  1.0000
  H   H1174     1.0  0.54786  0.32046  0.25536  1.0000
  H   H1175     1.0  0.91394  0.47964  0.42688  1.0000
  H   H1176     1.0  0.94692  0.16997  0.49075  1.0000
  C   C979      1.0  0.51864  0.08624  0.28371  1.0000
  H   H1177     1.0  0.82253  0.01552  0.43833  1.0000
  H   H1178     1.0  0.56496  0.07789  0.25029  1.0000
  H   H1179     1.0  0.57499  0.28600  0.25513  1.0000
  C   C980      1.0  0.54102  0.30318  0.25555  1.0000
  H   H1180     1.0  0.90988  0.18824  0.49249  1.0000
  H   H1181     1.0  0.55490  0.40953  0.24490  1.0000
  H   H1182     1.0  0.89631  0.51533  0.44179  1.0000
  C   C981      1.0  0.51639  0.09857  0.26428  1.0000
  H   H1183     1.0  0.51822  0.24085  0.25696  1.0000
  C   C982      1.0  0.95534  0.05420  0.24524  1.0000
  H   H1184     1.0  0.81435  0.04922  0.24368  1.0000
  S   S256      1.0  0.80727  0.46810  0.57864  1.0000
  H   H1185     1.0  0.86697  0.48359  0.58712  1.0000
  S   S257      1.0  0.85941  0.10423  0.51276  1.0000
  C   C983      1.0  0.84363  0.51180  0.55517  1.0000
  Fe  Fe128     1.0  0.92382  0.12131  0.51848  1.0000
  S   S258      1.0  0.89488  0.12983  0.54217  1.0000
  S   S259      1.0  0.95742  0.13744  0.52621  1.0000
  Fe  Fe129     1.0  0.88306  0.09355  0.53895  1.0000
  S   S260      1.0  0.87521  0.07081  0.56861  1.0000
  Fe  Fe130     1.0  0.87398  0.13993  0.51422  1.0000
  H   H1186     1.0  0.96612  0.30191  0.55510  1.0000
  S   S261      1.0  0.91396  0.08405  0.51774  1.0000
  H   H1187     1.0  0.74705  0.37058  0.53698  1.0000
  Fe  Fe131     1.0  0.87896  0.35445  0.54847  1.0000
  S   S262      1.0  0.88433  0.36965  0.51542  1.0000
  S   S263      1.0  0.87187  0.37581  0.57742  1.0000
  Fe  Fe132     1.0  0.88365  0.30359  0.53420  1.0000
  H   H1188     1.0  0.95613  0.19416  0.53011  1.0000
  S   S264      1.0  0.88885  0.26610  0.54721  1.0000
  Fe  Fe133     1.0  0.91243  0.34143  0.51177  1.0000
  C   C984      1.0  0.88909  0.45568  0.57666  1.0000
  H   H1189     1.0  0.79864  0.03919  0.55730  1.0000
  C   C985      1.0  0.83551  0.01933  0.59492  1.0000
  S   S265      1.0  0.90904  0.32824  0.54553  1.0000
  S   S266      1.0  0.85324  0.32848  0.54041  1.0000
  C   C986      1.0  0.99433  0.34981  0.49858  1.0000
  H   H1190     1.0  0.80509  0.34361  0.53542  1.0000
  C   C987      1.0  0.86214  0.19932  0.52194  1.0000
  C   C988      1.0  0.87699  0.19836  0.53874  1.0000
  C   C989      1.0  0.88430  0.21904  0.54666  1.0000
  C   C990      1.0  0.87753  0.24088  0.53747  1.0000
  C   C991      1.0  0.86276  0.24189  0.52060  1.0000
  C   C992      1.0  0.85483  0.22118  0.51308  1.0000
  H   H1191     1.0  0.88258  0.18171  0.54585  1.0000
  H   H1192     1.0  0.89555  0.21812  0.55985  1.0000
  H   H1193     1.0  0.85737  0.25860  0.51341  1.0000
  H   H1194     1.0  0.91109  0.42936  0.56224  1.0000
  C   C993      1.0  0.81412  0.03768  0.56632  1.0000
  C   C994      1.0  0.00461  0.14047  0.52188  1.0000
  C   C995      1.0  0.98500  0.13083  0.51409  1.0000
  H   H1195     1.0  0.97251  0.18374  0.49663  1.0000
  H   H1196     1.0  0.85207  0.05597  0.49507  1.0000
  H   H1197     1.0  0.82141  0.36116  0.56423  1.0000
  H   H1198     1.0  0.00258  0.15132  0.53525  1.0000
  H   H1199     1.0  0.91787  0.45300  0.52898  1.0000
  S   S267      1.0  0.77828  0.49444  0.63439  1.0000
  C   C996      1.0  0.99033  0.35198  0.54234  1.0000
  C   C997      1.0  0.97030  0.35033  0.53086  1.0000
  C   C998      1.0  0.97221  0.34898  0.50896  1.0000
  H   H1200     1.0  0.79104  0.42058  0.56272  1.0000
  C   C999      1.0  0.89620  0.48230  0.53896  1.0000
  H   H1201     1.0  0.98867  0.35260  0.55933  1.0000
  H   H1202     1.0  0.95340  0.35009  0.53900  1.0000
  H   H1203     1.0  0.80256  0.39150  0.51463  1.0000
  H   H1204     1.0  0.81437  0.40665  0.53511  1.0000
  C   C1000     1.0  0.82809  0.44451  0.57894  1.0000
  C   C1001     1.0  0.83427  0.43248  0.59768  1.0000
  C   C1002     1.0  0.84831  0.41183  0.59698  1.0000
  C   C1003     1.0  0.85634  0.40306  0.57760  1.0000
  C   C1004     1.0  0.85102  0.41567  0.55892  1.0000
  C   C1005     1.0  0.83688  0.43623  0.55960  1.0000
  H   H1205     1.0  0.82754  0.43857  0.61268  1.0000
  H   H1206     1.0  0.85246  0.40225  0.61154  1.0000
  H   H1207     1.0  0.85750  0.40936  0.54394  1.0000
  H   H1208     1.0  0.83235  0.44554  0.54504  1.0000
  H   H1209     1.0  0.86894  0.03339  0.59937  1.0000
  C   C1006     1.0  0.83258  0.05262  0.56109  1.0000
  C   C1007     1.0  0.85243  0.05115  0.57301  1.0000
  C   C1008     1.0  0.85378  0.03445  0.58990  1.0000
  C   C1009     1.0  0.93874  0.19727  0.52334  1.0000
  H   H1210     1.0  0.83123  0.06556  0.54818  1.0000
  N   N66       1.0  0.94086  0.20509  0.50074  1.0000
  C   C1010     1.0  0.00613  0.24817  0.54200  1.0000
  H   H1211     1.0  0.93563  0.28509  0.51038  1.0000
  C   C1011     1.0  0.94609  0.27047  0.50447  1.0000
  C   C1012     1.0  0.98237  0.24564  0.54710  1.0000
  C   C1013     1.0  0.75503  0.42946  0.56179  1.0000
  N   N67       1.0  0.79376  0.37744  0.54597  1.0000
  S   S268      1.0  0.85209  0.17361  0.51202  1.0000
  S   S269      1.0  0.82838  0.51506  0.61616  1.0000
  C   C1014     1.0  0.75015  0.38673  0.54399  1.0000
  H   H1212     1.0  0.81150  0.38872  0.57272  1.0000
  C   C1015     1.0  0.78887  0.35460  0.53773  1.0000
  C   C1016     1.0  0.90681  0.46006  0.54159  1.0000
  H   H1213     1.0  0.79368  0.36426  0.57838  1.0000
  Fe  Fe134     1.0  0.86007  0.34246  0.50699  1.0000
  S   S270      1.0  0.88851  0.31548  0.50006  1.0000
  C   C1017     1.0  0.77272  0.39273  0.54944  1.0000
  H   H1214     1.0  0.76908  0.07907  0.59230  1.0000
  C   C1018     1.0  0.73072  0.40174  0.54750  1.0000
  H   H1215     1.0  0.77699  0.34451  0.54875  1.0000
  S   S271      1.0  0.94741  0.34579  0.49424  1.0000
  C   C1019     1.0  0.00104  0.28952  0.54665  1.0000
  C   C1020     1.0  0.87824  0.47777  0.57417  1.0000
  H   H1216     1.0  0.92889  0.21019  0.53297  1.0000
  H   H1217     1.0  0.78141  0.35665  0.52186  1.0000
  C   C1021     1.0  0.80549  0.37271  0.56615  1.0000
  N   N68       1.0  0.83159  0.12840  0.58259  1.0000
  C   C1022     1.0  0.81768  0.14996  0.58716  1.0000
  C   C1023     1.0  0.85553  0.13131  0.58952  1.0000
  C   C1024     1.0  0.83327  0.12605  0.55946  1.0000
  C   C1025     1.0  0.82015  0.10789  0.59292  1.0000
  C   C1026     1.0  0.83133  0.09221  0.60766  1.0000
  C   C1027     1.0  0.79721  0.10276  0.58788  1.0000
  C   C1028     1.0  0.82015  0.07271  0.61667  1.0000
  C   C1029     1.0  0.78632  0.08307  0.59682  1.0000
  C   C1030     1.0  0.79779  0.06805  0.61115  1.0000
  H   H1218     1.0  0.81533  0.15192  0.60448  1.0000
  H   H1219     1.0  0.82622  0.16575  0.58003  1.0000
  H   H1220     1.0  0.80012  0.15023  0.58065  1.0000
  H   H1221     1.0  0.86363  0.14687  0.58149  1.0000
  H   H1222     1.0  0.86731  0.11613  0.58561  1.0000
  H   H1223     1.0  0.85561  0.13358  0.60678  1.0000
  H   H1224     1.0  0.84267  0.14063  0.55104  1.0000
  H   H1225     1.0  0.84272  0.10944  0.55564  1.0000
  H   H1226     1.0  0.81600  0.12604  0.55245  1.0000
  H   H1227     1.0  0.84904  0.09407  0.61196  1.0000
  H   H1228     1.0  0.78773  0.11367  0.57660  1.0000
  H   H1229     1.0  0.82927  0.06056  0.62734  1.0000
  H   H1230     1.0  0.78961  0.05237  0.61753  1.0000
  H   H1231     1.0  0.92953  0.18062  0.52570  1.0000
  H   H1232     1.0  0.94952  0.26300  0.55547  1.0000
  C   C1031     1.0  0.81006  0.38918  0.53046  1.0000
  C   C1032     1.0  0.97732  0.28686  0.55149  1.0000
  H   H1233     1.0  0.75707  0.44605  0.56870  1.0000
  H   H1234     1.0  0.82684  0.37896  0.52851  1.0000
  C   C1033     1.0  0.85226  0.03949  0.50418  1.0000
  Fe  Fe135     1.0  0.80006  0.49465  0.60381  1.0000
  H   H1235     1.0  0.88612  0.44516  0.59116  1.0000
  C   C1034     1.0  0.90317  0.44674  0.56035  1.0000
  H   H1236     1.0  0.83792  0.49901  0.54418  1.0000
  C   C1035     1.0  0.87339  0.02816  0.50873  1.0000
  C   C1036     1.0  0.73315  0.42302  0.55642  1.0000
  C   C1037     1.0  0.77450  0.41463  0.55834  1.0000
  C   C1038     1.0  0.96799  0.26495  0.55174  1.0000
  H   H1237     1.0  0.71808  0.43460  0.55916  1.0000
  H   H1238     1.0  0.97503  0.22861  0.54746  1.0000
  H   H1239     1.0  0.83805  0.50541  0.57134  1.0000
  H   H1240     1.0  0.89977  0.49164  0.52404  1.0000
  H   H1241     1.0  0.88952  0.03605  0.50310  1.0000
  H   H1242     1.0  0.00755  0.30675  0.54716  1.0000
  C   C1039     1.0  0.88138  0.49177  0.55521  1.0000
  H   H1243     1.0  0.84322  0.22211  0.50016  1.0000
  H   H1244     1.0  0.71365  0.39684  0.54329  1.0000
  H   H1245     1.0  0.90451  0.21675  0.50090  1.0000
  C   C1040     1.0  0.01246  0.35236  0.53206  1.0000
  C   C1041     1.0  0.81557  0.02089  0.58318  1.0000
  S   S272      1.0  0.81797  0.51334  0.67875  1.0000
  C   C1042     1.0  0.83146  0.02973  0.51151  1.0000
  C   C1043     1.0  0.95060  0.22858  0.49874  1.0000
  H   H1246     1.0  0.92055  0.24622  0.51423  1.0000
  C   C1044     1.0  0.93753  0.24807  0.50646  1.0000
  C   C1045     1.0  0.98779  0.11686  0.49676  1.0000
  H   H1247     1.0  0.81507  0.03889  0.50824  1.0000
  N   N69       1.0  0.86909  0.51483  0.55282  1.0000
  C   C1046     1.0  0.96809  0.27415  0.49514  1.0000
  C   C1047     1.0  0.01442  0.35158  0.51008  1.0000
  H   H1248     1.0  0.97452  0.29165  0.49370  1.0000
  Fe  Fe136     1.0  0.62600  0.11243  0.93610  1.0000
  S   S273      1.0  0.59716  0.08990  0.94837  1.0000
  S   S274      1.0  0.65459  0.09794  0.91381  1.0000
  Fe  Fe137     1.0  0.60665  0.15436  0.96059  1.0000
  S   S275      1.0  0.57647  0.13398  0.97461  1.0000
  S   S276      1.0  0.60651  0.19029  0.97415  1.0000
  H   H1249     1.0  0.66748  0.22686  0.96690  1.0000
  H   H1250     1.0  0.60748  0.10394  0.87907  1.0000
  Fe  Fe138     1.0  0.57358  0.12129  0.94232  1.0000
  S   S277      1.0  0.54048  0.11719  0.92534  1.0000
  S   S278      1.0  0.63332  0.12543  0.96784  1.0000
  S   S279      1.0  0.60207  0.14333  0.92760  1.0000
  Fe  Fe139     1.0  0.62584  0.32531  0.94263  1.0000
  S   S280      1.0  0.59594  0.33528  0.96490  1.0000
  S   S281      1.0  0.63701  0.28859  0.93342  1.0000
  Fe  Fe140     1.0  0.64095  0.37619  0.93514  1.0000
  S   S282      1.0  0.61188  0.38948  0.95663  1.0000
  S   S283      1.0  0.67023  0.40025  0.92479  1.0000
  H   H1251     1.0  0.69572  0.03125  0.88135  1.0000
  H   H1252     1.0  0.52723  0.12412  0.96934  1.0000
  Fe  Fe141     1.0  0.58948  0.36497  0.94119  1.0000
  S   S284      1.0  0.55402  0.37909  0.93155  1.0000
  S   S285      1.0  0.65148  0.34672  0.95789  1.0000
  S   S286      1.0  0.61798  0.35384  0.91780  1.0000
  S   S287      1.0  0.67226  0.48041  0.85193  1.0000
  C   C1048     1.0  0.52978  0.36146  0.93642  1.0000
  C   C1049     1.0  0.53311  0.37833  0.98864  1.0000
  H   H1253     1.0  0.57905  0.05695  0.91268  1.0000
  H   H1254     1.0  0.54907  0.33232  0.95050  1.0000
  C   C1050     1.0  0.66918  0.42327  0.90525  1.0000
  C   C1051     1.0  0.68617  0.44012  0.90479  1.0000
  C   C1052     1.0  0.68717  0.45779  0.88863  1.0000
  C   C1053     1.0  0.67119  0.45874  0.87273  1.0000
  C   C1054     1.0  0.65403  0.44205  0.87329  1.0000
  C   C1055     1.0  0.65293  0.42442  0.88956  1.0000
  H   H1255     1.0  0.69899  0.43914  0.91671  1.0000
  H   H1256     1.0  0.70059  0.47037  0.88829  1.0000
  H   H1257     1.0  0.64163  0.44264  0.86100  1.0000
  H   H1258     1.0  0.63992  0.41140  0.88964  1.0000
  H   H1259     1.0  0.68708  0.39924  0.85003  1.0000
  H   H1260     1.0  0.58389  0.10584  0.89817  1.0000
  C   C1056     1.0  0.62654  0.49619  0.93028  1.0000
  C   C1057     1.0  0.68908  0.08171  0.98130  1.0000
  H   H1261     1.0  0.68506  0.03447  0.95205  1.0000
  C   C1058     1.0  0.61267  0.21746  0.96090  1.0000
  C   C1059     1.0  0.62704  0.21907  0.94252  1.0000
  C   C1060     1.0  0.63378  0.24104  0.93399  1.0000
  C   C1061     1.0  0.62580  0.26164  0.94339  1.0000
  C   C1062     1.0  0.61050  0.26005  0.96117  1.0000
  C   C1063     1.0  0.60433  0.23807  0.97008  1.0000
  H   H1262     1.0  0.63366  0.20339  0.93532  1.0000
  H   H1263     1.0  0.64554  0.24207  0.92018  1.0000
  H   H1264     1.0  0.60375  0.27570  0.96828  1.0000
  Fe  Fe142     1.0  0.62106  0.35888  0.97822  1.0000
  H   H1265     1.0  0.63560  0.50542  0.88698  1.0000
  C   C1064     1.0  0.67687  0.06056  0.89507  1.0000
  C   C1065     1.0  0.65880  0.06789  0.90919  1.0000
  C   C1066     1.0  0.64530  0.05112  0.92011  1.0000
  H   H1266     1.0  0.68872  0.06416  0.94282  1.0000
  H   H1267     1.0  0.60896  0.08708  0.90339  1.0000
  H   H1268     1.0  0.68742  0.07338  0.88651  1.0000
  H   H1269     1.0  0.63113  0.05640  0.93076  1.0000
  N   N70       1.0  0.74687  0.45044  0.83303  1.0000
  C   C1067     1.0  0.76671  0.46117  0.84242  1.0000
  C   C1068     1.0  0.75605  0.43885  0.81391  1.0000
  C   C1069     1.0  0.73022  0.46960  0.82659  1.0000
  C   C1070     1.0  0.73490  0.43327  0.84754  1.0000
  C   C1071     1.0  0.71451  0.42286  0.84144  1.0000
  C   C1072     1.0  0.74309  0.42609  0.86774  1.0000
  C   C1073     1.0  0.70299  0.40647  0.85474  1.0000
  C   C1074     1.0  0.73146  0.40958  0.88086  1.0000
  C   C1075     1.0  0.71149  0.39978  0.87437  1.0000
  H   H1270     1.0  0.78076  0.44805  0.84645  1.0000
  C   C1076     1.0  0.59702  0.09347  0.89097  1.0000
  H   H1271     1.0  0.76092  0.47044  0.85680  1.0000
  H   H1272     1.0  0.74194  0.43179  0.80511  1.0000
  H   H1273     1.0  0.76833  0.42404  0.81811  1.0000
  H   H1274     1.0  0.76552  0.45115  0.80273  1.0000
  H   H1275     1.0  0.72111  0.47699  0.84065  1.0000
  H   H1276     1.0  0.73905  0.48404  0.81741  1.0000
  H   H1277     1.0  0.71648  0.46389  0.81658  1.0000
  H   H1278     1.0  0.70710  0.42753  0.82644  1.0000
  H   H1279     1.0  0.75828  0.43311  0.87390  1.0000
  C   C1077     1.0  0.60471  0.03281  0.88107  1.0000
  H   H1280     1.0  0.64608  0.04781  0.96793  1.0000
  H   H1281     1.0  0.73762  0.40462  0.89638  1.0000
  C   C1078     1.0  0.67150  0.45171  0.96719  1.0000
  H   H1282     1.0  0.70220  0.38744  0.88485  1.0000
  C   C1079     1.0  0.69156  0.05142  0.95640  1.0000
  C   C1080     1.0  0.61447  0.49763  0.95028  1.0000
  C   C1081     1.0  0.64829  0.42752  0.99139  1.0000
  H   H1283     1.0  0.65254  0.07655  0.95781  1.0000
  H   H1284     1.0  0.62236  0.08196  0.85321  1.0000
  C   C1082     1.0  0.57190  0.08292  0.86415  1.0000
  H   H1285     1.0  0.58258  0.09246  0.85173  1.0000
  H   H1286     1.0  0.61831  0.43824  0.92404  1.0000
  H   H1287     1.0  0.71071  0.04940  0.95752  1.0000
  C   C1083     1.0  0.60404  0.05678  0.87421  1.0000
  H   H1288     1.0  0.77498  0.47442  0.83132  1.0000
  H   H1289     1.0  0.59314  0.23702  0.98425  1.0000
  N   N71       1.0  0.58592  0.07374  0.88194  1.0000
  H   H1290     1.0  0.67802  0.30232  0.98014  1.0000
  H   H1291     1.0  0.70818  0.08023  0.98319  1.0000
  H   H1292     1.0  0.69358  0.47501  0.98054  1.0000
  C   C1084     1.0  0.68164  0.03668  0.89212  1.0000
  H   H1293     1.0  0.68593  0.09561  0.96871  1.0000
  C   C1085     1.0  0.63896  0.04841  0.85159  1.0000
  H   H1294     1.0  0.64865  0.42614  0.95769  1.0000
  H   H1295     1.0  0.55642  0.07690  0.90420  1.0000
  C   C1086     1.0  0.60390  0.47823  0.96023  1.0000
  C   C1087     1.0  0.62787  0.47412  0.92131  1.0000
  H   H1296     1.0  0.63718  0.47157  0.90639  1.0000
  H   H1297     1.0  0.55774  0.09538  0.86953  1.0000
  H   H1298     1.0  0.66593  0.26857  0.97093  1.0000
  C   C1088     1.0  0.65037  0.02732  0.91754  1.0000
  C   C1089     1.0  0.61714  0.45490  0.93132  1.0000
  H   H1299     1.0  0.61283  0.51355  0.95852  1.0000
  H   H1300     1.0  0.66834  0.49636  0.90862  1.0000
  H   H1301     1.0  0.59467  0.47967  0.97542  1.0000
  C   C1090     1.0  0.62204  0.01731  0.87330  1.0000
  C   C1091     1.0  0.62167  0.06405  0.85914  1.0000
  C   C1092     1.0  0.56965  0.06367  0.89856  1.0000
  N   N72       1.0  0.67951  0.05934  0.97610  1.0000
  H   H1302     1.0  0.63676  0.29822  0.97799  1.0000
  H   H1303     1.0  0.55964  0.04949  0.89262  1.0000
  H   H1304     1.0  0.56366  0.06857  0.85658  1.0000
  Fe  Fe143     1.0  0.60278  0.10467  0.97945  1.0000
  C   C1093     1.0  0.60505  0.45699  0.95068  1.0000
  H   H1305     1.0  0.65252  0.05443  0.84039  1.0000
  C   C1094     1.0  0.65464  0.06397  0.97159  1.0000
  C   C1095     1.0  0.65542  0.43442  0.97084  1.0000
  C   C1096     1.0  0.66384  0.23343  0.98243  1.0000
  C   C1097     1.0  0.53211  0.33926  0.94630  1.0000
  C   C1098     1.0  0.63912  0.02509  0.85864  1.0000
  H   H1306     1.0  0.67037  0.50916  0.93357  1.0000
  C   C1099     1.0  0.68081  0.46198  0.98416  1.0000
  C   C1100     1.0  0.66318  0.51186  0.91765  1.0000
  Fe  Fe144     1.0  0.69523  0.51128  0.85318  1.0000
  H   H1307     1.0  0.59671  0.44203  0.95836  1.0000
  H   H1308     1.0  0.72114  0.04130  0.99051  1.0000
  H   H1309     1.0  0.54263  0.38616  0.97508  1.0000
  C   C1101     1.0  0.66852  0.01995  0.90354  1.0000
  H   H1310     1.0  0.59226  0.02558  0.89260  1.0000
  H   H1311     1.0  0.67706  0.45676  0.95109  1.0000
  C   C1102     1.0  0.66311  0.25738  0.98499  1.0000
  H   H1312     1.0  0.64483  0.07193  0.98503  1.0000
  S   S288      1.0  0.72835  0.51126  0.87024  1.0000
  S   S289      1.0  0.66446  0.97470  0.07293  1.0000
  Fe  Fe145     1.0  0.57043  0.61318  0.00527  1.0000
  S   S290      1.0  0.58224  0.61214  0.03836  1.0000
  H   H1313     1.0  0.69220  0.54266  0.06857  1.0000
  S   S291      1.0  0.69678  0.99235  0.12827  1.0000
  S   S292      1.0  0.63615  0.61303  0.01787  1.0000
  H   H1314     1.0  0.51721  0.79753  0.01469  1.0000
  Fe  Fe146     1.0  0.60987  0.58587  0.02742  1.0000
  S   S293      1.0  0.61187  0.54982  0.04432  1.0000
  Fe  Fe147     1.0  0.60730  0.63937  0.02604  1.0000
  S   S294      1.0  0.61304  0.67150  0.04414  1.0000
  C   C1103     1.0  0.69170  0.63627  0.00245  1.0000
  N   N73       1.0  0.58156  0.89459  0.08575  1.0000
  H   H1315     1.0  0.56635  0.69917  0.05124  1.0000
  S   S295      1.0  0.64326  0.83773  0.00433  1.0000
  H   H1316     1.0  0.56881  0.93988  0.09393  1.0000
  Fe  Fe148     1.0  0.58136  0.84330  0.03128  1.0000
  S   S296      1.0  0.61022  0.82135  0.04567  1.0000
  S   S297      1.0  0.54684  0.84492  0.04976  1.0000
  Fe  Fe149     1.0  0.63252  0.85193  0.03594  1.0000
  S   S298      1.0  0.65750  0.86640  0.05824  1.0000
  Fe  Fe150     1.0  0.61796  0.80930  0.01290  1.0000
  H   H1317     1.0  0.57542  0.77647  0.02945  1.0000
  S   S299      1.0  0.60294  0.87442  0.02383  1.0000
  H   H1318     1.0  0.54506  0.52120  0.07431  1.0000
  H   H1319     1.0  0.68560  0.96951  0.99589  1.0000
  H   H1320     1.0  0.53948  0.84872  0.00481  1.0000
  C   C1104     1.0  0.61367  0.69997  0.03201  1.0000
  C   C1105     1.0  0.61812  0.71884  0.04414  1.0000
  C   C1106     1.0  0.61950  0.74156  0.03478  1.0000
  C   C1107     1.0  0.61680  0.74550  0.01311  1.0000
  H   H1321     1.0  0.62339  0.99444  0.22808  1.0000
  C   C1108     1.0  0.61009  0.70412  0.01052  1.0000
  H   H1322     1.0  0.62080  0.71582  0.06081  1.0000
  H   H1323     1.0  0.62339  0.75586  0.04419  1.0000
  H   H1324     1.0  0.56857  0.52548  0.05532  1.0000
  C   C1109     1.0  0.55682  0.70777  0.03848  1.0000
  C   C1110     1.0  0.66253  0.94438  0.06990  1.0000
  C   C1111     1.0  0.67639  0.92759  0.08069  1.0000
  C   C1112     1.0  0.67450  0.90376  0.07714  1.0000
  C   C1113     1.0  0.65888  0.89650  0.06271  1.0000
  C   C1114     1.0  0.64503  0.91334  0.05197  1.0000
  C   C1115     1.0  0.64690  0.93709  0.05552  1.0000
  H   H1325     1.0  0.68861  0.93294  0.09168  1.0000
  H   H1326     1.0  0.68537  0.89090  0.08548  1.0000
  H   H1327     1.0  0.63329  0.90815  0.04055  1.0000
  H   H1328     1.0  0.63629  0.94994  0.04693  1.0000
  H   H1329     1.0  0.56529  0.74120  0.04697  1.0000
  C   C1116     1.0  0.63603  0.53554  0.05646  1.0000
  C   C1117     1.0  0.65729  0.54617  0.05751  1.0000
  H   H1330     1.0  0.56439  0.88218  0.11474  1.0000
  H   H1331     1.0  0.64740  0.91812  0.11871  1.0000
  H   H1332     1.0  0.65934  0.56365  0.05075  1.0000
  H   H1333     1.0  0.68636  0.64086  0.01825  1.0000
  C   C1118     1.0  0.61194  0.72669  0.00109  1.0000
  H   H1334     1.0  0.54856  0.90519  0.10076  1.0000
  C   C1119     1.0  0.53461  0.70527  0.00762  1.0000
  H   H1335     1.0  0.59909  0.86288  0.09756  1.0000
  H   H1336     1.0  0.68429  0.68147  0.01641  1.0000
  H   H1337     1.0  0.56699  0.56812  0.06219  1.0000
  H   H1338     1.0  0.54287  0.54181  0.01784  1.0000
  H   H1339     1.0  0.55529  0.80087  0.02749  1.0000
  C   C1120     1.0  0.57485  0.90451  0.06475  1.0000
  H   H1340     1.0  0.65913  0.69791  0.00802  1.0000
  C   C1121     1.0  0.66819  0.68045  0.00758  1.0000
  C   C1122     1.0  0.59875  0.95105  0.10814  1.0000
  C   C1123     1.0  0.53333  0.72957  0.00501  1.0000
  H   H1341     1.0  0.54786  0.67555  0.02607  1.0000
  C   C1124     1.0  0.54642  0.69440  0.02429  1.0000
  H   H1342     1.0  0.56601  0.89160  0.05579  1.0000
  S   S300      1.0  0.59314  0.64227  0.99388  1.0000
  H   H1343     1.0  0.65632  0.66815  0.01641  1.0000
  H   H1344     1.0  0.60613  0.68991  0.00110  1.0000
  S   S301      1.0  0.59616  0.58533  0.99491  1.0000
  H   H1345     1.0  0.52674  0.69475  0.99648  1.0000
  H   H1346     1.0  0.58409  0.85993  0.07412  1.0000
  C   C1125     1.0  0.67586  0.53424  0.06765  1.0000
  Fe  Fe151     1.0  0.68064  0.99725  0.09651  1.0000
  H   H1347     1.0  0.54963  0.87647  0.09134  1.0000
  C   C1126     1.0  0.62087  0.94514  0.11516  1.0000
  C   C1127     1.0  0.59451  0.87212  0.08240  1.0000
  H   H1348     1.0  0.56242  0.91971  0.06580  1.0000
  H   H1349     1.0  0.62630  0.88909  0.10241  1.0000
  C   C1128     1.0  0.58591  0.93447  0.09904  1.0000
  N   N74       1.0  0.53896  0.54918  0.05085  1.0000
  H   H1350     1.0  0.56702  0.55541  0.02759  1.0000
  C   C1129     1.0  0.61054  0.00487  0.23688  1.0000
  H   H1351     1.0  0.63105  0.95815  0.12176  1.0000
  H   H1352     1.0  0.68370  0.88448  0.01252  1.0000
  C   C1130     1.0  0.68442  0.90298  0.00832  1.0000
  H   H1353     1.0  0.72766  0.01350  0.02027  1.0000
  H   H1354     1.0  0.70730  0.60385  0.01456  1.0000
  C   C1131     1.0  0.63008  0.92256  0.11337  1.0000
  C   C1132     1.0  0.52164  0.84399  0.03522  1.0000
  H   H1355     1.0  0.61075  0.87476  0.07250  1.0000
  H   H1356     1.0  0.59044  0.91024  0.05508  1.0000
  C   C1133     1.0  0.61761  0.90595  0.10394  1.0000
  H   H1357     1.0  0.65433  0.01022  0.03377  1.0000
  C   C1134     1.0  0.59514  0.91151  0.09624  1.0000
  N   N75       1.0  0.54326  0.76943  0.01533  1.0000
  C   C1135     1.0  0.54433  0.74375  0.01884  1.0000
  C   C1136     1.0  0.51868  0.77825  0.01721  1.0000
  C   C1137     1.0  0.54919  0.52599  0.05740  1.0000
  C   C1138     1.0  0.54775  0.56676  0.06437  1.0000
  C   C1139     1.0  0.52296  0.84596  0.01319  1.0000
  C   C1140     1.0  0.55652  0.78164  0.03056  1.0000
  H   H1358     1.0  0.59171  0.96868  0.10956  1.0000
  C   C1141     1.0  0.69385  0.91756  0.02211  1.0000
  S   S302      1.0  0.58755  0.82959  0.99922  1.0000
  C   C1142     1.0  0.69139  0.00987  0.02849  1.0000
  C   C1143     1.0  0.69393  0.94144  0.01734  1.0000
  C   C1144     1.0  0.56010  0.88944  0.09873  1.0000
  C   C1145     1.0  0.70376  0.61482  0.00056  1.0000
  H   H1359     1.0  0.54101  0.57241  0.02307  1.0000
  H   H1360     1.0  0.70055  0.95270  0.02860  1.0000
  C   C1146     1.0  0.55605  0.73207  0.03580  1.0000
  H   H1361     1.0  0.53961  0.58427  0.06062  1.0000
  H   H1362     1.0  0.52729  0.61871  0.03868  1.0000
  H   H1363     1.0  0.70056  0.91036  0.03684  1.0000
  C   C1147     1.0  0.54769  0.55493  0.02886  1.0000
  S   S303      1.0  0.62059  0.77310  0.99995  1.0000
  H   H1364     1.0  0.69451  0.99798  0.04198  1.0000
  C   C1148     1.0  0.68505  0.95087  0.99848  1.0000
  H   H1365     1.0  0.54429  0.56253  0.08144  1.0000
  H   H1366     1.0  0.54967  0.77841  0.04708  1.0000
  C   C1149     1.0  0.55299  0.77601  0.99387  1.0000
  S   S304      1.0  0.53408  0.61216  0.99367  1.0000
  S   S305      1.0  0.80099  0.95388  0.40593  1.0000
  Fe  Fe152     1.0  0.91119  0.58831  0.46697  1.0000
  S   S306      1.0  0.91311  0.59826  0.43246  1.0000
  H   H1367     1.0  0.96353  0.62581  0.45123  1.0000
  Fe  Fe153     1.0  0.85857  0.59438  0.46939  1.0000
  S   S307      1.0  0.85678  0.60588  0.43504  1.0000
  H   H1368     1.0  0.82452  0.68373  0.41468  1.0000
  Fe  Fe154     1.0  0.88230  0.57580  0.43014  1.0000
  S   S308      1.0  0.88208  0.55044  0.40374  1.0000
  Fe  Fe155     1.0  0.88751  0.62749  0.44069  1.0000
  S   S309      1.0  0.89932  0.66279  0.42682  1.0000
  S   S310      1.0  0.88265  0.56336  0.46420  1.0000
  S   S311      1.0  0.88699  0.61837  0.47549  1.0000
  Fe  Fe156     1.0  0.86538  0.83917  0.48057  1.0000
  S   S312      1.0  0.85355  0.83175  0.44872  1.0000
  H   H1369     1.0  0.88032  0.91450  0.46932  1.0000
  Fe  Fe157     1.0  0.91578  0.82543  0.46847  1.0000
  S   S313      1.0  0.90771  0.81714  0.43548  1.0000
  C   C1150     1.0  0.82285  0.92933  0.47529  1.0000
  Fe  Fe158     1.0  0.88514  0.85030  0.43628  1.0000
  S   S314      1.0  0.88403  0.87721  0.40881  1.0000
  Fe  Fe159     1.0  0.87671  0.79916  0.45089  1.0000
  S   S315      1.0  0.85960  0.76570  0.44314  1.0000
  S   S316      1.0  0.89567  0.85988  0.46812  1.0000
  C   C1151     1.0  0.98579  0.68889  0.46462  1.0000
  C   C1152     1.0  0.88896  0.69100  0.43383  1.0000
  C   C1153     1.0  0.90272  0.71019  0.42819  1.0000
  C   C1154     1.0  0.89459  0.73307  0.43216  1.0000
  C   C1155     1.0  0.87222  0.73709  0.44123  1.0000
  C   C1156     1.0  0.85848  0.71788  0.44688  1.0000
  C   C1157     1.0  0.86693  0.69493  0.44358  1.0000
  H   H1370     1.0  0.91967  0.70741  0.42039  1.0000
  H   H1371     1.0  0.90523  0.74766  0.42740  1.0000
  H   H1372     1.0  0.84108  0.72078  0.45372  1.0000
  H   H1373     1.0  0.85608  0.68038  0.44791  1.0000
  C   C1158     1.0  0.82135  0.99775  0.44611  1.0000
  C   C1159     1.0  0.97740  0.83740  0.44996  1.0000
  C   C1160     1.0  0.97686  0.82730  0.47049  1.0000
  C   C1161     1.0  0.60921  0.00265  0.25883  1.0000
  Fe  Fe160     1.0  0.79868  0.98631  0.38379  1.0000
  H   H1374     1.0  0.96136  0.84064  0.44192  1.0000
  H   H1375     1.0  0.78242  0.86184  0.41815  1.0000
  H   H1376     1.0  0.62088  0.99045  0.26710  1.0000
  C   C1162     1.0  0.97053  0.58064  0.47445  1.0000
  C   C1163     1.0  0.97350  0.57775  0.45280  1.0000
  C   C1164     1.0  0.99594  0.57731  0.44305  1.0000
  S   S317      1.0  0.78666  0.99037  0.35059  1.0000
  H   H1377     1.0  0.95857  0.57555  0.44358  1.0000
  H   H1378     1.0  0.86694  0.60260  0.33886  1.0000
  C   C1165     1.0  0.95355  0.64299  0.48912  1.0000
  C   C1166     1.0  0.84352  0.91600  0.47664  1.0000
  C   C1167     1.0  0.85916  0.53160  0.39983  1.0000
  C   C1168     1.0  0.83712  0.53460  0.40983  1.0000
  H   H1379     1.0  0.88121  0.95403  0.45341  1.0000
  H   H1380     1.0  0.87369  0.97821  0.42570  1.0000
  H   H1381     1.0  0.83384  0.54841  0.42058  1.0000
  S   S318      1.0  0.88610  0.80539  0.48390  1.0000
  C   C1169     1.0  0.82472  0.93328  0.40665  1.0000
  C   C1170     1.0  0.82470  0.91553  0.42271  1.0000
  C   C1171     1.0  0.84297  0.89854  0.42376  1.0000
  C   C1172     1.0  0.86140  0.89903  0.40859  1.0000
  C   C1173     1.0  0.86156  0.91690  0.39259  1.0000
  C   C1174     1.0  0.84334  0.93403  0.39164  1.0000
  H   H1382     1.0  0.81027  0.91470  0.43426  1.0000
  H   H1383     1.0  0.84256  0.88485  0.43610  1.0000
  H   H1384     1.0  0.87575  0.91738  0.38077  1.0000
  H   H1385     1.0  0.84353  0.94757  0.37914  1.0000
  H   H1386     1.0  0.95431  0.65128  0.43573  1.0000
  H   H1387     1.0  0.81978  0.79372  0.39678  1.0000
  C   C1175     1.0  0.86120  0.65177  0.38298  1.0000
  C   C1176     1.0  0.85974  0.61728  0.34821  1.0000
  H   H1388     1.0  0.99812  0.57484  0.42630  1.0000
  C   C1177     1.0  0.83099  0.66931  0.40549  1.0000
  H   H1389     1.0  0.82502  0.80934  0.35900  1.0000
  H   H1390     1.0  0.85196  0.99929  0.47742  1.0000
  H   H1391     1.0  0.97241  0.70261  0.46491  1.0000
  S   S319      1.0  0.77197  0.01305  0.39471  1.0000
  C   C1178     1.0  0.81822  0.64935  0.40513  1.0000
  H   H1392     1.0  0.92043  0.66899  0.47025  1.0000
  H   H1393     1.0  0.89065  0.58897  0.37044  1.0000
  C   C1179     1.0  0.93830  0.67584  0.46867  1.0000
  H   H1394     1.0  0.87079  0.63240  0.34407  1.0000
  H   H1395     1.0  0.81257  0.00000  0.46189  1.0000
  N   N76       1.0  0.84464  0.98576  0.44776  1.0000
  H   H1396     1.0  0.99907  0.85104  0.42387  1.0000
  S   S320      1.0  0.94248  0.58198  0.48701  1.0000
  C   C1180     1.0  0.84901  0.63088  0.38276  1.0000
  C   C1181     1.0  0.83775  0.79907  0.39918  1.0000
  C   C1182     1.0  0.79967  0.88100  0.39248  1.0000
  H   H1397     1.0  0.86242  0.68599  0.39491  1.0000
  H   H1398     1.0  0.80686  0.82682  0.41479  1.0000
  H   H1399     1.0  0.88062  0.80912  0.38750  1.0000
  C   C1183     1.0  0.81043  0.84126  0.40370  1.0000
  S   S321      1.0  0.95039  0.81964  0.48393  1.0000
  H   H1400     1.0  0.84651  0.86197  0.36324  1.0000
  C   C1184     1.0  0.01267  0.58292  0.47646  1.0000
  C   C1185     1.0  0.99880  0.84330  0.43977  1.0000
  C   C1186     1.0  0.79612  0.86134  0.40583  1.0000
  C   C1187     1.0  0.86459  0.94775  0.45935  1.0000
  C   C1188     1.0  0.85552  0.98547  0.42611  1.0000
  C   C1189     1.0  0.82281  0.95182  0.46571  1.0000
  H   H1401     1.0  0.93563  0.63641  0.49159  1.0000
  H   H1402     1.0  0.88376  0.60209  0.39486  1.0000
  C   C1190     1.0  0.85232  0.67059  0.39427  1.0000
  H   H1403     1.0  0.84196  0.62205  0.34283  1.0000
  H   H1404     1.0  0.84547  0.97484  0.41596  1.0000
  C   C1191     1.0  0.95199  0.64173  0.45136  1.0000
  C   C1192     1.0  0.99784  0.82321  0.48074  1.0000
  C   C1193     1.0  0.85877  0.99985  0.46073  1.0000
  N   N77       1.0  0.85911  0.61094  0.37112  1.0000
  H   H1405     1.0  0.78888  0.89672  0.39446  1.0000
  C   C1194     1.0  0.84379  0.96174  0.45740  1.0000
  H   H1406     1.0  0.82099  0.89648  0.36733  1.0000
  C   C1195     1.0  0.98058  0.66491  0.46626  1.0000
  N   N78       1.0  0.95650  0.65674  0.46880  1.0000
  H   H1407     1.0  0.82798  0.59159  0.36864  1.0000
  H   H1408     1.0  0.85440  0.57434  0.36704  1.0000
  H   H1409     1.0  0.87735  0.99372  0.46058  1.0000
  H   H1410     1.0  0.93391  0.63561  0.45269  1.0000
  H   H1411     1.0  0.85458  0.51738  0.45272  1.0000
  H   H1412     1.0  0.81621  0.61543  0.39452  1.0000
  H   H1413     1.0  0.87549  0.83867  0.37793  1.0000
  H   H1414     1.0  0.87798  0.65365  0.37482  1.0000
  H   H1415     1.0  0.84964  0.78357  0.39671  1.0000
  H   H1416     1.0  0.84414  0.58419  0.39199  1.0000
  C   C1196     1.0  0.00882  0.69588  0.46253  1.0000
  C   C1197     1.0  0.82689  0.63042  0.39383  1.0000
  S   S322      1.0  0.82481  0.58796  0.48778  1.0000
  C   C1198     1.0  0.88326  0.60514  0.37748  1.0000
  H   H1417     1.0  0.83905  0.80279  0.41605  1.0000
  H   H1418     1.0  0.80989  0.98808  0.43634  1.0000
  N   N79       1.0  0.84422  0.81937  0.38495  1.0000
  C   C1199     1.0  0.84328  0.81221  0.36295  1.0000
  C   C1200     1.0  0.86855  0.82464  0.38890  1.0000
  H   H1419     1.0  0.80169  0.64836  0.41404  1.0000
  C   C1201     1.0  0.82889  0.84038  0.38797  1.0000
  H   H1420     1.0  0.89559  0.61897  0.37270  1.0000
  C   C1202     1.0  0.83228  0.86092  0.37495  1.0000
  C   C1203     1.0  0.81776  0.88082  0.37713  1.0000
  H   H1421     1.0  0.85035  0.82547  0.35125  1.0000
  H   H1422     1.0  0.85374  0.79580  0.36043  1.0000
  C   C1204     1.0  0.84570  0.58947  0.37486  1.0000
  H   H1423     1.0  0.86976  0.83075  0.40504  1.0000
  H   H1424     1.0  0.01247  0.71424  0.46136  1.0000
  H   H1425     1.0  0.85620  0.00329  0.41842  1.0000
  C   C1205     1.0  0.99018  0.58303  0.48629  1.0000
  H   H1426     1.0  0.96546  0.62732  0.48993  1.0000
  S   S323      1.0  0.82695  0.01198  0.37885  1.0000
  H   H1427     1.0  0.80605  0.96082  0.46456  1.0000
  C   C1206     1.0  0.86435  0.92517  0.46867  1.0000
  C   C1207     1.0  0.81922  0.51966  0.40594  1.0000
  C   C1208     1.0  0.99980  0.64859  0.46558  1.0000
  H   H1428     1.0  0.93980  0.68736  0.48197  1.0000
  H   H1429     1.0  0.84331  0.89831  0.48345  1.0000
  H   H1430     1.0  0.93908  0.68651  0.45352  1.0000
  H   H1431     1.0  0.80222  0.52220  0.41372  1.0000
  H   H1432     1.0  0.99725  0.63008  0.46671  1.0000
  H   H1433     1.0  0.80663  0.92184  0.48113  1.0000
  H   H1434     1.0  0.59208  0.01475  0.28725  1.0000
  Fe  Fe161     1.0  0.81502  0.93909  0.64629  1.0000
  S   S324      1.0  0.77970  0.95394  0.63771  1.0000
  S   S325      1.0  0.82485  0.94061  0.68036  1.0000
  Fe  Fe162     1.0  0.82679  0.92337  0.60162  1.0000
  S   S326      1.0  0.79188  0.93550  0.59020  1.0000
  S   S327      1.0  0.85690  0.91087  0.58027  1.0000
  Fe  Fe163     1.0  0.79795  0.96769  0.60751  1.0000
  S   S328      1.0  0.79189  0.00270  0.58967  1.0000
  Fe  Fe164     1.0  0.77689  0.92063  0.62140  1.0000
  S   S329      1.0  0.74944  0.89358  0.62866  1.0000
  S   S330      1.0  0.83340  0.95600  0.61772  1.0000
  S   S331      1.0  0.81166  0.90544  0.63106  1.0000
  Fe  Fe165     1.0  0.61227  0.60538  0.72368  1.0000
  S   S332      1.0  0.61027  0.59741  0.68965  1.0000
  C   C1209     1.0  0.89555  0.84430  0.57390  1.0000
  Fe  Fe166     1.0  0.60968  0.65795  0.71414  1.0000
  S   S333      1.0  0.60822  0.65394  0.67941  1.0000
  H   H1435     1.0  0.72066  0.60762  0.71895  1.0000
  Fe  Fe167     1.0  0.58249  0.62633  0.68886  1.0000
  S   S334      1.0  0.54845  0.62707  0.67209  1.0000
  Fe  Fe168     1.0  0.63611  0.62547  0.68372  1.0000
  S   S335      1.0  0.67128  0.62379  0.66569  1.0000
  S   S336      1.0  0.58254  0.63186  0.72341  1.0000
  S   S337      1.0  0.63947  0.63183  0.71794  1.0000
  H   H1436     1.0  0.83359  0.52841  0.55214  1.0000
  S   S338      1.0  0.61224  0.88430  0.71913  1.0000
  H   H1437     1.0  0.90841  0.85287  0.58212  1.0000
  Fe  Fe169     1.0  0.61384  0.82316  0.69637  1.0000
  S   S339      1.0  0.59533  0.85434  0.68088  1.0000
  S   S340      1.0  0.61343  0.78967  0.67923  1.0000
  Fe  Fe170     1.0  0.62726  0.87366  0.68761  1.0000
  S   S341      1.0  0.64450  0.90052  0.66494  1.0000
  Fe  Fe171     1.0  0.58220  0.86172  0.71374  1.0000
  S   S342      1.0  0.54496  0.87070  0.72525  1.0000
  S   S343      1.0  0.64664  0.84195  0.70051  1.0000
  S   S344      1.0  0.59906  0.82946  0.72895  1.0000
  H   H1438     1.0  0.81996  0.61482  0.72069  1.0000
  H   H1439     1.0  0.86128  0.99097  0.56927  1.0000
  C   C1210     1.0  0.74067  0.54158  0.69046  1.0000
  Fe  Fe172     1.0  0.80763  0.54654  0.60446  1.0000
  C   C1211     1.0  0.55036  0.68373  0.69978  1.0000
  S   S345      1.0  0.82671  0.57583  0.58720  1.0000
  C   C1212     1.0  0.54081  0.71784  0.71873  1.0000
  H   H1440     1.0  0.82294  0.85320  0.73186  1.0000
  H   H1441     1.0  0.53591  0.81814  0.72567  1.0000
  S   S346      1.0  0.78705  0.55104  0.63507  1.0000
  H   H1442     1.0  0.96023  0.83960  0.54921  1.0000
  C   C1213     1.0  0.82642  0.57846  0.55952  1.0000
  C   C1214     1.0  0.80887  0.56888  0.54874  1.0000
  C   C1215     1.0  0.80855  0.57190  0.52671  1.0000
  C   C1216     1.0  0.82609  0.58400  0.51529  1.0000
  C   C1217     1.0  0.84395  0.59316  0.52599  1.0000
  C   C1218     1.0  0.84390  0.59067  0.54811  1.0000
  H   H1443     1.0  0.79546  0.55924  0.55731  1.0000
  H   H1444     1.0  0.85746  0.60265  0.51728  1.0000
  H   H1445     1.0  0.85749  0.59820  0.55638  1.0000
  C   C1219     1.0  0.75697  0.91688  0.68082  1.0000
  H   H1446     1.0  0.77917  0.58017  0.71815  1.0000
  C   C1220     1.0  0.61155  0.76269  0.69370  1.0000
  C   C1221     1.0  0.61234  0.74210  0.68282  1.0000
  C   C1222     1.0  0.61110  0.72030  0.69386  1.0000
  C   C1223     1.0  0.60896  0.71897  0.71590  1.0000
  C   C1224     1.0  0.60782  0.73958  0.72677  1.0000
  C   C1225     1.0  0.60919  0.76137  0.71573  1.0000
  H   H1447     1.0  0.61415  0.74298  0.66578  1.0000
  H   H1448     1.0  0.61197  0.70458  0.68531  1.0000
  C   C1226     1.0  0.93132  0.80986  0.53706  1.0000
  H   H1449     1.0  0.60859  0.77710  0.72429  1.0000
  C   C1227     1.0  0.68533  0.59831  0.65605  1.0000
  C   C1228     1.0  0.70943  0.59818  0.65115  1.0000
  C   C1229     1.0  0.72113  0.57861  0.64264  1.0000
  C   C1230     1.0  0.70869  0.55922  0.63835  1.0000
  C   C1231     1.0  0.68464  0.55928  0.64345  1.0000
  C   C1232     1.0  0.67303  0.57860  0.65251  1.0000
  H   H1450     1.0  0.71907  0.61339  0.65378  1.0000
  H   H1451     1.0  0.73965  0.57871  0.63908  1.0000
  H   H1452     1.0  0.67488  0.54434  0.64019  1.0000
  H   H1453     1.0  0.65446  0.57853  0.65609  1.0000
  H   H1454     1.0  0.79478  0.56471  0.51843  1.0000
  H   H1455     1.0  0.77152  0.92749  0.73027  1.0000
  H   H1456     1.0  0.58568  0.54638  0.72098  1.0000
  H   H1457     1.0  0.70394  0.60138  0.69705  1.0000
  H   H1458     1.0  0.79654  0.55739  0.73101  1.0000
  C   C1233     1.0  0.75521  0.53070  0.70520  1.0000
  C   C1234     1.0  0.72122  0.89710  0.64079  1.0000
  C   C1235     1.0  0.70755  0.91758  0.63780  1.0000
  C   C1236     1.0  0.68419  0.91857  0.64565  1.0000
  C   C1237     1.0  0.67451  0.89939  0.65703  1.0000
  C   C1238     1.0  0.68861  0.87943  0.66101  1.0000
  C   C1239     1.0  0.71168  0.87812  0.65256  1.0000
  H   H1459     1.0  0.71461  0.93225  0.62863  1.0000
  H   H1460     1.0  0.67343  0.93414  0.64257  1.0000
  H   H1461     1.0  0.68153  0.86482  0.67011  1.0000
  H   H1462     1.0  0.72211  0.86219  0.65490  1.0000
  C   C1240     1.0  0.84205  0.86911  0.52373  1.0000
  C   C1241     1.0  0.82398  0.87481  0.53841  1.0000
  C   C1242     1.0  0.82823  0.88805  0.55561  1.0000
  C   C1243     1.0  0.85063  0.89544  0.55827  1.0000
  C   C1244     1.0  0.86857  0.89028  0.54327  1.0000
  C   C1245     1.0  0.86422  0.87736  0.52588  1.0000
  H   H1463     1.0  0.80676  0.86852  0.53672  1.0000
  H   H1464     1.0  0.81432  0.89193  0.56711  1.0000
  H   H1465     1.0  0.88591  0.89606  0.54528  1.0000
  H   H1466     1.0  0.87804  0.87329  0.51441  1.0000
  C   C1246     1.0  0.86321  0.87766  0.71241  1.0000
  C   C1247     1.0  0.85447  0.87613  0.69237  1.0000
  C   C1248     1.0  0.84302  0.89539  0.68236  1.0000
  C   C1249     1.0  0.83997  0.91637  0.69236  1.0000
  C   C1250     1.0  0.84856  0.91791  0.71252  1.0000
  C   C1251     1.0  0.86038  0.89868  0.72245  1.0000
  H   H1467     1.0  0.85668  0.85997  0.68446  1.0000
  H   H1468     1.0  0.83667  0.89391  0.66687  1.0000
  H   H1469     1.0  0.84645  0.93415  0.72031  1.0000
  C   C1252     1.0  0.85658  0.57604  0.69812  1.0000
  C   C1253     1.0  0.85516  0.55615  0.71177  1.0000
  C   C1254     1.0  0.84350  0.53674  0.70570  1.0000
  C   C1255     1.0  0.83374  0.53703  0.68586  1.0000
  C   C1256     1.0  0.83601  0.55659  0.67204  1.0000
  C   C1257     1.0  0.84721  0.57605  0.67821  1.0000
  H   H1470     1.0  0.79216  0.85386  0.73095  1.0000
  N   N80       1.0  0.53496  0.69319  0.71700  1.0000
  H   H1471     1.0  0.82907  0.55684  0.65656  1.0000
  H   H1472     1.0  0.84848  0.59128  0.66751  1.0000
  N   N81       1.0  0.65917  0.82505  0.63349  1.0000
  C   C1258     1.0  0.65057  0.80680  0.62065  1.0000
  C   C1259     1.0  0.67056  0.81360  0.65203  1.0000
  C   C1260     1.0  0.63858  0.83889  0.64155  1.0000
  C   C1261     1.0  0.67607  0.83919  0.62060  1.0000
  C   C1262     1.0  0.69759  0.82892  0.61316  1.0000
  C   C1263     1.0  0.67190  0.86326  0.61510  1.0000
  C   C1264     1.0  0.71426  0.84211  0.60174  1.0000
  C   C1265     1.0  0.68862  0.87620  0.60350  1.0000
  C   C1266     1.0  0.70983  0.86573  0.59705  1.0000
  H   H1473     1.0  0.66483  0.79466  0.61514  1.0000
  H   H1474     1.0  0.63757  0.79601  0.62989  1.0000
  H   H1475     1.0  0.64206  0.81467  0.60645  1.0000
  H   H1476     1.0  0.65788  0.80435  0.66298  1.0000
  H   H1477     1.0  0.67889  0.82654  0.66123  1.0000
  H   H1478     1.0  0.68414  0.80027  0.64759  1.0000
  H   H1479     1.0  0.62639  0.82788  0.65140  1.0000
  H   H1480     1.0  0.64379  0.85281  0.65161  1.0000
  H   H1481     1.0  0.62828  0.84703  0.62854  1.0000
  H   H1482     1.0  0.70185  0.81068  0.61643  1.0000
  H   H1483     1.0  0.65626  0.87282  0.62021  1.0000
  H   H1484     1.0  0.73091  0.83415  0.59683  1.0000
  H   H1485     1.0  0.68549  0.89472  0.60024  1.0000
  H   H1486     1.0  0.72311  0.87610  0.58886  1.0000
  N   N82       1.0  0.85396  0.97417  0.54115  1.0000
  S   S347      1.0  0.87665  0.85254  0.72444  1.0000
  C   C1267     1.0  0.83075  0.96617  0.54903  1.0000
  C   C1268     1.0  0.86493  0.95580  0.52806  1.0000
  C   C1269     1.0  0.85297  0.99660  0.52855  1.0000
  H   H1487     1.0  0.86280  0.55579  0.72699  1.0000
  Fe  Fe173     1.0  0.80529  0.51754  0.64561  1.0000
  H   H1488     1.0  0.77521  0.91809  0.67415  1.0000
  H   H1489     1.0  0.86787  0.96024  0.57047  1.0000
  C   C1270     1.0  0.92369  0.84976  0.52489  1.0000
  C   C1271     1.0  0.51914  0.61342  0.70619  1.0000
  H   H1490     1.0  0.80764  0.88049  0.72729  1.0000
  H   H1491     1.0  0.56234  0.79588  0.70171  1.0000
  H   H1492     1.0  0.54692  0.69270  0.68423  1.0000
  H   H1493     1.0  0.82174  0.97890  0.55951  1.0000
  H   H1494     1.0  0.83217  0.94942  0.55862  1.0000
  C   C1272     1.0  0.51972  0.86565  0.71166  1.0000
  H   H1495     1.0  0.98801  0.58515  0.50309  1.0000
  H   H1496     1.0  0.86579  0.93869  0.53710  1.0000
  C   C1273     1.0  0.75121  0.53458  0.72656  1.0000
  H   H1497     1.0  0.73677  0.94431  0.73932  1.0000
  C   C1274     1.0  0.53467  0.77806  0.68870  1.0000
  C   C1275     1.0  0.52064  0.86143  0.69017  1.0000
  H   H1498     1.0  0.87096  0.52302  0.58557  1.0000
  N   N83       1.0  0.75155  0.60475  0.57991  1.0000
  C   C1276     1.0  0.77033  0.62146  0.57509  1.0000
  C   C1277     1.0  0.76076  0.58614  0.59459  1.0000
  C   C1278     1.0  0.74638  0.59445  0.55983  1.0000
  C   C1279     1.0  0.73000  0.61533  0.58965  1.0000
  C   C1280     1.0  0.70997  0.60190  0.59366  1.0000
  C   C1281     1.0  0.72844  0.63860  0.59616  1.0000
  C   C1282     1.0  0.68960  0.61125  0.60330  1.0000
  C   C1283     1.0  0.70801  0.64769  0.60603  1.0000
  C   C1284     1.0  0.68866  0.63404  0.60960  1.0000
  H   H1499     1.0  0.77650  0.62853  0.58968  1.0000
  H   H1500     1.0  0.78609  0.61294  0.56741  1.0000
  H   H1501     1.0  0.76456  0.63609  0.56414  1.0000
  H   H1502     1.0  0.76481  0.59321  0.60987  1.0000
  H   H1503     1.0  0.77714  0.57788  0.58804  1.0000
  H   H1504     1.0  0.74831  0.57202  0.59811  1.0000
  H   H1505     1.0  0.73735  0.60748  0.54915  1.0000
  H   H1506     1.0  0.76250  0.58814  0.55117  1.0000
  H   H1507     1.0  0.73530  0.57911  0.56236  1.0000
  H   H1508     1.0  0.71014  0.58376  0.59006  1.0000
  H   H1509     1.0  0.74283  0.65004  0.59412  1.0000
  H   H1510     1.0  0.68989  0.61468  0.71901  1.0000
  H   H1511     1.0  0.70725  0.66528  0.61132  1.0000
  H   H1512     1.0  0.67311  0.64090  0.61784  1.0000
  H   H1513     1.0  0.74504  0.96207  0.68609  1.0000
  H   H1514     1.0  0.71407  0.90864  0.68589  1.0000
  H   H1515     1.0  0.78956  0.62200  0.72283  1.0000
  H   H1516     1.0  0.67476  0.60045  0.60675  1.0000
  C   C1285     1.0  0.54371  0.79341  0.70204  1.0000
  S   S348      1.0  0.83653  0.85083  0.50346  1.0000
  H   H1517     1.0  0.92075  0.80427  0.52421  1.0000
  H   H1518     1.0  0.86748  0.54767  0.56782  1.0000
  H   H1519     1.0  0.83669  0.00686  0.60820  1.0000
  C   C1286     1.0  0.57335  0.53674  0.73190  1.0000
  C   C1287     1.0  0.70194  0.93320  0.74094  1.0000
  H   H1520     1.0  0.93993  0.85956  0.56112  1.0000
  H   H1521     1.0  0.91769  0.86758  0.52911  1.0000
  S   S349      1.0  0.86806  0.60205  0.70555  1.0000
  H   H1522     1.0  0.66161  0.58213  0.72323  1.0000
  C   C1288     1.0  0.54060  0.67989  0.73686  1.0000
  H   H1523     1.0  0.81493  0.00242  0.52921  1.0000
  Fe  Fe174     1.0  0.63006  0.85150  0.73182  1.0000
  C   C1289     1.0  0.94263  0.84098  0.55730  1.0000
  H   H1524     1.0  0.92986  0.79669  0.55049  1.0000
  H   H1525     1.0  0.78901  0.91888  0.70804  1.0000
  H   H1526     1.0  0.94324  0.82997  0.57224  1.0000
  H   H1527     1.0  0.86912  0.85393  0.59747  1.0000
  H   H1528     1.0  0.76750  0.89969  0.71973  1.0000
  C   C1290     1.0  0.85948  0.82445  0.55426  1.0000
  C   C1291     1.0  0.86809  0.97629  0.55981  1.0000
  H   H1529     1.0  0.54831  0.66476  0.69861  1.0000
  H   H1530     1.0  0.53611  0.72855  0.70436  1.0000
  C   C1292     1.0  0.68476  0.92217  0.73103  1.0000
  N   N84       1.0  0.92425  0.83355  0.54380  1.0000
  C   C1293     1.0  0.72231  0.55659  0.69700  1.0000
  H   H1531     1.0  0.94118  0.85099  0.51666  1.0000
  H   H1532     1.0  0.55981  0.71954  0.72064  1.0000
  S   S350      1.0  0.72222  0.53508  0.62585  1.0000
  H   H1533     1.0  0.75765  0.96334  0.71127  1.0000
  Fe  Fe175     1.0  0.76138  0.52820  0.62214  1.0000
  C   C1294     1.0  0.80678  0.86349  0.73646  1.0000
  H   H1534     1.0  0.75350  0.89800  0.68274  1.0000
  C   C1295     1.0  0.53683  0.56537  0.67857  1.0000
  C   C1296     1.0  0.87383  0.00700  0.52066  1.0000
  C   C1297     1.0  0.53797  0.55268  0.71609  1.0000
  H   H1535     1.0  0.83735  0.83618  0.58012  1.0000
  H   H1536     1.0  0.66755  0.92060  0.73857  1.0000
  C   C1298     1.0  0.71801  0.56137  0.71853  1.0000
  C   C1299     1.0  0.90079  0.83357  0.55450  1.0000
  C   C1300     1.0  0.85497  0.83498  0.57330  1.0000
  H   H1537     1.0  0.77567  0.95594  0.68877  1.0000
  C   C1301     1.0  0.75812  0.95356  0.69667  1.0000
  C   C1302     1.0  0.88195  0.82391  0.54487  1.0000
  H   H1538     1.0  0.86744  0.90019  0.73772  1.0000
  N   N85       1.0  0.55094  0.54998  0.73569  1.0000
  C   C1303     1.0  0.77107  0.91820  0.71547  1.0000
  H   H1539     1.0  0.53725  0.86089  0.68143  1.0000
  S   S351      1.0  0.78045  0.52638  0.59050  1.0000
  N   N86       1.0  0.75347  0.92859  0.70106  1.0000
  H   H1540     1.0  0.89069  0.99901  0.52389  1.0000
  N   N87       1.0  0.80030  0.59182  0.74224  1.0000
  H   H1541     1.0  0.67599  0.90516  0.70347  1.0000
  C   C1304     1.0  0.72412  0.93537  0.73111  1.0000
  H   H1542     1.0  0.53439  0.61240  0.71544  1.0000
  C   C1305     1.0  0.68960  0.91343  0.71124  1.0000
  H   H1543     1.0  0.95704  0.65353  0.50267  1.0000
  H   H1544     1.0  0.54538  0.57317  0.66446  1.0000
  C   C1306     1.0  0.52114  0.62078  0.68486  1.0000
  H   H1545     1.0  0.56910  0.68584  0.70250  1.0000
  H   H1546     1.0  0.57051  0.51971  0.72519  1.0000
  C   C1307     1.0  0.67643  0.57055  0.71778  1.0000
  H   H1547     1.0  0.84527  0.81765  0.54619  1.0000
  C   C1308     1.0  0.87294  0.84493  0.58307  1.0000
  S   S352      1.0  0.60662  0.69202  0.73038  1.0000
  H   H1548     1.0  0.71144  0.56446  0.68501  1.0000
  H   H1549     1.0  0.74564  0.92499  0.66851  1.0000
  N   N88       1.0  0.69900  0.57816  0.72475  1.0000
  C   C1309     1.0  0.70363  0.60141  0.71453  1.0000
  H   H1550     1.0  0.74358  0.53827  0.67385  1.0000
  C   C1310     1.0  0.72979  0.92632  0.71106  1.0000
  H   H1551     1.0  0.88419  0.81662  0.52958  1.0000
  H   H1552     1.0  0.91180  0.84399  0.51310  1.0000
  H   H1553     1.0  0.88667  0.97934  0.55551  1.0000
  H   H1554     1.0  0.94957  0.80900  0.53032  1.0000
  H   H1555     1.0  0.88309  0.95960  0.52270  1.0000
  C   C1311     1.0  0.54895  0.56176  0.69706  1.0000
  H   H1556     1.0  0.81939  0.96301  0.53594  1.0000
  H   H1557     1.0  0.89517  0.53202  0.56864  1.0000
  C   C1312     1.0  0.52878  0.80587  0.71558  1.0000
  C   C1313     1.0  0.87600  0.52996  0.56940  1.0000
  H   H1558     1.0  0.67283  0.55260  0.72417  1.0000
  H   H1559     1.0  0.54646  0.76868  0.67801  1.0000
  C   C1314     1.0  0.73295  0.54971  0.73324  1.0000
  H   H1560     1.0  0.76237  0.52573  0.73797  1.0000
  H   H1561     1.0  0.53594  0.66136  0.73633  1.0000
  H   H1562     1.0  0.56676  0.56702  0.69647  1.0000
  C   C1315     1.0  0.71170  0.91550  0.70130  1.0000
  H   H1563     1.0  0.56694  0.58311  0.73052  1.0000
  H   H1564     1.0  0.67573  0.57084  0.70031  1.0000
  C   C1316     1.0  0.55595  0.57334  0.74254  1.0000
  H   H1565     1.0  0.85486  0.95360  0.51384  1.0000
  C   C1317     1.0  0.83167  0.00862  0.52354  1.0000
  H   H1566     1.0  0.76949  0.51910  0.70001  1.0000
  H   H1567     1.0  0.53199  0.72583  0.73264  1.0000
  H   H1568     1.0  0.80983  0.57728  0.71228  1.0000
  H   H1569     1.0  0.99758  0.81538  0.49660  1.0000
  H   H1570     1.0  0.86443  0.54457  0.53090  1.0000
  H   H1571     1.0  0.55952  0.68005  0.73979  1.0000
  H   H1572     1.0  0.99974  0.64686  0.73934  1.0000
  H   H1573     1.0  0.01266  0.60335  0.74078  1.0000
  C   C1318     1.0  0.79621  0.57598  0.72529  1.0000
  S   S353      1.0  0.91099  0.63460  0.73512  1.0000
  H   H1574     1.0  0.83769  0.58625  0.74243  1.0000
  H   H1575     1.0  0.84210  0.52148  0.71633  1.0000
  Fe  Fe176     1.0  0.88291  0.60883  0.73671  1.0000
  C   C1319     1.0  0.80453  0.61523  0.73208  1.0000
  C   C1320     1.0  0.87397  0.52731  0.53206  1.0000
  H   H1576     1.0  0.89279  0.53087  0.52946  1.0000
  C   C1321     1.0  0.01431  0.65863  0.74092  1.0000
  H   H1577     1.0  0.86827  0.51740  0.51883  1.0000
  H   H1578     1.0  0.93189  0.68851  0.74338  1.0000
  Fe  Fe177     1.0  0.69951  0.91532  0.87601  1.0000
  S   S354      1.0  0.72265  0.94267  0.88588  1.0000
  S   S355      1.0  0.69478  0.88192  0.89573  1.0000
  Fe  Fe178     1.0  0.68680  0.94266  0.83579  1.0000
  S   S356      1.0  0.70784  0.97305  0.84292  1.0000
  S   S357      1.0  0.66431  0.94262  0.80766  1.0000
  Fe  Fe179     1.0  0.73504  0.94502  0.85161  1.0000
  S   S358      1.0  0.77236  0.94823  0.83851  1.0000
  Fe  Fe180     1.0  0.69363  0.96823  0.87662  1.0000
  S   S359      1.0  0.67458  0.98965  0.90192  1.0000
  S   S360      1.0  0.71446  0.91522  0.84271  1.0000
  S   S361      1.0  0.67010  0.94041  0.86831  1.0000
  Fe  Fe181     1.0  0.71374  0.54512  0.88219  1.0000
  H   H1579     1.0  0.63162  0.61728  0.76314  1.0000
  S   S362      1.0  0.71352  0.54814  0.91749  1.0000
  Fe  Fe182     1.0  0.69806  0.56259  0.83893  1.0000
  H   H1580     1.0  0.72913  0.58941  0.80099  1.0000
  S   S363      1.0  0.68289  0.59333  0.82006  1.0000
  H   H1581     1.0  0.63096  0.94891  0.97716  1.0000
  H   H1582     1.0  0.68986  0.68984  0.95743  1.0000
  H   H1583     1.0  0.00974  0.76458  0.78245  1.0000
  S   S364      1.0  0.67982  0.54400  0.86649  1.0000
  S   S365      1.0  0.73090  0.56697  0.85582  1.0000
  Fe  Fe183     1.0  0.92619  0.61323  0.76219  1.0000
  H   H1584     1.0  0.72574  0.91470  0.78258  1.0000
  C   C1322     1.0  0.68738  0.69216  0.97464  1.0000
  Fe  Fe184     1.0  0.87820  0.60882  0.78453  1.0000
  S   S366      1.0  0.86037  0.62967  0.75888  1.0000
  S   S367      1.0  0.85404  0.60149  0.81334  1.0000
  C   C1323     1.0  0.94839  0.69583  0.74645  1.0000
  H   H1585     1.0  0.66811  0.90012  0.97939  1.0000
  Fe  Fe185     1.0  0.88973  0.65377  0.75931  1.0000
  C   C1324     1.0  0.74168  0.90541  0.77759  1.0000
  S   S368      1.0  0.89905  0.58576  0.76220  1.0000
  S   S369      1.0  0.90664  0.63457  0.78659  1.0000
  Fe  Fe186     1.0  0.87096  0.85347  0.80287  1.0000
  S   S370      1.0  0.86915  0.82543  0.77995  1.0000
  S   S371      1.0  0.83889  0.85871  0.82465  1.0000
  Fe  Fe187     1.0  0.92254  0.86116  0.79067  1.0000
  S   S372      1.0  0.92411  0.83436  0.76627  1.0000
  S   S373      1.0  0.95356  0.87884  0.80257  1.0000
  S   S374      1.0  0.96526  0.60863  0.75472  1.0000
  C   C1325     1.0  0.97218  0.80322  0.80554  1.0000
  Fe  Fe188     1.0  0.90411  0.81237  0.79048  1.0000
  S   S375      1.0  0.91618  0.77569  0.80059  1.0000
  S   S376      1.0  0.88885  0.87890  0.78007  1.0000
  S   S377      1.0  0.90437  0.83826  0.81545  1.0000
  H   H1586     1.0  0.54862  0.53488  0.76760  1.0000
  C   C1326     1.0  0.78371  0.90086  0.77717  1.0000
  C   C1327     1.0  0.80425  0.84367  0.77094  1.0000
  H   H1587     1.0  0.62596  0.89393  0.76041  1.0000
  C   C1328     1.0  0.98187  0.87272  0.79133  1.0000
  C   C1329     1.0  0.98508  0.86135  0.77249  1.0000
  C   C1330     1.0  0.82668  0.87765  0.76492  1.0000
  H   H1588     1.0  0.67597  0.91523  0.94634  1.0000
  H   H1589     1.0  0.99926  0.88804  0.81611  1.0000
  H   H1590     1.0  0.97015  0.85631  0.76443  1.0000
  C   C1331     1.0  0.88978  0.71464  0.76677  1.0000
  C   C1332     1.0  0.90543  0.71063  0.78284  1.0000
  C   C1333     1.0  0.91372  0.72954  0.79293  1.0000
  C   C1334     1.0  0.90631  0.75243  0.78708  1.0000
  C   C1335     1.0  0.89075  0.75639  0.77098  1.0000
  C   C1336     1.0  0.88249  0.73752  0.76090  1.0000
  H   H1591     1.0  0.91130  0.69306  0.78734  1.0000
  H   H1592     1.0  0.92577  0.72642  0.80539  1.0000
  H   H1593     1.0  0.88499  0.77397  0.76634  1.0000
  Fe  Fe189     1.0  0.88895  0.84998  0.75771  1.0000
  C   C1337     1.0  0.84576  0.74161  0.81038  1.0000
  C   C1338     1.0  0.96784  0.68117  0.75041  1.0000
  C   C1339     1.0  0.99057  0.60282  0.76917  1.0000
  C   C1340     1.0  0.99010  0.60062  0.79123  1.0000
  H   H1594     1.0  0.63507  0.53599  0.88913  1.0000
  H   H1595     1.0  0.80777  0.94233  0.87577  1.0000
  H   H1596     1.0  0.97359  0.60113  0.80012  1.0000
  C   C1341     1.0  0.01117  0.59796  0.80176  1.0000
  C   C1342     1.0  0.79758  0.54697  0.82046  1.0000
  C   C1343     1.0  0.79575  0.56702  0.83194  1.0000
  C   C1344     1.0  0.81301  0.58366  0.82934  1.0000
  C   C1345     1.0  0.83208  0.58071  0.81494  1.0000
  C   C1346     1.0  0.83368  0.56092  0.80304  1.0000
  C   C1347     1.0  0.81656  0.54406  0.80590  1.0000
  H   H1597     1.0  0.78139  0.56943  0.84331  1.0000
  H   H1598     1.0  0.81170  0.59877  0.83875  1.0000
  H   H1599     1.0  0.84851  0.55823  0.79218  1.0000
  H   H1600     1.0  0.68955  0.65191  0.94988  1.0000
  C   C1348     1.0  0.69168  0.56730  0.92756  1.0000
  C   C1349     1.0  0.68153  0.58469  0.91439  1.0000
  C   C1350     1.0  0.66475  0.60045  0.92274  1.0000
  C   C1351     1.0  0.65761  0.59859  0.94415  1.0000
  C   C1352     1.0  0.66714  0.58069  0.95722  1.0000
  C   C1353     1.0  0.68441  0.56523  0.94896  1.0000
  H   H1601     1.0  0.68707  0.58641  0.89787  1.0000
  H   H1602     1.0  0.65741  0.61429  0.91258  1.0000
  H   H1603     1.0  0.69225  0.55178  0.95918  1.0000
  C   C1354     1.0  0.66366  0.58777  0.80045  1.0000
  C   C1355     1.0  0.65399  0.60653  0.78839  1.0000
  C   C1356     1.0  0.63913  0.60265  0.77219  1.0000
  C   C1357     1.0  0.63392  0.57995  0.76794  1.0000
  C   C1358     1.0  0.64333  0.56116  0.78017  1.0000
  C   C1359     1.0  0.65822  0.56505  0.79638  1.0000
  H   H1604     1.0  0.65798  0.62414  0.79159  1.0000
  C   C1360     1.0  0.86266  0.74990  0.82261  1.0000
  H   H1605     1.0  0.63924  0.54357  0.77703  1.0000
  H   H1606     1.0  0.66541  0.55050  0.80576  1.0000
  C   C1361     1.0  0.78998  0.92305  0.83333  1.0000
  C   C1362     1.0  0.78346  0.90096  0.84105  1.0000
  C   C1363     1.0  0.79855  0.88145  0.83794  1.0000
  C   C1364     1.0  0.82012  0.88374  0.82686  1.0000
  C   C1365     1.0  0.82640  0.90574  0.81859  1.0000
  C   C1366     1.0  0.81141  0.92533  0.82194  1.0000
  H   H1607     1.0  0.76708  0.89899  0.84993  1.0000
  H   H1608     1.0  0.79356  0.86452  0.84443  1.0000
  H   H1609     1.0  0.84288  0.90782  0.80995  1.0000
  H   H1610     1.0  0.81657  0.94239  0.81596  1.0000
  C   C1367     1.0  0.74764  0.61071  0.77741  1.0000
  C   C1368     1.0  0.65113  0.67261  0.97523  1.0000
  C   C1369     1.0  0.66201  0.91703  0.79401  1.0000
  C   C1370     1.0  0.67806  0.89821  0.79625  1.0000
  C   C1371     1.0  0.67535  0.87788  0.78550  1.0000
  C   C1372     1.0  0.65666  0.87627  0.77237  1.0000
  C   C1373     1.0  0.64069  0.89511  0.77010  1.0000
  C   C1374     1.0  0.64345  0.91545  0.78078  1.0000
  H   H1611     1.0  0.69250  0.89924  0.80630  1.0000
  H   H1612     1.0  0.68772  0.86332  0.78737  1.0000
  H   H1613     1.0  0.68217  0.59381  0.75188  1.0000
  H   H1614     1.0  0.63093  0.92991  0.77899  1.0000
  C   C1375     1.0  0.67121  0.88182  0.91447  1.0000
  C   C1376     1.0  0.67153  0.86585  0.93194  1.0000
  C   C1377     1.0  0.65287  0.86555  0.94707  1.0000
  C   C1378     1.0  0.63369  0.88103  0.94460  1.0000
  C   C1379     1.0  0.63330  0.89683  0.92706  1.0000
  C   C1380     1.0  0.65203  0.89731  0.91212  1.0000
  H   H1615     1.0  0.68628  0.85375  0.93382  1.0000
  H   H1616     1.0  0.65326  0.85321  0.96047  1.0000
  H   H1617     1.0  0.61844  0.90875  0.92502  1.0000
  H   H1618     1.0  0.65136  0.90949  0.89871  1.0000
  N   N89       1.0  0.88949  0.89767  0.85480  1.0000
  C   C1381     1.0  0.90915  0.90859  0.86419  1.0000
  C   C1382     1.0  0.89070  0.87249  0.86136  1.0000
  C   C1383     1.0  0.89287  0.89969  0.83152  1.0000
  C   C1384     1.0  0.86714  0.90963  0.86118  1.0000
  C   C1385     1.0  0.86375  0.93400  0.85702  1.0000
  C   C1386     1.0  0.84801  0.89765  0.87099  1.0000
  C   C1387     1.0  0.84267  0.94563  0.86250  1.0000
  C   C1388     1.0  0.82705  0.90950  0.87646  1.0000
  C   C1389     1.0  0.82438  0.93341  0.87223  1.0000
  H   H1619     1.0  0.90664  0.90852  0.88168  1.0000
  H   H1620     1.0  0.92609  0.89928  0.86034  1.0000
  H   H1621     1.0  0.91128  0.92688  0.85817  1.0000
  H   H1622     1.0  0.88821  0.86964  0.87877  1.0000
  H   H1623     1.0  0.90785  0.86411  0.85668  1.0000
  H   H1624     1.0  0.87737  0.86279  0.85366  1.0000
  H   H1625     1.0  0.89356  0.91804  0.82524  1.0000
  H   H1626     1.0  0.90946  0.89079  0.82599  1.0000
  H   H1627     1.0  0.87839  0.89167  0.82398  1.0000
  H   H1628     1.0  0.87720  0.94419  0.84907  1.0000
  H   H1629     1.0  0.84844  0.87901  0.87401  1.0000
  H   H1630     1.0  0.84021  0.96413  0.85871  1.0000
  H   H1631     1.0  0.81242  0.89996  0.88331  1.0000
  N   N90       1.0  0.00999  0.67424  0.75863  1.0000
  C   C1390     1.0  0.01215  0.60204  0.75785  1.0000
  H   H1632     1.0  0.60977  0.52019  0.89754  1.0000
  C   C1391     1.0  0.76594  0.61161  0.76206  1.0000
  H   H1633     1.0  0.67219  0.52672  0.90950  1.0000
  H   H1634     1.0  0.93472  0.73112  0.74381  1.0000
  H   H1635     1.0  0.97197  0.74810  0.75102  1.0000
  H   H1636     1.0  0.63997  0.01452  0.92628  1.0000
  H   H1637     1.0  0.81826  0.52853  0.79704  1.0000
  C   C1392     1.0  0.00765  0.85689  0.76374  1.0000
  C   C1393     1.0  0.69640  0.58089  0.74785  1.0000
  S   S378      1.0  0.61013  0.88168  0.96326  1.0000
  C   C1394     1.0  0.77477  0.57055  0.76945  1.0000
  N   N91       1.0  0.64579  0.86425  0.85049  1.0000
  C   C1395     1.0  0.63084  0.85995  0.83284  1.0000
  C   C1396     1.0  0.64924  0.88955  0.85079  1.0000
  C   C1397     1.0  0.66895  0.85269  0.84595  1.0000
  C   C1398     1.0  0.63453  0.85620  0.87092  1.0000
  C   C1399     1.0  0.64590  0.84068  0.88568  1.0000
  C   C1400     1.0  0.61193  0.86498  0.87709  1.0000
  C   C1401     1.0  0.63514  0.83442  0.90528  1.0000
  C   C1402     1.0  0.60144  0.85873  0.89680  1.0000
  C   C1403     1.0  0.61305  0.84352  0.91088  1.0000
  H   H1638     1.0  0.61410  0.87025  0.83353  1.0000
  H   H1639     1.0  0.63938  0.86491  0.81720  1.0000
  H   H1640     1.0  0.62683  0.84122  0.83277  1.0000
  H   H1641     1.0  0.63260  0.89991  0.85250  1.0000
  H   H1642     1.0  0.65830  0.89647  0.83608  1.0000
  H   H1643     1.0  0.66003  0.89323  0.86413  1.0000
  H   H1644     1.0  0.68171  0.85672  0.85774  1.0000
  H   H1645     1.0  0.66770  0.83349  0.84567  1.0000
  H   H1646     1.0  0.67668  0.85880  0.83030  1.0000
  H   H1647     1.0  0.66341  0.83374  0.88282  1.0000
  H   H1648     1.0  0.60246  0.87729  0.86695  1.0000
  H   H1649     1.0  0.64437  0.82312  0.91656  1.0000
  H   H1650     1.0  0.58445  0.86615  0.90145  1.0000
  H   H1651     1.0  0.60520  0.83931  0.92642  1.0000
  N   N92       1.0  0.85097  0.67626  0.82309  1.0000
  C   C1404     1.0  0.82662  0.67165  0.83028  1.0000
  C   C1405     1.0  0.85492  0.66867  0.80128  1.0000
  C   C1406     1.0  0.86655  0.66141  0.83668  1.0000
  C   C1407     1.0  0.85502  0.70147  0.82344  1.0000
  C   C1408     1.0  0.84188  0.71780  0.81079  1.0000
  C   C1409     1.0  0.87213  0.71053  0.83579  1.0000
  C   C1410     1.0  0.87579  0.73442  0.83529  1.0000
  H   H1652     1.0  0.81380  0.68043  0.81968  1.0000
  H   H1653     1.0  0.82328  0.65267  0.83066  1.0000
  H   H1654     1.0  0.82269  0.67777  0.84643  1.0000
  H   H1655     1.0  0.84283  0.67747  0.79001  1.0000
  H   H1656     1.0  0.85268  0.64967  0.80045  1.0000
  H   H1657     1.0  0.87284  0.67246  0.79516  1.0000
  H   H1658     1.0  0.86402  0.66551  0.85355  1.0000
  H   H1659     1.0  0.86311  0.64256  0.83590  1.0000
  H   H1660     1.0  0.88518  0.66323  0.83149  1.0000
  H   H1661     1.0  0.82887  0.71222  0.80070  1.0000
  H   H1662     1.0  0.88325  0.69955  0.84563  1.0000
  H   H1663     1.0  0.88942  0.74101  0.84422  1.0000
  H   H1664     1.0  0.75285  0.55380  0.79375  1.0000
  H   H1665     1.0  0.82791  0.87849  0.78224  1.0000
  H   H1666     1.0  0.95362  0.80671  0.80804  1.0000
  C   C1411     1.0  0.53799  0.53756  0.75342  1.0000
  C   C1412     1.0  0.66800  0.97119  0.95989  1.0000
  C   C1413     1.0  0.67565  0.93641  0.98384  1.0000
  S   S379      1.0  0.77680  0.52502  0.82431  1.0000
  C   C1414     1.0  0.99071  0.71486  0.75455  1.0000
  H   H1667     1.0  0.00981  0.84840  0.74898  1.0000
  N   N93       1.0  0.66596  0.94567  0.96375  1.0000
  C   C1415     1.0  0.98969  0.69022  0.75441  1.0000
  H   H1668     1.0  0.86617  0.76830  0.82174  1.0000
  C   C1416     1.0  0.00156  0.87922  0.80152  1.0000
  H   H1669     1.0  0.78908  0.83377  0.76691  1.0000
  H   H1670     1.0  0.73711  0.62626  0.78078  1.0000
  C   C1417     1.0  0.67832  0.93428  0.94577  1.0000
  H   H1671     1.0  0.96787  0.77246  0.78894  1.0000
  H   H1672     1.0  0.75969  0.85796  0.75134  1.0000
  H   H1673     1.0  0.82799  0.89549  0.75742  1.0000
  C   C1418     1.0  0.70596  0.62099  0.96272  1.0000
  C   C1419     1.0  0.74082  0.88584  0.76579  1.0000
  C   C1420     1.0  0.78028  0.59150  0.75781  1.0000
  H   H1674     1.0  0.76874  0.62833  0.75402  1.0000
  H   H1675     1.0  0.78499  0.55461  0.76721  1.0000
  H   H1676     1.0  0.84248  0.86746  0.75937  1.0000
  H   H1677     1.0  0.87045  0.74069  0.74842  1.0000
  H   H1678     1.0  0.64040  0.53820  0.94531  1.0000
  H   H1679     1.0  0.82198  0.56494  0.75779  1.0000
  C   C1421     1.0  0.98033  0.78395  0.79468  1.0000
  H   H1680     1.0  0.96553  0.66260  0.75038  1.0000
  H   H1681     1.0  0.63297  0.94705  0.94885  1.0000
  H   H1682     1.0  0.79956  0.90750  0.78239  1.0000
  C   C1422     1.0  0.76306  0.91289  0.78327  1.0000
  H   H1683     1.0  0.66183  0.57931  0.97380  1.0000
  S   S380      1.0  0.63777  0.61976  0.95409  1.0000
  C   C1423     1.0  0.94997  0.71986  0.74666  1.0000
  H   H1684     1.0  0.00647  0.72332  0.75754  1.0000
  S   S381      1.0  0.65325  0.85023  0.75974  1.0000
  Fe  Fe190     1.0  0.74252  0.53299  0.84229  1.0000
  H   H1685     1.0  0.80323  0.84543  0.78837  1.0000
  C   C1424     1.0  0.00498  0.65993  0.77830  1.0000
  H   H1686     1.0  0.61396  0.54315  0.93100  1.0000
  H   H1687     1.0  0.98134  0.83331  0.82115  1.0000
  H   H1688     1.0  0.67194  0.94126  0.93027  1.0000
  H   H1689     1.0  0.66058  0.97740  0.94463  1.0000
  C   C1425     1.0  0.63295  0.53864  0.92946  1.0000
  H   H1690     1.0  0.69737  0.93694  0.94550  1.0000
  H   H1691     1.0  0.56566  0.57226  0.75733  1.0000
  H   H1692     1.0  0.00152  0.67100  0.79199  1.0000
  H   H1693     1.0  0.98945  0.64932  0.77720  1.0000
  C   C1426     1.0  0.98788  0.81814  0.81299  1.0000
  N   N94       1.0  0.80496  0.86679  0.75951  1.0000
  C   C1427     1.0  0.78352  0.88067  0.76526  1.0000
  H   H1694     1.0  0.63786  0.92180  0.96568  1.0000
  H   H1695     1.0  0.82396  0.59352  0.76726  1.0000
  H   H1696     1.0  0.83608  0.75367  0.80007  1.0000
  C   C1428     1.0  0.00427  0.77960  0.79114  1.0000
  H   H1697     1.0  0.62266  0.99921  0.87905  1.0000
  C   C1429     1.0  0.75641  0.56987  0.78469  1.0000
  C   C1430     1.0  0.74302  0.58993  0.78881  1.0000
  H   H1698     1.0  0.82013  0.83266  0.76713  1.0000
  C   C1431     1.0  0.82181  0.58376  0.75288  1.0000
  C   C1432     1.0  0.69376  0.64236  0.96440  1.0000
  S   S382      1.0  0.71052  0.52986  0.82393  1.0000
  S   S383      1.0  0.87892  0.69172  0.75346  1.0000
  H   H1699     1.0  0.52393  0.73719  0.99186  1.0000
  H   H1700     1.0  0.64029  0.65877  0.98300  1.0000
  H   H1701     1.0  0.64114  0.55349  0.92031  1.0000
  H   H1702     1.0  0.69187  0.56427  0.75659  1.0000
  C   C1433     1.0  0.64089  0.94071  0.96385  1.0000
  H   H1703     1.0  0.76362  0.92787  0.79289  1.0000
  H   H1704     1.0  0.68654  0.97609  0.95886  1.0000
  H   H1705     1.0  0.65349  0.66858  0.95834  1.0000
  Fe  Fe191     1.0  0.61210  0.85852  0.99293  1.0000
  H   H1706     1.0  0.71240  0.58742  0.75417  1.0000
  S   S384      1.0  0.61626  0.57476  0.74702  1.0000
  H   H1707     1.0  0.53124  0.68712  0.75090  1.0000
  H   H1708     1.0  0.65829  0.98103  0.97233  1.0000
  H   H1709     1.0  0.69788  0.94020  0.75627  1.0000
  H   H1710     1.0  0.67867  0.70969  0.97624  1.0000
  H   H1711     1.0  0.01074  0.59625  0.81881  1.0000
  H   H1712     1.0  0.60966  0.72960  0.98435  1.0000
  H   H1713     1.0  0.54285  0.76947  0.98120  1.0000
  H   H1714     1.0  0.64087  0.68940  0.97579  1.0000
  H   H1715     1.0  0.52200  0.54767  0.75862  1.0000
  H   H1716     1.0  0.72405  0.88000  0.76155  1.0000
  H   H1717     1.0  0.73081  0.55185  0.75000  1.0000
  C   C1434     1.0  0.76136  0.87348  0.75985  1.0000
  H   H1718     1.0  0.71087  0.61466  0.94728  1.0000
  C   C1435     1.0  0.97102  0.72936  0.75077  1.0000
  Fe  Fe192     1.0  0.62005  0.61425  0.98626  1.0000
  H   H1719     1.0  0.57130  0.76911  0.99165  1.0000
  H   H1720     1.0  0.55309  0.79524  0.99094  1.0000
  H   H1721     1.0  0.70491  0.69255  0.98123  1.0000
  H   H1722     1.0  0.65280  0.01305  0.85307  1.0000
  C   C1436     1.0  0.71092  0.60723  0.98076  1.0000
  H   H1723     1.0  0.71991  0.59043  0.97929  1.0000
  C   C1437     1.0  0.68640  0.65080  0.98433  1.0000
  C   C1438     1.0  0.67544  0.91218  0.98946  1.0000
  N   N95       1.0  0.67353  0.67356  0.98561  1.0000
  H   H1724     1.0  0.58289  0.53340  0.74667  1.0000
  H   H1725     1.0  0.60611  0.73869  0.74382  1.0000
  H   H1726     1.0  0.53304  0.52008  0.74897  1.0000
  H   H1727     1.0  0.53962  0.58398  0.74540  1.0000
  C   C1439     1.0  0.01185  0.81406  0.80947  1.0000
  C   C1440     1.0  0.62913  0.51955  0.89731  1.0000
  N   N96       1.0  0.63764  0.51633  0.91902  1.0000
  H   H1728     1.0  0.80838  0.62790  0.74390  1.0000
