data_image0
_chemical_formula_structural       FeSHS2FeSFeCSCFeS2FeHC3SHCNHC7HSH4CSHC2H3CHCFeH4CH4CFeSC2HSHC3FeSCFeS2FeSFeS3FeS2FeSHFeSFeSHS3H2FeS2FeSFeSFeS3FeS2FeSFeSFeS3C6H4C6H4C6H6C3HCSHCH2CH2C4HC7H4C6H4C6H7SH2CHC3H2SCSNC7H12NC9HCH4CH7NC7H13CNHNH2CHC4H2CH6C2H2C2H2CH3C3HC4H3C3H6CH3CNC2H2CH3CH5C2HNH2C5H2SH3CH3C2HCHCH2C2HCH2CHFeH5C3H3CHC2HCH2C2H3FeS2FeSFeSFeS3CFeSFeS2FeSFeS3C5H7C2H2C7H4C2H3CHC2H3C2H2CH2CH3C3NCSH3NHNH2CFeC2H4CHC2NHC2SNHCH2CHCH7CHS2H2SCHC2HFeH2CH3SH3CNC5HCH2C2FeH5CHCHC3HCH2CHC2H4CHCHCH3CHCHFeSFeS2FeSFeS3CSC2H2SH2CH2SFeS2FeSFeSC2HC2SC6SCH2CSHCH3C6H2CHC3H6C3HC6H3CH4C2H3C6H5CHCNC3H4FeH7CH2CH3CH3CHNC3SH2CH3CH2CHC4FeCNH4CH2SHC4HSNS2H7CH3CNH3CFeCH2CH2SHFeHCSCH3CHCFeHCHC3NH2CSHFeSFeS4NFeS2FeS2FeSFeS3FeSHFeSHFeSFeS3CH3C7H4C2HCSHSH2CSHC2H2CSFeCH2C7H4C4HCHC8H6C3NCH2S2NC9H11NC9H14C2FeSCHCHFeH2SFeC4HCH2CH6FeC2H2FeCSCHNC9H6CH9C3H3CH2CNHSHC4H5C2HCHCHFeC2HFeH3C2SHCH2C2SHCHC2H2CH3CH3SNCHCHCHCHCH6C2HCH2C2H3NCHC2H5SCH7CH2SHC2FeSFeS2FeSFeS3FeSFeS2FeSFeS3HFeCFeSH6CFeS2FeS2FeS2FeSFeS3FeS2FeS2Fe2S3C6H4C6H4C6H4C2HCSC6H4C6H4C3SC2H4C4HC2HCHC6H6NC5H11CHSCFeHC6NC9H17CH2CHNC3H5CH2NC6H2NH9CH3CNC3H10C3H4C2H2C4HCHCH6CHCHC2H4C2HSH3NHC4NCHCH4SCH3CH2CH2SC3H8C2HCHSC2H4CH2CHC2H2NC2NH3CSHCHCSH2FeC2HCHC3H3CHC2FeSHFeS2FeSFeS3FeS2FeS2FeHFeS3H2C2H2SFeSH2C2FeS2FeS2FeSFeS3CHC9H10C2H2C4HCH3C7H4C2H2C2HC2HC6H4C6H3CHC2H3CH3CH2CH6CH4SHNSH2CH4CH2CH2C4HCHCHNH4C3H3CHCNHCHC2HNCH3C2HCH3C2HCHC2H3CNCH2C2HCHC3HCHC4HCH2CHCH2CHCH5C4HCH6C2HCNH2CHCH2CH2C2NC2SH3SHC5SHNH2FeS2HC2H2FeHS2CH2FeS2FeSHFeSFeSCSHC6H3CHC6H5C3HCH2FeCH2CH4C2HNH2C3H2C5HSHCNC9H12C2HCHCH4CHC4HCH3CSHSHC2HNC2HCH2C2HCHCHC3FeHNHCHSH3CHCHC2H2SCHCHCHCH2FeH2CHCH2SC2H4NC3H2CHCHC2HC3SH2CHNSH2NFeCHCH5SCFeCHC2H3CHC2SH3CHCH3CH2CH3CS2FeH2FeS2FeSHS2CH5C2FeS2HCFeH3SH3C2FeC2SCSCHC5H3C7H3CH4C3H2C6HSH6NC6H4SNHC4HC2HC2H8SCHFeH6NHC2H2CH4C2SHC4HSC2HCHC4HCSH2SFeSNSHC3H4C3H3CFeCH6FeH3SC3HCH2CHC3SH2NSHC2H2CH2CH2C3HFeS2FeS2FeSFeS3FeS2FeS2FeSFeS3H2SH2CFeSHSFeSHCHFeS2FeSHFeSFeS3C6H2SHCH3SCHC2HC2HC7H4C6H4C3H2C6HCH2C6H4C6H4CH2CH3CFeHC3HC3HCHNC9H15NC9H14NC7HCH14NC9H15CH3CH5CHNH3CHCHC3H2C2HNHC3H4CHC2SC2H3CHNH3CH3N2CH2CH2C2H4NHCH3CH4SHCHSHCH2SFeS2Fe2S2HCFeS2FeHFeS3CHC2H2C3SCH2C7H3C8H4CSHCFeC3FeCHCH3C2SNC3HCH2C2SC2H2NHCFeCHCH2NC3H4SCH2C2HSHC2HCH2CH2CH3C2NCH3CH2CH2CHCHC2HSC2H8C5H4C2H2CHCH3CH5
_chemical_formula_sum              "Fe144 S288 H1296 C1080 N72"
_cell_length_a       84.9829
_cell_length_b       84.6364
_cell_length_c       32.1697
_cell_angle_alpha    84.9174
_cell_angle_beta     84.2308
_cell_angle_gamma    109.104

_space_group_name_H-M_alt    "P 1"
_space_group_IT_number       1

loop_
  _space_group_symop_operation_xyz
  'x, y, z'

loop_
  _atom_site_type_symbol
  _atom_site_label
  _atom_site_symmetry_multiplicity
  _atom_site_fract_x
  _atom_site_fract_y
  _atom_site_fract_z
  _atom_site_occupancy
  Fe  Fe1       1.0  0.02256  0.47216  0.50482  1.0000
  S   S1        1.0  0.04135  0.46028  0.48155  1.0000
  H   H1        1.0  0.10880  0.46503  0.93779  1.0000
  S   S2        1.0  0.05330  0.47875  0.95308  1.0000
  S   S3        1.0  0.04234  0.49602  0.51618  1.0000
  Fe  Fe2       1.0  0.03993  0.47248  0.41710  1.0000
  S   S4        1.0  0.03215  0.45875  0.36106  1.0000
  Fe  Fe3       1.0  0.06113  0.48526  0.48802  1.0000
  C   C1        1.0  0.09040  0.46075  0.84710  1.0000
  S   S5        1.0  0.01990  0.48261  0.44083  1.0000
  C   C2        1.0  0.08246  0.45272  0.93603  1.0000
  Fe  Fe4       1.0  0.04454  0.47934  0.11526  1.0000
  S   S6        1.0  0.01995  0.48351  0.12710  1.0000
  S   S7        1.0  0.06112  0.48221  0.16711  1.0000
  Fe  Fe5       1.0  0.04289  0.47901  0.02056  1.0000
  H   H2        1.0  0.11465  0.48805  0.79963  1.0000
  C   C3        1.0  0.07469  0.48972  0.93387  1.0000
  C   C4        1.0  0.10305  0.46504  0.87405  1.0000
  C   C5        1.0  0.11174  0.47597  0.78578  1.0000
  S   S8        1.0  0.03477  0.45825  0.07572  1.0000
  H   H3        1.0  0.06952  0.46561  0.78992  1.0000
  C   C6        1.0  0.08298  0.47360  0.78447  1.0000
  N   N1        1.0  0.09414  0.46485  0.80062  1.0000
  H   H4        1.0  0.08611  0.47751  0.74978  1.0000
  C   C7        1.0  0.08118  0.49223  0.59762  1.0000
  C   C8        1.0  0.04004  0.46684  0.30761  1.0000
  C   C9        1.0  0.05670  0.47739  0.29511  1.0000
  C   C10       1.0  0.06295  0.48221  0.25193  1.0000
  C   C11       1.0  0.05253  0.47676  0.22098  1.0000
  C   C12       1.0  0.03573  0.46672  0.23355  1.0000
  C   C13       1.0  0.02959  0.46161  0.27665  1.0000
  H   H5        1.0  0.06496  0.48121  0.31861  1.0000
  S   S9        1.0  0.06123  0.49621  0.42101  1.0000
  H   H6        1.0  0.02764  0.46233  0.21003  1.0000
  H   H7        1.0  0.01676  0.45328  0.28605  1.0000
  H   H8        1.0  0.09934  0.44200  0.79308  1.0000
  H   H9        1.0  0.00637  0.42425  0.57757  1.0000
  C   C14       1.0  0.07370  0.45179  0.86673  1.0000
  S   S10       1.0  0.01805  0.48328  0.02568  1.0000
  H   H10       1.0  0.08422  0.48523  0.79940  1.0000
  C   C15       1.0  0.09130  0.44904  0.78143  1.0000
  C   C16       1.0  0.09904  0.46103  0.91780  1.0000
  H   H11       1.0  0.08338  0.48955  0.99445  1.0000
  H   H12       1.0  0.07737  0.49267  0.66483  1.0000
  H   H13       1.0  0.06791  0.48712  0.59520  1.0000
  C   C17       1.0  0.06982  0.44806  0.91055  1.0000
  H   H14       1.0  0.06344  0.44783  0.84848  1.0000
  C   C18       1.0  0.08699  0.49311  0.96081  1.0000
  Fe  Fe6       1.0  0.01071  0.46428  0.08326  1.0000
  H   H15       1.0  0.07007  0.49182  0.86936  1.0000
  H   H16       1.0  0.12100  0.46983  0.79366  1.0000
  H   H17       1.0  0.09428  0.45162  0.74640  1.0000
  H   H18       1.0  0.05687  0.44199  0.92505  1.0000
  C   C19       1.0  0.09296  0.49524  0.56159  1.0000
  H   H19       1.0  0.11410  0.47935  0.75090  1.0000
  H   H20       1.0  0.11610  0.47204  0.86247  1.0000
  H   H21       1.0  0.07801  0.44050  0.78892  1.0000
  H   H22       1.0  0.07932  0.45029  0.97004  1.0000
  C   C20       1.0  0.08661  0.49541  0.63709  1.0000
  Fe  Fe7       1.0  0.02921  0.50189  0.06854  1.0000
  S   S11       1.0  0.08690  0.49120  0.51102  1.0000
  C   C21       1.0  0.07956  0.49435  0.89027  1.0000
  C   C22       1.0  0.10410  0.50031  0.94397  1.0000
  H   H23       1.0  0.07601  0.48985  0.24242  1.0000
  S   S12       1.0  0.05463  0.49939  0.05900  1.0000
  H   H24       1.0  0.11360  0.50233  0.96486  1.0000
  C   C23       1.0  0.09663  0.50192  0.87356  1.0000
  C   C24       1.0  0.10384  0.50196  0.64103  1.0000
  C   C25       1.0  0.11019  0.50197  0.56546  1.0000
  Fe  Fe8       1.0  0.18160  0.69907  0.83349  1.0000
  S   S13       1.0  0.17004  0.67996  0.89192  1.0000
  C   C26       1.0  0.17716  0.62716  0.70945  1.0000
  Fe  Fe9       1.0  0.15254  0.68135  0.78465  1.0000
  S   S14       1.0  0.13922  0.66140  0.83864  1.0000
  S   S15       1.0  0.14211  0.68289  0.72274  1.0000
  Fe  Fe10      1.0  0.14526  0.68231  0.87895  1.0000
  S   S16       1.0  0.12160  0.68020  0.92208  1.0000
  Fe  Fe11      1.0  0.16463  0.66041  0.84726  1.0000
  S   S17       1.0  0.16806  0.63526  0.86266  1.0000
  S   S18       1.0  0.15696  0.70278  0.82376  1.0000
  S   S19       1.0  0.17776  0.67890  0.78998  1.0000
  Fe  Fe12      1.0  0.16936  0.53558  0.74138  1.0000
  S   S20       1.0  0.15412  0.54472  0.69638  1.0000
  S   S21       1.0  0.19766  0.54175  0.71989  1.0000
  Fe  Fe13      1.0  0.13950  0.52311  0.81152  1.0000
  S   S22       1.0  0.12279  0.53155  0.77270  1.0000
  H   H25       1.0  0.10578  0.61558  0.05816  1.0000
  Fe  Fe14      1.0  0.13291  0.52037  0.71986  1.0000
  S   S23       1.0  0.14869  0.51029  0.76066  1.0000
  Fe  Fe15      1.0  0.14488  0.55500  0.75223  1.0000
  S   S24       1.0  0.13836  0.57888  0.74669  1.0000
  H   H26       1.0  0.20068  0.74002  0.74656  1.0000
  S   S25       1.0  0.16109  0.54759  0.79538  1.0000
  S   S26       1.0  0.04071  0.53093  0.42810  1.0000
  S   S27       1.0  0.02792  0.60979  0.08635  1.0000
  H   H27       1.0  0.14873  0.64872  0.01715  1.0000
  H   H28       1.0  0.10375  0.66346  0.38626  1.0000
  Fe  Fe16      1.0  0.07091  0.61775  0.61668  1.0000
  S   S28       1.0  0.07239  0.60055  0.56819  1.0000
  S   S29       1.0  0.08804  0.61920  0.66753  1.0000
  Fe  Fe17      1.0  0.03854  0.62101  0.58942  1.0000
  S   S30       1.0  0.03744  0.60413  0.53911  1.0000
  Fe  Fe18      1.0  0.04478  0.58818  0.58750  1.0000
  S   S31       1.0  0.03326  0.56008  0.59787  1.0000
  Fe  Fe19      1.0  0.06513  0.61798  0.52299  1.0000
  S   S32       1.0  0.07904  0.62308  0.45620  1.0000
  S   S33       1.0  0.04347  0.60377  0.63934  1.0000
  S   S34       1.0  0.06603  0.63655  0.56997  1.0000
  Fe  Fe20      1.0  0.08202  0.63306  0.14574  1.0000
  S   S35       1.0  0.08074  0.61745  0.20740  1.0000
  S   S36       1.0  0.10701  0.65285  0.11782  1.0000
  Fe  Fe21      1.0  0.04556  0.61369  0.13590  1.0000
  S   S37       1.0  0.04117  0.59682  0.19677  1.0000
  Fe  Fe22      1.0  0.05548  0.62003  0.22385  1.0000
  S   S38       1.0  0.04511  0.62405  0.28864  1.0000
  Fe  Fe23      1.0  0.06666  0.59563  0.17617  1.0000
  S   S39       1.0  0.07131  0.57108  0.18188  1.0000
  S   S40       1.0  0.05768  0.63747  0.16427  1.0000
  S   S41       1.0  0.07023  0.61078  0.11321  1.0000
  C   C27       1.0  0.06866  0.62137  0.41077  1.0000
  C   C28       1.0  0.05245  0.62219  0.41181  1.0000
  C   C29       1.0  0.04529  0.62264  0.37422  1.0000
  C   C30       1.0  0.05410  0.62196  0.33541  1.0000
  C   C31       1.0  0.07002  0.62041  0.33464  1.0000
  C   C32       1.0  0.07732  0.62032  0.37207  1.0000
  H   H29       1.0  0.04575  0.62323  0.44129  1.0000
  H   H30       1.0  0.03304  0.62397  0.37505  1.0000
  H   H31       1.0  0.07689  0.61966  0.30517  1.0000
  H   H32       1.0  0.08986  0.61969  0.37097  1.0000
  C   C33       1.0  0.03720  0.53852  0.09953  1.0000
  C   C34       1.0  0.04787  0.53226  0.12106  1.0000
  C   C35       1.0  0.05844  0.54228  0.14634  1.0000
  C   C36       1.0  0.05804  0.55840  0.15083  1.0000
  C   C37       1.0  0.04704  0.56446  0.13017  1.0000
  C   C38       1.0  0.03663  0.55454  0.10453  1.0000
  H   H33       1.0  0.04812  0.51975  0.11819  1.0000
  H   H34       1.0  0.06696  0.53755  0.16217  1.0000
  H   H35       1.0  0.04656  0.57684  0.13357  1.0000
  H   H36       1.0  0.02823  0.55940  0.08869  1.0000
  C   C39       1.0  0.03611  0.53953  0.47310  1.0000
  C   C40       1.0  0.02690  0.52884  0.50927  1.0000
  C   C41       1.0  0.02543  0.53532  0.54740  1.0000
  C   C42       1.0  0.03306  0.55253  0.54915  1.0000
  C   C43       1.0  0.04137  0.56339  0.51236  1.0000
  C   C44       1.0  0.04285  0.55688  0.47419  1.0000
  H   H37       1.0  0.05650  0.52932  0.54776  1.0000
  H   H38       1.0  0.01899  0.52690  0.57582  1.0000
  H   H39       1.0  0.04737  0.57670  0.51350  1.0000
  H   H40       1.0  0.04996  0.56519  0.44617  1.0000
  H   H41       1.0  0.14882  0.63021  0.04924  1.0000
  H   H42       1.0  0.02956  0.54161  0.24663  1.0000
  C   C45       1.0  0.03535  0.54838  0.27111  1.0000
  C   C46       1.0  0.06125  0.66896  0.79801  1.0000
  C   C47       1.0  0.22141  0.73884  0.82982  1.0000
  H   H43       1.0  0.13045  0.64535  0.95896  1.0000
  C   C48       1.0  0.10953  0.60514  0.04928  1.0000
  S   S42       1.0  0.02488  0.52655  0.06562  1.0000
  H   H44       1.0  0.00660  0.59840  0.16753  1.0000
  C   C49       1.0  0.05028  0.56832  0.33082  1.0000
  H   H45       1.0  0.11307  0.63448  0.99841  1.0000
  H   H46       1.0  0.02132  0.53697  0.97163  1.0000
  C   C50       1.0  0.17536  0.64237  0.71804  1.0000
  H   H47       1.0  0.09274  0.65811  0.74738  1.0000
  H   H48       1.0  0.05685  0.52280  0.35077  1.0000
  C   C51       1.0  0.14827  0.62575  0.96716  1.0000
  C   C52       1.0  0.21404  0.53796  0.74590  1.0000
  C   C53       1.0  0.21090  0.52427  0.77715  1.0000
  C   C54       1.0  0.22441  0.52061  0.79324  1.0000
  H   H49       1.0  0.10254  0.54595  0.51898  1.0000
  C   C55       1.0  0.05317  0.65611  0.73541  1.0000
  C   C56       1.0  0.11090  0.66009  0.06321  1.0000
  C   C57       1.0  0.12744  0.66915  0.04424  1.0000
  C   C58       1.0  0.13098  0.67494  0.00076  1.0000
  C   C59       1.0  0.11789  0.67222  0.97620  1.0000
  C   C60       1.0  0.10132  0.66334  0.99526  1.0000
  C   C61       1.0  0.09786  0.65704  0.03844  1.0000
  H   H50       1.0  0.13757  0.67170  0.06328  1.0000
  H   H51       1.0  0.14375  0.68196  0.98652  1.0000
  H   H52       1.0  0.09110  0.66129  0.97659  1.0000
  H   H53       1.0  0.08505  0.65018  0.05274  1.0000
  C   C62       1.0  0.12690  0.66518  0.70796  1.0000
  C   C63       1.0  0.11954  0.66704  0.67143  1.0000
  C   C64       1.0  0.10733  0.65317  0.65893  1.0000
  C   C65       1.0  0.10244  0.63734  0.68294  1.0000
  C   C66       1.0  0.10974  0.63552  0.71961  1.0000
  C   C67       1.0  0.12192  0.64936  0.73207  1.0000
  H   H54       1.0  0.12333  0.67927  0.65264  1.0000
  H   H55       1.0  0.10185  0.65471  0.63055  1.0000
  H   H56       1.0  0.10610  0.62327  0.73822  1.0000
  H   H57       1.0  0.12762  0.64770  0.75993  1.0000
  C   C68       1.0  0.16001  0.61986  0.82964  1.0000
  C   C69       1.0  0.14800  0.62112  0.80404  1.0000
  C   C70       1.0  0.14143  0.60846  0.77881  1.0000
  C   C71       1.0  0.14699  0.59457  0.77853  1.0000
  C   C72       1.0  0.15900  0.59331  0.80409  1.0000
  C   C73       1.0  0.16539  0.60586  0.82981  1.0000
  H   H58       1.0  0.14384  0.63189  0.80345  1.0000
  H   H59       1.0  0.13218  0.60959  0.75907  1.0000
  H   H60       1.0  0.16346  0.58273  0.80394  1.0000
  H   H61       1.0  0.17474  0.60485  0.84942  1.0000
  H   H62       1.0  0.13087  0.63689  0.05452  1.0000
  H   H63       1.0  0.21640  0.50545  0.70360  1.0000
  H   H64       1.0  0.05622  0.57620  0.35362  1.0000
  S   S43       1.0  0.10981  0.50460  0.69222  1.0000
  H   H65       1.0  0.07725  0.53980  0.29202  1.0000
  H   H66       1.0  0.08936  0.58731  0.09344  1.0000
  C   C74       1.0  0.12309  0.63264  0.97638  1.0000
  H   H67       1.0  0.05745  0.67449  0.82451  1.0000
  C   C75       1.0  0.07737  0.66720  0.79102  1.0000
  C   C76       1.0  0.24437  0.54476  0.74897  1.0000
  C   C77       1.0  0.08077  0.65975  0.75488  1.0000
  H   H68       1.0  0.03717  0.66491  0.77619  1.0000
  H   H69       1.0  0.04395  0.65184  0.71412  1.0000
  S   S44       1.0  0.01841  0.63270  0.60077  1.0000
  C   C78       1.0  0.24688  0.53835  0.61479  1.0000
  S   S45       1.0  0.13058  0.51222  0.88002  1.0000
  N   N2        1.0  0.11257  0.56250  0.89068  1.0000
  C   C79       1.0  0.11818  0.54924  0.87318  1.0000
  C   C80       1.0  0.10724  0.57141  0.85602  1.0000
  C   C81       1.0  0.12741  0.57453  0.90523  1.0000
  C   C82       1.0  0.09845  0.55576  0.92563  1.0000
  C   C83       1.0  0.09303  0.56686  0.94945  1.0000
  C   C84       1.0  0.08919  0.53825  0.93582  1.0000
  C   C85       1.0  0.07961  0.56074  0.98232  1.0000
  H   H70       1.0  0.10827  0.54047  0.85798  1.0000
  H   H71       1.0  0.12926  0.55470  0.84817  1.0000
  H   H72       1.0  0.12200  0.54177  0.89806  1.0000
  H   H73       1.0  0.09593  0.56283  0.84478  1.0000
  H   H74       1.0  0.11727  0.57620  0.82841  1.0000
  H   H75       1.0  0.10415  0.58245  0.86572  1.0000
  H   H76       1.0  0.13087  0.56861  0.93362  1.0000
  H   H77       1.0  0.13864  0.57861  0.88063  1.0000
  H   H78       1.0  0.12539  0.58634  0.91256  1.0000
  H   H79       1.0  0.09908  0.58036  0.94275  1.0000
  H   H80       1.0  0.09208  0.52882  0.91915  1.0000
  H   H81       1.0  0.07583  0.56940  0.00060  1.0000
  N   N3        1.0  0.08057  0.54535  0.56005  1.0000
  C   C86       1.0  0.06353  0.53306  0.57469  1.0000
  C   C87       1.0  0.07900  0.56056  0.53654  1.0000
  C   C88       1.0  0.08932  0.53767  0.52970  1.0000
  C   C89       1.0  0.08927  0.54979  0.59725  1.0000
  C   C90       1.0  0.08412  0.55968  0.62563  1.0000
  C   C91       1.0  0.10224  0.54364  0.60794  1.0000
  C   C92       1.0  0.09185  0.56363  0.66157  1.0000
  C   C93       1.0  0.10976  0.54750  0.64423  1.0000
  C   C94       1.0  0.10466  0.55755  0.67085  1.0000
  H   H82       1.0  0.13854  0.59403  0.98780  1.0000
  C   C95       1.0  0.00813  0.52963  0.97413  1.0000
  H   H83       1.0  0.07153  0.54165  0.24022  1.0000
  H   H84       1.0  0.07009  0.56548  0.55422  1.0000
  H   H85       1.0  0.07394  0.55786  0.50632  1.0000
  H   H86       1.0  0.09137  0.57090  0.52900  1.0000
  C   C96       1.0  0.00615  0.59905  0.10067  1.0000
  H   H87       1.0  0.08927  0.52515  0.54337  1.0000
  H   H88       1.0  0.08293  0.53518  0.50112  1.0000
  H   H89       1.0  0.07380  0.56416  0.62080  1.0000
  H   H90       1.0  0.10657  0.53550  0.58928  1.0000
  H   H91       1.0  0.08766  0.57121  0.68269  1.0000
  H   H92       1.0  0.11933  0.54229  0.65229  1.0000
  H   H93       1.0  0.11043  0.56033  0.69917  1.0000
  N   N4        1.0  0.14291  0.61176  0.63889  1.0000
  C   C97       1.0  0.12548  0.60570  0.66107  1.0000
  C   C98       1.0  0.14346  0.62203  0.59850  1.0000
  C   C99       1.0  0.14715  0.59673  0.62849  1.0000
  C   C100      1.0  0.15432  0.62216  0.66566  1.0000
  C   C101      1.0  0.16683  0.61713  0.68371  1.0000
  C   C102      1.0  0.15280  0.63770  0.67530  1.0000
  C   C103      1.0  0.16322  0.64764  0.70096  1.0000
  H   H94       1.0  0.12113  0.61626  0.66821  1.0000
  H   H95       1.0  0.11637  0.59804  0.64189  1.0000
  H   H96       1.0  0.12442  0.59789  0.69160  1.0000
  H   H97       1.0  0.13806  0.63220  0.60297  1.0000
  H   H98       1.0  0.13593  0.61431  0.57644  1.0000
  H   H99       1.0  0.15661  0.62806  0.58248  1.0000
  H   H100      1.0  0.16024  0.60040  0.61209  1.0000
  H   H101      1.0  0.14576  0.58777  0.65726  1.0000
  H   H102      1.0  0.13860  0.58940  0.60763  1.0000
  H   H103      1.0  0.16858  0.60526  0.67965  1.0000
  H   H104      1.0  0.14333  0.64220  0.66367  1.0000
  H   H105      1.0  0.16169  0.65939  0.70818  1.0000
  H   H106      1.0  0.22177  0.50974  0.81663  1.0000
  C   C104      1.0  0.14087  0.63565  0.03124  1.0000
  N   N5        1.0  0.13390  0.62507  0.99857  1.0000
  H   H107      1.0  0.22705  0.73599  0.71976  1.0000
  N   N6        1.0  0.05083  0.52787  0.28809  1.0000
  H   H108      1.0  0.01131  0.53742  0.40119  1.0000
  H   H109      1.0  0.22442  0.54094  0.59362  1.0000
  C   C105      1.0  0.21184  0.75094  0.73561  1.0000
  H   H110      1.0  0.07253  0.52192  0.26359  1.0000
  C   C106      1.0  0.04798  0.51696  0.32888  1.0000
  C   C107      1.0  0.03171  0.56300  0.27789  1.0000
  C   C108      1.0  0.22949  0.53445  0.61646  1.0000
  C   C109      1.0  0.01694  0.56262  0.99976  1.0000
  H   H111      1.0  0.02235  0.56530  0.96590  1.0000
  H   H112      1.0  0.04333  0.52433  0.22641  1.0000
  C   C110      1.0  0.11812  0.57719  0.03044  1.0000
  H   H113      1.0  0.11690  0.62463  0.95303  1.0000
  H   H114      1.0  0.02140  0.51550  0.50817  1.0000
  H   H115      1.0  0.02430  0.55628  0.01736  1.0000
  H   H116      1.0  0.12145  0.56627  0.02368  1.0000
  H   H117      1.0  0.03674  0.58460  0.31168  1.0000
  H   H118      1.0  0.15551  0.63892  0.95226  1.0000
  C   C111      1.0  0.04083  0.51741  0.25877  1.0000
  C   C112      1.0  0.04940  0.66348  0.77042  1.0000
  H   H119      1.0  0.18314  0.64989  0.73881  1.0000
  H   H120      1.0  0.01913  0.57502  0.01185  1.0000
  C   C113      1.0  0.06881  0.53300  0.27030  1.0000
  C   C114      1.0  0.03925  0.57302  0.30741  1.0000
  H   H121      1.0  0.18627  0.62286  0.72394  1.0000
  H   H122      1.0  0.06265  0.55065  0.34332  1.0000
  C   C115      1.0  0.07568  0.53229  0.96837  1.0000
  H   H123      1.0  0.19809  0.51618  0.78801  1.0000
  H   H124      1.0  0.09457  0.68358  0.87744  1.0000
  H   H125      1.0  0.05299  0.66245  0.39062  1.0000
  C   C116      1.0  0.23090  0.54820  0.73211  1.0000
  C   C117      1.0  0.04649  0.54316  0.29466  1.0000
  C   C118      1.0  0.10428  0.57509  0.06028  1.0000
  H   H126      1.0  0.05588  0.53829  0.59598  1.0000
  C   C119      1.0  0.10000  0.58903  0.06964  1.0000
  C   C120      1.0  0.07099  0.54348  0.99186  1.0000
  C   C121      1.0  0.05389  0.55365  0.32460  1.0000
  C   C122      1.0  0.06883  0.65424  0.72769  1.0000
  H   H127      1.0  0.09690  0.56266  0.07659  1.0000
  H   H128      1.0  0.09064  0.65750  0.20608  1.0000
  H   H129      1.0  0.06883  0.51885  0.97533  1.0000
  C   C123      1.0  0.24126  0.53071  0.77907  1.0000
  C   C124      1.0  0.12380  0.60780  0.01888  1.0000
  C   C125      1.0  0.08939  0.65662  0.24114  1.0000
  H   H130      1.0  0.10017  0.68908  0.20564  1.0000
  H   H131      1.0  0.10159  0.65629  0.24993  1.0000
  H   H132      1.0  0.07156  0.67255  0.20338  1.0000
  H   H133      1.0  0.14401  0.61850  0.94073  1.0000
  H   H134      1.0  0.10355  0.66119  0.85976  1.0000
  H   H135      1.0  0.06060  0.53873  0.01739  1.0000
  C   C126      1.0  0.07835  0.66323  0.39306  1.0000
  H   H136      1.0  0.07175  0.64845  0.70044  1.0000
  H   H137      1.0  0.07969  0.64430  0.25431  1.0000
  H   H138      1.0  0.23355  0.55880  0.70793  1.0000
  C   C127      1.0  0.23869  0.74480  0.81397  1.0000
  N   N7        1.0  0.08466  0.67061  0.25689  1.0000
  C   C128      1.0  0.09833  0.68675  0.24075  1.0000
  C   C129      1.0  0.06938  0.67090  0.23849  1.0000
  H   H139      1.0  0.11064  0.68694  0.24997  1.0000
  H   H140      1.0  0.05875  0.65879  0.24816  1.0000
  C   C130      1.0  0.12782  0.59327  0.00995  1.0000
  H   H141      1.0  0.24390  0.73677  0.79700  1.0000
  H   H142      1.0  0.09547  0.69756  0.25298  1.0000
  H   H143      1.0  0.06530  0.68144  0.24791  1.0000
  C   C131      1.0  0.08227  0.66824  0.30360  1.0000
  H   H144      1.0  0.10768  0.66827  0.30930  1.0000
  H   H145      1.0  0.06415  0.52137  0.59229  1.0000
  H   H146      1.0  0.07667  0.66067  0.42718  1.0000
  H   H147      1.0  0.15747  0.62101  0.98175  1.0000
  H   H148      1.0  0.05573  0.66649  0.31449  1.0000
  C   C132      1.0  0.06681  0.66656  0.32830  1.0000
  C   C133      1.0  0.09565  0.66736  0.32582  1.0000
  H   H149      1.0  0.11130  0.68104  0.76966  1.0000
  N   N8        1.0  0.09022  0.67257  0.81966  1.0000
  H   H150      1.0  0.11550  0.69005  0.81697  1.0000
  H   H151      1.0  0.10270  0.69687  0.78295  1.0000
  C   C134      1.0  0.06501  0.66421  0.37235  1.0000
  C   C135      1.0  0.09476  0.65790  0.83589  1.0000
  C   C136      1.0  0.09362  0.66477  0.36986  1.0000
  C   C137      1.0  0.10554  0.68569  0.79634  1.0000
  C   C138      1.0  0.08458  0.67968  0.85666  1.0000
  H   H152      1.0  0.08341  0.64727  0.85107  1.0000
  H   H153      1.0  0.10126  0.65318  0.81061  1.0000
  S   S46       1.0  0.20867  0.71833  0.82018  1.0000
  H   H154      1.0  0.08159  0.69120  0.84688  1.0000
  H   H155      1.0  0.07345  0.67026  0.87668  1.0000
  H   H156      1.0  0.02328  0.56681  0.25940  1.0000
  C   C139      1.0  0.24231  0.51825  0.67711  1.0000
  H   H157      1.0  0.02713  0.51318  0.27021  1.0000
  H   H158      1.0  0.20170  0.74512  0.86412  1.0000
  H   H159      1.0  0.20512  0.52001  0.65056  1.0000
  C   C140      1.0  0.21492  0.74942  0.85177  1.0000
  C   C141      1.0  0.22495  0.51433  0.67816  1.0000
  H   H160      1.0  0.24628  0.51187  0.70247  1.0000
  C   C142      1.0  0.21857  0.52254  0.64826  1.0000
  H   H161      1.0  0.03501  0.51416  0.34530  1.0000
  C   C143      1.0  0.22678  0.74871  0.72034  1.0000
  H   H162      1.0  0.12890  0.51034  0.60728  1.0000
  H   H163      1.0  0.01825  0.57176  0.44355  1.0000
  C   C144      1.0  0.01026  0.57529  0.46670  1.0000
  C   C145      1.0  0.00430  0.51347  0.96194  1.0000
  H   H164      1.0  0.01708  0.60061  0.43562  1.0000
  C   C146      1.0  0.00972  0.59161  0.46228  1.0000
  H   H165      1.0  0.01437  0.50904  0.95051  1.0000
  H   H166      1.0  0.00285  0.54324  0.16404  1.0000
  C   C147      1.0  0.11561  0.50543  0.60483  1.0000
  H   H167      1.0  0.10027  0.50528  0.84000  1.0000
  Fe  Fe24      1.0  0.04118  0.50523  0.44945  1.0000
  H   H168      1.0  0.00218  0.55132  0.50307  1.0000
  H   H169      1.0  0.11942  0.50439  0.53780  1.0000
  H   H170      1.0  0.04410  0.50581  0.25539  1.0000
  H   H171      1.0  0.04972  0.50469  0.32476  1.0000
  H   H172      1.0  0.00184  0.51013  0.44495  1.0000
  C   C148      1.0  0.10898  0.50447  0.90026  1.0000
  C   C149      1.0  0.21142  0.76712  0.73822  1.0000
  C   C150      1.0  0.22598  0.78115  0.72574  1.0000
  H   H173      1.0  0.23830  0.83027  0.95576  1.0000
  H   H174      1.0  0.24812  0.81948  0.98964  1.0000
  H   H175      1.0  0.22504  0.79343  0.72885  1.0000
  C   C151      1.0  0.22558  0.76559  0.85795  1.0000
  H   H176      1.0  0.22038  0.77352  0.87530  1.0000
  C   C152      1.0  0.24284  0.77151  0.84206  1.0000
  C   C153      1.0  0.24798  0.82408  0.95621  1.0000
  H   H177      1.0  0.19981  0.76874  0.75082  1.0000
  C   C154      1.0  0.24931  0.76102  0.81974  1.0000
  H   H178      1.0  0.24419  0.81086  0.67435  1.0000
  H   H179      1.0  0.24356  0.81280  0.93926  1.0000
  C   C155      1.0  0.24146  0.76263  0.70803  1.0000
  C   C156      1.0  0.24152  0.77935  0.71060  1.0000
  H   H180      1.0  0.25109  0.79927  0.63660  1.0000
  H   H181      1.0  0.25016  0.80817  0.74771  1.0000
  H   H182      1.0  0.25006  0.85939  0.95083  1.0000
  Fe  Fe25      1.0  0.44116  0.07520  0.95357  1.0000
  S   S47       1.0  0.42381  0.08294  0.99825  1.0000
  S   S48       1.0  0.45055  0.08610  0.88515  1.0000
  Fe  Fe26      1.0  0.45111  0.05639  0.02572  1.0000
  S   S49       1.0  0.43471  0.06249  0.07633  1.0000
  Fe  Fe27      1.0  0.41602  0.05613  0.03010  1.0000
  S   S50       1.0  0.38844  0.04180  0.05113  1.0000
  Fe  Fe28      1.0  0.44403  0.08863  0.04052  1.0000
  S   S51       1.0  0.45437  0.11457  0.06203  1.0000
  S   S52       1.0  0.43188  0.04803  0.98206  1.0000
  S   S53       1.0  0.46176  0.08276  0.99329  1.0000
  C   C157      1.0  0.46348  0.11039  0.18413  1.0000
  Fe  Fe29      1.0  0.46290  0.07877  0.63499  1.0000
  S   S54       1.0  0.44362  0.09141  0.64195  1.0000
  Fe  Fe30      1.0  0.43922  0.04779  0.60353  1.0000
  S   S55       1.0  0.41806  0.05813  0.60902  1.0000
  S   S56       1.0  0.43797  0.02241  0.58355  1.0000
  Fe  Fe31      1.0  0.43784  0.08279  0.57922  1.0000
  S   S57       1.0  0.43410  0.09783  0.52123  1.0000
  Fe  Fe32      1.0  0.42637  0.06563  0.67102  1.0000
  S   S58       1.0  0.41055  0.05856  0.73528  1.0000
  S   S59       1.0  0.45848  0.07183  0.57037  1.0000
  S   S60       1.0  0.44614  0.05356  0.66718  1.0000
  C   C158      1.0  0.45138  0.11485  0.49368  1.0000
  C   C159      1.0  0.45072  0.12106  0.45212  1.0000
  C   C160      1.0  0.46415  0.13474  0.42965  1.0000
  C   C161      1.0  0.38151  0.05870  0.85856  1.0000
  C   C162      1.0  0.46555  0.12256  0.51275  1.0000
  H   H183      1.0  0.43975  0.11534  0.43723  1.0000
  H   H184      1.0  0.46613  0.11802  0.54490  1.0000
  H   H185      1.0  0.46834  0.01465  0.09508  1.0000
  H   H186      1.0  0.35572  0.02428  0.97753  1.0000
  H   H187      1.0  0.49312  0.20775  0.46996  1.0000
  H   H188      1.0  0.45494  0.05512  0.80837  1.0000
  H   H189      1.0  0.48647  0.06183  0.71849  1.0000
  C   C163      1.0  0.43912  0.04782  0.46915  1.0000
  C   C164      1.0  0.46404  0.20694  0.44394  1.0000
  H   H190      1.0  0.35313  0.04272  0.95071  1.0000
  H   H191      1.0  0.40861  0.03029  0.56355  1.0000
  C   C165      1.0  0.49095  0.03872  0.13263  1.0000
  C   C166      1.0  0.43897  0.07816  0.84452  1.0000
  C   C167      1.0  0.42610  0.06247  0.85077  1.0000
  C   C168      1.0  0.41758  0.05635  0.81697  1.0000
  C   C169      1.0  0.42194  0.06585  0.77685  1.0000
  C   C170      1.0  0.43501  0.08137  0.77061  1.0000
  C   C171      1.0  0.44339  0.08754  0.80439  1.0000
  H   H192      1.0  0.42273  0.05512  0.88157  1.0000
  H   H193      1.0  0.40752  0.04431  0.82193  1.0000
  H   H194      1.0  0.43842  0.08883  0.73991  1.0000
  H   H195      1.0  0.45331  0.09969  0.79933  1.0000
  C   C172      1.0  0.46016  0.11904  0.11233  1.0000
  C   C173      1.0  0.45887  0.10627  0.14454  1.0000
  H   H196      1.0  0.45415  0.09322  0.13906  1.0000
  H   H197      1.0  0.47263  0.19005  0.38240  1.0000
  H   H198      1.0  0.37299  0.02348  0.86927  1.0000
  C   C174      1.0  0.47874  0.13657  0.49076  1.0000
  H   H199      1.0  0.45805  0.03756  0.48573  1.0000
  C   C175      1.0  0.37855  0.01995  0.05061  1.0000
  C   C176      1.0  0.40148  0.05494  0.42629  1.0000
  H   H200      1.0  0.48056  0.08923  0.79855  1.0000
  H   H201      1.0  0.49803  0.08811  0.96622  1.0000
  H   H202      1.0  0.35415  0.02172  0.06852  1.0000
  C   C177      1.0  0.49964  0.02762  0.12149  1.0000
  C   C178      1.0  0.46950  0.12729  0.19194  1.0000
  H   H203      1.0  0.47739  0.03472  0.13617  1.0000
  H   H204      1.0  0.39675  0.03021  0.91225  1.0000
  C   C179      1.0  0.40993  0.05970  0.49421  1.0000
  H   H205      1.0  0.42020  0.06264  0.51413  1.0000
  H   H206      1.0  0.47545  0.15312  0.16524  1.0000
  C   C180      1.0  0.42430  0.04558  0.45004  1.0000
  H   H207      1.0  0.39120  0.04310  0.44054  1.0000
  H   H208      1.0  0.44447  0.05881  0.48463  1.0000
  H   H209      1.0  0.46785  0.23345  0.37498  1.0000
  C   C181      1.0  0.42098  0.01204  0.55731  1.0000
  C   C182      1.0  0.47092  0.14007  0.15965  1.0000
  C   C183      1.0  0.47817  0.14265  0.44903  1.0000
  N   N9        1.0  0.48403  0.00665  0.57593  1.0000
  C   C184      1.0  0.36104  0.01345  0.06034  1.0000
  S   S61       1.0  0.49499  0.16039  0.42253  1.0000
  H   H210      1.0  0.42240  0.08517  0.42960  1.0000
  H   H211      1.0  0.46734  0.04382  0.83036  1.0000
  H   H212      1.0  0.49145  0.08986  0.74742  1.0000
  N   N10       1.0  0.48141  0.06516  0.78405  1.0000
  H   H213      1.0  0.46803  0.06411  0.84576  1.0000
  N   N11       1.0  0.48046  0.21146  0.41685  1.0000
  H   H214      1.0  0.40023  0.04765  0.50920  1.0000
  H   H215      1.0  0.40950  0.09269  0.91827  1.0000
  C   C185      1.0  0.46629  0.13595  0.12005  1.0000
  Fe  Fe33      1.0  0.49475  0.19368  0.28272  1.0000
  C   C186      1.0  0.48728  0.07487  0.05647  1.0000
  C   C187      1.0  0.44043  0.02101  0.45184  1.0000
  H   H216      1.0  0.40437  0.06990  0.49602  1.0000
  H   H217      1.0  0.40734  0.09968  0.84332  1.0000
  H   H218      1.0  0.46349  0.13935  0.39764  1.0000
  H   H219      1.0  0.48551  0.01550  0.51046  1.0000
  C   C188      1.0  0.49500  0.05118  0.60590  1.0000
  H   H220      1.0  0.46123  0.00416  0.61687  1.0000
  C   C189      1.0  0.40024  0.08721  0.85964  1.0000
  C   C190      1.0  0.36471  0.02472  0.89702  1.0000
  N   N12       1.0  0.41608  0.05854  0.45019  1.0000
  H   H221      1.0  0.35440  0.02863  0.88579  1.0000
  C   C191      1.0  0.49097  0.20334  0.43877  1.0000
  C   C192      1.0  0.38734  0.00909  0.04012  1.0000
  S   S62       1.0  0.47614  0.16870  0.31504  1.0000
  N   N13       1.0  0.49020  0.01002  0.11551  1.0000
  H   H222      1.0  0.36911  0.04471  0.98420  1.0000
  C   C193      1.0  0.49398  0.02352  0.58583  1.0000
  H   H223      1.0  0.39588  0.06514  0.42624  1.0000
  H   H224      1.0  0.38143  0.01687  0.95478  1.0000
  C   C194      1.0  0.39284  0.06696  0.92258  1.0000
  H   H225      1.0  0.47258  0.03231  0.59581  1.0000
  C   C195      1.0  0.41778  0.03031  0.43233  1.0000
  H   H226      1.0  0.49093  0.05877  0.86376  1.0000
  H   H227      1.0  0.46914  0.08129  0.75640  1.0000
  H   H228      1.0  0.46229  0.10041  0.20895  1.0000
  H   H229      1.0  0.47522  0.07557  0.06864  1.0000
  H   H230      1.0  0.48958  0.20800  0.35498  1.0000
  H   H231      1.0  0.40525  0.05388  0.39276  1.0000
  H   H232      1.0  0.44630  0.01142  0.45353  1.0000
  C   C196      1.0  0.48811  0.23006  0.40764  1.0000
  H   H233      1.0  0.40625  0.02708  0.41856  1.0000
  S   S63       1.0  0.47552  0.13164  0.24215  1.0000
  S   S64       1.0  0.46981  0.04372  0.03752  1.0000
  H   H234      1.0  0.43394  0.07473  0.39879  1.0000
  H   H235      1.0  0.39407  0.03748  0.96223  1.0000
  S   S65       1.0  0.48647  0.21660  0.26893  1.0000
  C   C197      1.0  0.39016  0.07503  0.83818  1.0000
  H   H236      1.0  0.49270  0.06377  0.14540  1.0000
  C   C198      1.0  0.40149  0.08321  0.90182  1.0000
  C   C199      1.0  0.42582  0.01829  0.43326  1.0000
  H   H237      1.0  0.38549  0.01601  0.52414  1.0000
  Fe  Fe34      1.0  0.48792  0.15669  0.26640  1.0000
  H   H238      1.0  0.40089  0.01399  0.03256  1.0000
  H   H239      1.0  0.43881  0.07990  0.45005  1.0000
  C   C200      1.0  0.46742  0.05663  0.81879  1.0000
  H   H240      1.0  0.45483  0.21121  0.42805  1.0000
  H   H241      1.0  0.35868  0.01183  0.91476  1.0000
  H   H242      1.0  0.46518  0.05250  0.74073  1.0000
  S   S66       1.0  0.48651  0.09037  0.66239  1.0000
  H   H243      1.0  0.39429  0.06444  0.95528  1.0000
  H   H244      1.0  0.49851  0.11647  0.19720  1.0000
  H   H245      1.0  0.37433  0.04986  0.83954  1.0000
  C   C201      1.0  0.38280  0.05410  0.90142  1.0000
  N   N14       1.0  0.37442  0.03680  0.92370  1.0000
  C   C202      1.0  0.36258  0.03715  0.96051  1.0000
  C   C203      1.0  0.47764  0.20408  0.37699  1.0000
  C   C204      1.0  0.38721  0.03007  0.93878  1.0000
  C   C205      1.0  0.48064  0.08210  0.77116  1.0000
  C   C206      1.0  0.49687  0.23797  0.27645  1.0000
  H   H246      1.0  0.46853  0.20810  0.36005  1.0000
  C   C207      1.0  0.40827  0.01875  0.55140  1.0000
  H   H247      1.0  0.48857  0.05994  0.61348  1.0000
  H   H248      1.0  0.46727  0.14590  0.09534  1.0000
  C   C208      1.0  0.42833  0.07522  0.43124  1.0000
  C   C209      1.0  0.40442  0.00758  0.12754  1.0000
  Fe  Fe35      1.0  0.49693  0.16777  0.35206  1.0000
  H   H249      1.0  0.38958  0.07808  0.80499  1.0000
  H   H250      1.0  0.48488  0.18935  0.44497  1.0000
  H   H251      1.0  0.48931  0.14278  0.50646  1.0000
  H   H252      1.0  0.46554  0.21277  0.47366  1.0000
  H   H253      1.0  0.49830  0.12462  0.77986  1.0000
  C   C210      1.0  0.47848  0.00979  0.08412  1.0000
  H   H254      1.0  0.45813  0.19302  0.45259  1.0000
  C   C211      1.0  0.47824  0.05512  0.74821  1.0000
  H   H255      1.0  0.48017  0.04283  0.75519  1.0000
  C   C212      1.0  0.50134  0.09097  0.93135  1.0000
  C   C213      1.0  0.48827  0.06018  0.04140  1.0000
  C   C214      1.0  0.48595  0.03530  0.59577  1.0000
  H   H256      1.0  0.49005  0.11965  0.85546  1.0000
  C   C215      1.0  0.44704  0.03573  0.46986  1.0000
  H   H257      1.0  0.48993  0.08429  0.91722  1.0000
  H   H258      1.0  0.49722  0.12962  0.92212  1.0000
  C   C216      1.0  0.50105  0.06319  0.83780  1.0000
  H   H259      1.0  0.49233  0.09211  0.57140  1.0000
  C   C217      1.0  0.49828  0.06696  0.79572  1.0000
  C   C218      1.0  0.47594  0.00852  0.53791  1.0000
  H   H260      1.0  0.47102  0.00644  0.16835  1.0000
  H   H261      1.0  0.40849  0.02040  0.11160  1.0000
  H   H262      1.0  0.46694  0.01544  0.54267  1.0000
  H   H263      1.0  0.48530  0.01768  0.05398  1.0000
  C   C219      1.0  0.47970  0.23955  0.38593  1.0000
  H   H264      1.0  0.37976  0.00742  0.14472  1.0000
  C   C220      1.0  0.39516  0.01062  0.52917  1.0000
  H   H265      1.0  0.47868  0.24681  0.24887  1.0000
  C   C221      1.0  0.49961  0.05540  0.13824  1.0000
  H   H266      1.0  0.50091  0.10026  0.06621  1.0000
  H   H267      1.0  0.42030  0.00651  0.42081  1.0000
  H   H268      1.0  0.48150  0.10905  0.92264  1.0000
  C   C222      1.0  0.49019  0.25043  0.26287  1.0000
  H   H269      1.0  0.42836  0.00459  0.11121  1.0000
  C   C223      1.0  0.49378  0.11591  0.93296  1.0000
  H   H270      1.0  0.49133  0.11430  0.96808  1.0000
  Fe  Fe36      1.0  0.48401  0.42271  0.95069  1.0000
  S   S67       1.0  0.49313  0.40211  0.93283  1.0000
  Fe  Fe37      1.0  0.44780  0.40082  0.96205  1.0000
  S   S68       1.0  0.45387  0.37812  0.94346  1.0000
  S   S69       1.0  0.42207  0.40068  0.98875  1.0000
  Fe  Fe38      1.0  0.47406  0.38559  0.98548  1.0000
  S   S70       1.0  0.41260  0.49761  0.07706  1.0000
  Fe  Fe39      1.0  0.47265  0.39646  0.89199  1.0000
  S   S71       1.0  0.48272  0.39290  0.82684  1.0000
  S   S72       1.0  0.46667  0.40693  0.00742  1.0000
  S   S73       1.0  0.46472  0.41833  0.90670  1.0000
  C   C224      1.0  0.43274  0.34641  0.14120  1.0000
  S   S74       1.0  0.37534  0.47198  0.06482  1.0000
  C   C225      1.0  0.43613  0.34235  0.10009  1.0000
  C   C226      1.0  0.48468  0.36484  0.07636  1.0000
  H   H271      1.0  0.45032  0.37180  0.05060  1.0000
  H   H272      1.0  0.34755  0.49759  0.40369  1.0000
  S   S75       1.0  0.38503  0.47660  0.18213  1.0000
  H   H273      1.0  0.48662  0.38122  0.50218  1.0000
  H   H274      1.0  0.42823  0.32867  0.02687  1.0000
  C   C227      1.0  0.48657  0.25711  0.37711  1.0000
  H   H275      1.0  0.43167  0.37294  0.03062  1.0000
  H   H276      1.0  0.49319  0.27704  0.25565  1.0000
  S   S76       1.0  0.48756  0.40757  0.56110  1.0000
  Fe  Fe40      1.0  0.47927  0.44889  0.52084  1.0000
  S   S77       1.0  0.45850  0.42416  0.54027  1.0000
  S   S78       1.0  0.47699  0.47367  0.49493  1.0000
  Fe  Fe41      1.0  0.47249  0.42137  0.59495  1.0000
  S   S79       1.0  0.45802  0.41701  0.66049  1.0000
  Fe  Fe42      1.0  0.47537  0.41273  0.50486  1.0000
  S   S80       1.0  0.46724  0.39659  0.45344  1.0000
  C   C228      1.0  0.49592  0.36094  0.42095  1.0000
  C   C229      1.0  0.49262  0.35380  0.09193  1.0000
  H   H277      1.0  0.34120  0.46664  0.94325  1.0000
  C   C230      1.0  0.44657  0.33230  0.09534  1.0000
  C   C231      1.0  0.49840  0.26760  0.26663  1.0000
  S   S81       1.0  0.36801  0.48546  0.45387  1.0000
  C   C232      1.0  0.49544  0.36616  0.46111  1.0000
  C   C233      1.0  0.41858  0.42064  0.36743  1.0000
  C   C234      1.0  0.43921  0.34061  0.17539  1.0000
  C   C235      1.0  0.35003  0.47417  0.82137  1.0000
  C   C236      1.0  0.38173  0.48860  0.30140  1.0000
  C   C237      1.0  0.37851  0.45300  0.90093  1.0000
  S   S82       1.0  0.49488  0.43779  0.48056  1.0000
  C   C238      1.0  0.33282  0.48762  0.25685  1.0000
  H   H278      1.0  0.43012  0.37987  0.37825  1.0000
  H   H279      1.0  0.46872  0.47288  0.08960  1.0000
  C   C239      1.0  0.47847  0.38301  0.44127  1.0000
  S   S83       1.0  0.48141  0.36564  0.02277  1.0000
  H   H280      1.0  0.30171  0.48493  0.39685  1.0000
  C   C240      1.0  0.48698  0.37736  0.47105  1.0000
  H   H281      1.0  0.40491  0.32972  0.08118  1.0000
  H   H282      1.0  0.43322  0.37331  0.08540  1.0000
  H   H283      1.0  0.47201  0.38180  0.37822  1.0000
  C   C241      1.0  0.45641  0.47447  0.50068  1.0000
  C   C242      1.0  0.44345  0.46195  0.52719  1.0000
  C   C243      1.0  0.42683  0.46176  0.52855  1.0000
  C   C244      1.0  0.42304  0.47417  0.50379  1.0000
  C   C245      1.0  0.43609  0.48716  0.47855  1.0000
  C   C246      1.0  0.45276  0.48728  0.47698  1.0000
  H   H284      1.0  0.44616  0.45230  0.54641  1.0000
  H   H285      1.0  0.41680  0.45176  0.54837  1.0000
  C   C247      1.0  0.33386  0.49468  0.41306  1.0000
  H   H286      1.0  0.32758  0.48075  0.41847  1.0000
  C   C248      1.0  0.38188  0.48703  0.22579  1.0000
  C   C249      1.0  0.38325  0.48019  0.26617  1.0000
  C   C250      1.0  0.47770  0.47464  0.06049  1.0000
  H   H287      1.0  0.45352  0.48005  0.98663  1.0000
  H   H288      1.0  0.33244  0.49923  0.44426  1.0000
  H   H289      1.0  0.46621  0.44808  0.74013  1.0000
  H   H290      1.0  0.38574  0.46844  0.27009  1.0000
  H   H291      1.0  0.38296  0.48333  0.33229  1.0000
  H   H292      1.0  0.35885  0.45399  0.96997  1.0000
  C   C251      1.0  0.41417  0.40902  0.33855  1.0000
  C   C252      1.0  0.48651  0.45720  0.80224  1.0000
  C   C253      1.0  0.44920  0.33061  0.16972  1.0000
  H   H293      1.0  0.38033  0.46481  0.97457  1.0000
  C   C254      1.0  0.47562  0.39951  0.78091  1.0000
  C   C255      1.0  0.46167  0.40485  0.78308  1.0000
  C   C256      1.0  0.45626  0.40989  0.74581  1.0000
  C   C257      1.0  0.46489  0.40987  0.70619  1.0000
  C   C258      1.0  0.47895  0.40471  0.70401  1.0000
  C   C259      1.0  0.48424  0.39947  0.74129  1.0000
  H   H294      1.0  0.45489  0.40482  0.81342  1.0000
  H   H295      1.0  0.44533  0.41381  0.74766  1.0000
  H   H296      1.0  0.48568  0.40465  0.67366  1.0000
  C   C260      1.0  0.33818  0.48016  0.29038  1.0000
  H   H297      1.0  0.38867  0.45143  0.91865  1.0000
  H   H298      1.0  0.34437  0.47103  0.28478  1.0000
  H   H299      1.0  0.48767  0.36258  0.36008  1.0000
  H   H300      1.0  0.45471  0.32664  0.19599  1.0000
  C   C261      1.0  0.47935  0.37109  0.14766  1.0000
  C   C262      1.0  0.47845  0.37385  0.10426  1.0000
  H   H301      1.0  0.40513  0.34779  0.04659  1.0000
  H   H302      1.0  0.42861  0.41080  0.48525  1.0000
  H   H303      1.0  0.47246  0.38250  0.09274  1.0000
  C   C263      1.0  0.42027  0.42094  0.98714  1.0000
  C   C264      1.0  0.40804  0.42390  0.01517  1.0000
  C   C265      1.0  0.40671  0.44012  0.01409  1.0000
  C   C266      1.0  0.41738  0.45329  0.98431  1.0000
  C   C267      1.0  0.42932  0.45021  0.95588  1.0000
  C   C268      1.0  0.43091  0.43420  0.95765  1.0000
  H   H304      1.0  0.39973  0.41369  0.03802  1.0000
  H   H305      1.0  0.39742  0.44237  0.03611  1.0000
  H   H306      1.0  0.43750  0.46028  0.93244  1.0000
  H   H307      1.0  0.44014  0.43205  0.93548  1.0000
  H   H308      1.0  0.33419  0.48158  0.70561  1.0000
  C   C269      1.0  0.43318  0.34268  0.02403  1.0000
  H   H309      1.0  0.40746  0.41137  0.31306  1.0000
  C   C270      1.0  0.48688  0.35969  0.16336  1.0000
  N   N15       1.0  0.43256  0.42991  0.43202  1.0000
  C   C271      1.0  0.42445  0.42152  0.47496  1.0000
  C   C272      1.0  0.45109  0.43550  0.43112  1.0000
  C   C273      1.0  0.42792  0.44526  0.42391  1.0000
  H   H310      1.0  0.41051  0.41656  0.47665  1.0000
  H   H311      1.0  0.41488  0.43164  0.36273  1.0000
  H   H312      1.0  0.44699  0.34709  0.01338  1.0000
  H   H313      1.0  0.42753  0.43035  0.49897  1.0000
  Fe  Fe43      1.0  0.38676  0.48786  0.11426  1.0000
  H   H314      1.0  0.45555  0.42497  0.44100  1.0000
  H   H315      1.0  0.45551  0.44505  0.45295  1.0000
  H   H316      1.0  0.45771  0.44121  0.39894  1.0000
  H   H317      1.0  0.41404  0.44221  0.42702  1.0000
  H   H318      1.0  0.43239  0.45421  0.44692  1.0000
  H   H319      1.0  0.43380  0.45236  0.39231  1.0000
  H   H320      1.0  0.40662  0.34938  0.10080  1.0000
  C   C274      1.0  0.36013  0.46918  0.88864  1.0000
  H   H321      1.0  0.39431  0.48471  0.86590  1.0000
  H   H322      1.0  0.41497  0.38546  0.31982  1.0000
  C   C275      1.0  0.38894  0.48324  0.89950  1.0000
  H   H323      1.0  0.37420  0.47245  0.82598  1.0000
  H   H324      1.0  0.31998  0.47055  0.90294  1.0000
  H   H325      1.0  0.44682  0.47154  0.04152  1.0000
  C   C276      1.0  0.42684  0.39124  0.37517  1.0000
  H   H326      1.0  0.45058  0.32923  0.06511  1.0000
  H   H327      1.0  0.48386  0.49452  0.96061  1.0000
  H   H328      1.0  0.36650  0.47665  0.96880  1.0000
  C   C277      1.0  0.36965  0.46573  0.95823  1.0000
  H   H329      1.0  0.32525  0.47602  0.82530  1.0000
  N   N16       1.0  0.49286  0.46181  0.72302  1.0000
  C   C278      1.0  0.42742  0.41787  0.40110  1.0000
  C   C279      1.0  0.43122  0.40272  0.40425  1.0000
  C   C280      1.0  0.47869  0.37758  0.40128  1.0000
  S   S84       1.0  0.41650  0.47388  0.98075  1.0000
  H   H330      1.0  0.47705  0.44508  0.80124  1.0000
  H   H331      1.0  0.48827  0.43562  0.74531  1.0000
  C   C281      1.0  0.48975  0.46195  0.84194  1.0000
  H   H332      1.0  0.33475  0.48419  0.22552  1.0000
  H   H333      1.0  0.47729  0.46192  0.05293  1.0000
  H   H334      1.0  0.49503  0.39532  0.73942  1.0000
  C   C282      1.0  0.47505  0.45837  0.71662  1.0000
  H   H335      1.0  0.39929  0.48315  0.91804  1.0000
  H   H336      1.0  0.35229  0.47663  0.78726  1.0000
  C   C283      1.0  0.45703  0.47398  0.01471  1.0000
  H   H337      1.0  0.48016  0.26409  0.35955  1.0000
  C   C284      1.0  0.43638  0.36751  0.05754  1.0000
  C   C285      1.0  0.41069  0.34368  0.07374  1.0000
  C   C286      1.0  0.48754  0.36671  0.39096  1.0000
  C   C287      1.0  0.33474  0.47369  0.84266  1.0000
  Fe  Fe44      1.0  0.40081  0.48361  0.02601  1.0000
  C   C288      1.0  0.41835  0.39440  0.34232  1.0000
  N   N17       1.0  0.42927  0.34884  0.06432  1.0000
  H   H338      1.0  0.49056  0.48082  0.06826  1.0000
  H   H339      1.0  0.50121  0.46918  0.65624  1.0000
  H   H340      1.0  0.42759  0.34749  0.99797  1.0000
  H   H341      1.0  0.46128  0.31932  0.12531  1.0000
  C   C289      1.0  0.45288  0.32648  0.12983  1.0000
  H   H342      1.0  0.43766  0.39961  0.42935  1.0000
  H   H343      1.0  0.31694  0.49712  0.97883  1.0000
  S   S85       1.0  0.48542  0.35474  0.21855  1.0000
  H   H344      1.0  0.42538  0.35445  0.14705  1.0000
  C   C290      1.0  0.48624  0.48686  0.98764  1.0000
  C   C291      1.0  0.49392  0.35138  0.13517  1.0000
  C   C292      1.0  0.36252  0.47185  0.84389  1.0000
  C   C293      1.0  0.33179  0.47062  0.88646  1.0000
  H   H345      1.0  0.49483  0.43010  0.02893  1.0000
  S   S86       1.0  0.49583  0.32384  0.30615  1.0000
  N   N18       1.0  0.37395  0.46778  0.91170  1.0000
  S   S87       1.0  0.40175  0.47173  0.50186  1.0000
  S   S88       1.0  0.49224  0.44684  0.57721  1.0000
  H   H346      1.0  0.43693  0.34425  0.20629  1.0000
  H   H347      1.0  0.47383  0.37751  0.16932  1.0000
  H   H348      1.0  0.38326  0.45414  0.86696  1.0000
  H   H349      1.0  0.48608  0.47459  0.97722  1.0000
  H   H350      1.0  0.47267  0.45409  0.68527  1.0000
  H   H351      1.0  0.34746  0.48814  0.63115  1.0000
  H   H352      1.0  0.34127  0.47897  0.35470  1.0000
  C   C294      1.0  0.34423  0.46840  0.90934  1.0000
  H   H353      1.0  0.45705  0.46140  0.00699  1.0000
  H   H354      1.0  0.30654  0.50213  0.42793  1.0000
  H   H355      1.0  0.36747  0.44116  0.90874  1.0000
  C   C295      1.0  0.33628  0.48488  0.33066  1.0000
  N   N19       1.0  0.47360  0.48443  0.02510  1.0000
  H   H356      1.0  0.48288  0.45368  0.87029  1.0000
  H   H357      1.0  0.49748  0.34679  0.07056  1.0000
  H   H358      1.0  0.43325  0.49673  0.45923  1.0000
  C   C296      1.0  0.32881  0.49732  0.33852  1.0000
  Fe  Fe45      1.0  0.39283  0.49297  0.47934  1.0000
  C   C297      1.0  0.49562  0.46767  0.76463  1.0000
  H   H359      1.0  0.47147  0.46983  0.71861  1.0000
  H   H360      1.0  0.46277  0.49705  0.45655  1.0000
  C   C298      1.0  0.30859  0.49869  0.39565  1.0000
  H   H361      1.0  0.49965  0.34251  0.14690  1.0000
  H   H362      1.0  0.31529  0.49301  0.61703  1.0000
  S   S89       1.0  0.34532  0.49388  0.01576  1.0000
  H   H363      1.0  0.38580  0.49473  0.90481  1.0000
  Fe  Fe46      1.0  0.37023  0.49513  0.03797  1.0000
  H   H364      1.0  0.49928  0.49341  0.99387  1.0000
  C   C299      1.0  0.49669  0.44600  0.72154  1.0000
  S   S90       1.0  0.33615  0.49563  0.53849  1.0000
  C   C300      1.0  0.34332  0.49394  0.69423  1.0000
  H   H365      1.0  0.41706  0.49534  0.23833  1.0000
  H   H366      1.0  0.43809  0.49669  0.21942  1.0000
  H   H367      1.0  0.49531  0.44134  0.69029  1.0000
  C   C301      1.0  0.47400  0.50112  0.03662  1.0000
  H   H368      1.0  0.44839  0.49955  0.02557  1.0000
  C   C302      1.0  0.35083  0.49763  0.65242  1.0000
  Fe  Fe47      1.0  0.36133  0.50234  0.49767  1.0000
  H   H369      1.0  0.50120  0.48626  0.68529  1.0000
  C   C303      1.0  0.37856  0.50215  0.22099  1.0000
  H   H370      1.0  0.34156  0.50334  0.75374  1.0000
  C   C304      1.0  0.32777  0.50193  0.95470  1.0000
  C   C305      1.0  0.34358  0.50213  0.96451  1.0000
  C   C306      1.0  0.32528  0.49969  0.26352  1.0000
  N   N20       1.0  0.32672  0.50282  0.38062  1.0000
  H   H371      1.0  0.50114  0.43938  0.09813  1.0000
  H   H372      1.0  0.43334  0.50315  0.26963  1.0000
  C   C307      1.0  0.43053  0.50321  0.23665  1.0000
  S   S91       1.0  0.47253  0.62022  0.21567  1.0000
  H   H373      1.0  0.44615  0.59600  0.05333  1.0000
  Fe  Fe48      1.0  0.46201  0.59595  0.18880  1.0000
  S   S92       1.0  0.43562  0.57790  0.20246  1.0000
  Fe  Fe49      1.0  0.47254  0.59550  0.60394  1.0000
  S   S93       1.0  0.44932  0.57413  0.63354  1.0000
  S   S94       1.0  0.47056  0.61904  0.57174  1.0000
  S   S95       1.0  0.42373  0.54424  0.03639  1.0000
  S   S96       1.0  0.40771  0.55646  0.48258  1.0000
  N   N21       1.0  0.42793  0.70191  0.00792  1.0000
  Fe  Fe50      1.0  0.43451  0.66198  0.92617  1.0000
  S   S97       1.0  0.45379  0.68679  0.89707  1.0000
  S   S98       1.0  0.42977  0.64987  0.99418  1.0000
  Fe  Fe51      1.0  0.42002  0.65416  0.84326  1.0000
  S   S99       1.0  0.43806  0.67858  0.80766  1.0000
  S   S100      1.0  0.40587  0.63281  0.80818  1.0000
  Fe  Fe52      1.0  0.45745  0.67266  0.84248  1.0000
  S   S101      1.0  0.48231  0.67134  0.81408  1.0000
  Fe  Fe53      1.0  0.43282  0.69093  0.86476  1.0000
  S   S102      1.0  0.42525  0.71477  0.86105  1.0000
  S   S103      1.0  0.43990  0.64773  0.87463  1.0000
  S   S104      1.0  0.41305  0.66671  0.89750  1.0000
  Fe  Fe54      1.0  0.31989  0.53092  0.80420  1.0000
  S   S105      1.0  0.33557  0.55473  0.76254  1.0000
  H   H374      1.0  0.36975  0.50897  0.94047  1.0000
  Fe  Fe55      1.0  0.28672  0.53656  0.78637  1.0000
  S   S106      1.0  0.30060  0.56102  0.74507  1.0000
  H   H375      1.0  0.46071  0.58616  0.95064  1.0000
  Fe  Fe56      1.0  0.31676  0.54698  0.71766  1.0000
  S   S107      1.0  0.32555  0.55145  0.64730  1.0000
  Fe  Fe57      1.0  0.31828  0.56643  0.79398  1.0000
  S   S108      1.0  0.32776  0.59087  0.82267  1.0000
  S   S109      1.0  0.30224  0.52216  0.75647  1.0000
  S   S110      1.0  0.30325  0.54294  0.83805  1.0000
  C   C308      1.0  0.37670  0.51039  0.25632  1.0000
  H   H376      1.0  0.46048  0.61073  0.91013  1.0000
  H   H377      1.0  0.49715  0.67063  0.31016  1.0000
  H   H378      1.0  0.32943  0.52864  0.35807  1.0000
  C   C309      1.0  0.46123  0.52310  0.04482  1.0000
  C   C310      1.0  0.38407  0.62142  0.81354  1.0000
  C   C311      1.0  0.37862  0.60741  0.79156  1.0000
  C   C312      1.0  0.36144  0.59816  0.79365  1.0000
  C   C313      1.0  0.34946  0.60272  0.81798  1.0000
  C   C314      1.0  0.35486  0.61668  0.84025  1.0000
  C   C315      1.0  0.37212  0.62598  0.83817  1.0000
  H   H379      1.0  0.38772  0.60370  0.77261  1.0000
  H   H380      1.0  0.35749  0.58757  0.77613  1.0000
  H   H381      1.0  0.34566  0.62031  0.85914  1.0000
  H   H382      1.0  0.37615  0.63677  0.85514  1.0000
  C   C316      1.0  0.47204  0.61949  0.96585  1.0000
  C   C317      1.0  0.41606  0.70625  0.03803  1.0000
  H   H383      1.0  0.41011  0.69606  0.06480  1.0000
  C   C318      1.0  0.43591  0.73630  0.86698  1.0000
  S   S111      1.0  0.38509  0.50799  0.52679  1.0000
  H   H384      1.0  0.45393  0.52781  0.27784  1.0000
  S   S112      1.0  0.25783  0.52471  0.79843  1.0000
  H   H385      1.0  0.45824  0.73291  0.88622  1.0000
  H   H386      1.0  0.47973  0.61889  0.30623  1.0000
  C   C319      1.0  0.32841  0.53557  0.61829  1.0000
  S   S113      1.0  0.33740  0.51796  0.82854  1.0000
  H   H387      1.0  0.40427  0.55824  0.65705  1.0000
  C   C320      1.0  0.33906  0.54043  0.57972  1.0000
  C   C321      1.0  0.27748  0.52696  0.67987  1.0000
  H   H388      1.0  0.36416  0.73437  0.84009  1.0000
  H   H389      1.0  0.34551  0.55368  0.56876  1.0000
  C   C322      1.0  0.47703  0.63590  0.89590  1.0000
  S   S114      1.0  0.37632  0.51483  0.33947  1.0000
  Fe  Fe58      1.0  0.40454  0.51840  0.04956  1.0000
  C   C323      1.0  0.33961  0.51314  0.88183  1.0000
  H   H390      1.0  0.29356  0.53443  0.60293  1.0000
  H   H391      1.0  0.42741  0.67585  0.69287  1.0000
  C   C324      1.0  0.37846  0.50376  0.29652  1.0000
  C   C325      1.0  0.43682  0.56867  0.59352  1.0000
  C   C326      1.0  0.43339  0.58125  0.56886  1.0000
  C   C327      1.0  0.42418  0.57725  0.53533  1.0000
  C   C328      1.0  0.41852  0.56067  0.52600  1.0000
  C   C329      1.0  0.42181  0.54797  0.55078  1.0000
  C   C330      1.0  0.43082  0.55196  0.58494  1.0000
  H   H392      1.0  0.43780  0.59413  0.57562  1.0000
  H   H393      1.0  0.42166  0.58709  0.51616  1.0000
  H   H394      1.0  0.41755  0.53514  0.54345  1.0000
  H   H395      1.0  0.43360  0.54223  0.60384  1.0000
  C   C331      1.0  0.48754  0.65970  0.67793  1.0000
  C   C332      1.0  0.47920  0.67083  0.68921  1.0000
  C   C333      1.0  0.47691  0.67387  0.73123  1.0000
  C   C334      1.0  0.48367  0.66640  0.76202  1.0000
  H   H396      1.0  0.47111  0.58670  0.03709  1.0000
  C   C335      1.0  0.45164  0.74172  0.88106  1.0000
  H   H397      1.0  0.47049  0.68252  0.73946  1.0000
  C   C336      1.0  0.47947  0.54559  0.16733  1.0000
  C   C337      1.0  0.32321  0.50444  0.30373  1.0000
  C   C338      1.0  0.43200  0.56745  0.15793  1.0000
  C   C339      1.0  0.41560  0.55958  0.14955  1.0000
  C   C340      1.0  0.41292  0.55213  0.11241  1.0000
  C   C341      1.0  0.42668  0.55274  0.08365  1.0000
  C   C342      1.0  0.44300  0.56004  0.09280  1.0000
  C   C343      1.0  0.44565  0.56716  0.13019  1.0000
  H   H398      1.0  0.40501  0.55959  0.17125  1.0000
  H   H399      1.0  0.40026  0.54636  0.10550  1.0000
  H   H400      1.0  0.45359  0.55989  0.07141  1.0000
  H   H401      1.0  0.45828  0.57224  0.13771  1.0000
  H   H402      1.0  0.48557  0.59609  0.98976  1.0000
  H   H403      1.0  0.27422  0.51738  0.60270  1.0000
  C   C344      1.0  0.45468  0.64236  0.09093  1.0000
  C   C345      1.0  0.44222  0.64140  0.06470  1.0000
  C   C346      1.0  0.44609  0.65125  0.02516  1.0000
  N   N22       1.0  0.27233  0.53548  0.64403  1.0000
  C   C347      1.0  0.35546  0.51361  0.89183  1.0000
  H   H404      1.0  0.45149  0.63471  0.12138  1.0000
  H   H405      1.0  0.42949  0.63296  0.07514  1.0000
  S   S115      1.0  0.48926  0.59218  0.54931  1.0000
  S   S116      1.0  0.49034  0.65665  0.62450  1.0000
  N   N23       1.0  0.43926  0.62561  0.70199  1.0000
  C   C348      1.0  0.44575  0.62846  0.74287  1.0000
  C   C349      1.0  0.42155  0.61420  0.71040  1.0000
  C   C350      1.0  0.44927  0.61685  0.67879  1.0000
  C   C351      1.0  0.43998  0.64180  0.67867  1.0000
  C   C352      1.0  0.44743  0.64713  0.63594  1.0000
  C   C353      1.0  0.43253  0.65252  0.69821  1.0000
  C   C354      1.0  0.44783  0.66245  0.61484  1.0000
  C   C355      1.0  0.43298  0.66781  0.67685  1.0000
  C   C356      1.0  0.44067  0.67280  0.63526  1.0000
  H   H406      1.0  0.43783  0.63313  0.76478  1.0000
  H   H407      1.0  0.44633  0.61671  0.76001  1.0000
  H   H408      1.0  0.45862  0.63790  0.73796  1.0000
  H   H409      1.0  0.41354  0.61967  0.72974  1.0000
  H   H410      1.0  0.42035  0.60183  0.72791  1.0000
  H   H411      1.0  0.41616  0.61186  0.68047  1.0000
  H   H412      1.0  0.46272  0.62504  0.67076  1.0000
  H   H413      1.0  0.44908  0.60507  0.69756  1.0000
  H   H414      1.0  0.44425  0.61293  0.64926  1.0000
  H   H415      1.0  0.45353  0.63997  0.61836  1.0000
  H   H416      1.0  0.42629  0.64920  0.73029  1.0000
  N   N24       1.0  0.34861  0.56447  0.91414  1.0000
  C   C357      1.0  0.35244  0.56288  0.86904  1.0000
  C   C358      1.0  0.33078  0.55387  0.92840  1.0000
  C   C359      1.0  0.35007  0.58222  0.91819  1.0000
  C   C360      1.0  0.36069  0.55968  0.93822  1.0000
  C   C361      1.0  0.35572  0.54556  0.97013  1.0000
  C   C362      1.0  0.37812  0.56923  0.92974  1.0000
  C   C363      1.0  0.36751  0.54152  0.99240  1.0000
  C   C364      1.0  0.38979  0.56505  0.95219  1.0000
  C   C365      1.0  0.38449  0.55123  0.98350  1.0000
  H   H417      1.0  0.35209  0.54986  0.86481  1.0000
  H   H418      1.0  0.34319  0.56572  0.85014  1.0000
  H   H419      1.0  0.36504  0.57169  0.85462  1.0000
  H   H420      1.0  0.32844  0.54049  0.92354  1.0000
  H   H421      1.0  0.32204  0.55809  0.91022  1.0000
  H   H422      1.0  0.32699  0.55448  0.96218  1.0000
  H   H423      1.0  0.36225  0.59140  0.90219  1.0000
  H   H424      1.0  0.34018  0.58580  0.90348  1.0000
  H   H425      1.0  0.34877  0.58429  0.95186  1.0000
  H   H426      1.0  0.34284  0.53729  0.97832  1.0000
  H   H427      1.0  0.38284  0.58001  0.90558  1.0000
  H   H428      1.0  0.36344  0.53064  0.01647  1.0000
  H   H429      1.0  0.40303  0.57255  0.94533  1.0000
  H   H430      1.0  0.39356  0.54799  0.00085  1.0000
  C   C366      1.0  0.37838  0.75238  0.87957  1.0000
  C   C367      1.0  0.47600  0.53372  0.05661  1.0000
  Fe  Fe59      1.0  0.49498  0.61188  0.22065  1.0000
  S   S117      1.0  0.37960  0.51005  0.09067  1.0000
  C   C368      1.0  0.45225  0.53002  0.21040  1.0000
  H   H431      1.0  0.48456  0.60788  0.03273  1.0000
  C   C369      1.0  0.34172  0.52827  0.55549  1.0000
  H   H432      1.0  0.27833  0.56147  0.61649  1.0000
  Fe  Fe60      1.0  0.49260  0.63269  0.60272  1.0000
  H   H433      1.0  0.48219  0.57745  0.29139  1.0000
  H   H434      1.0  0.42768  0.52931  0.27391  1.0000
  S   S118      1.0  0.40555  0.51521  0.42927  1.0000
  Fe  Fe61      1.0  0.48479  0.63083  0.14901  1.0000
  C   C370      1.0  0.48971  0.52826  0.05890  1.0000
  C   C371      1.0  0.36223  0.51370  0.63712  1.0000
  C   C372      1.0  0.47499  0.66339  0.03872  1.0000
  C   C373      1.0  0.46217  0.53697  0.17054  1.0000
  H   H435      1.0  0.47831  0.69386  0.08794  1.0000
  C   C374      1.0  0.43871  0.68763  0.06496  1.0000
  H   H436      1.0  0.34872  0.52502  0.36423  1.0000
  H   H437      1.0  0.40861  0.68690  0.97458  1.0000
  C   C375      1.0  0.43343  0.71522  0.97097  1.0000
  H   H438      1.0  0.40561  0.70833  0.02264  1.0000
  H   H439      1.0  0.42264  0.71794  0.05145  1.0000
  H   H440      1.0  0.42264  0.71628  0.95532  1.0000
  H   H441      1.0  0.44001  0.72788  0.97991  1.0000
  H   H442      1.0  0.50037  0.64126  0.25230  1.0000
  H   H443      1.0  0.42760  0.68192  0.97138  1.0000
  Fe  Fe62      1.0  0.38020  0.50882  0.40705  1.0000
  C   C376      1.0  0.46069  0.53249  0.24649  1.0000
  C   C377      1.0  0.45908  0.71008  0.01579  1.0000
  H   H444      1.0  0.44121  0.68476  0.61893  1.0000
  H   H445      1.0  0.39258  0.55990  0.59156  1.0000
  Fe  Fe63      1.0  0.49443  0.59992  0.13412  1.0000
  C   C378      1.0  0.47800  0.54108  0.24287  1.0000
  S   S119      1.0  0.48145  0.62316  0.45606  1.0000
  C   C379      1.0  0.45279  0.60741  0.02998  1.0000
  H   H446      1.0  0.39145  0.71406  0.92080  1.0000
  N   N25       1.0  0.45994  0.56690  0.43483  1.0000
  C   C380      1.0  0.45355  0.57985  0.45077  1.0000
  C   C381      1.0  0.44980  0.55014  0.45832  1.0000
  C   C382      1.0  0.47742  0.57068  0.44460  1.0000
  C   C383      1.0  0.45857  0.56696  0.38928  1.0000
  C   C384      1.0  0.47285  0.57242  0.35765  1.0000
  C   C385      1.0  0.44253  0.56230  0.37524  1.0000
  C   C386      1.0  0.47108  0.57286  0.31486  1.0000
  C   C387      1.0  0.44091  0.56276  0.33235  1.0000
  C   C388      1.0  0.45516  0.56800  0.30222  1.0000
  H   H447      1.0  0.44008  0.57722  0.44771  1.0000
  H   H448      1.0  0.45499  0.58095  0.48454  1.0000
  H   H449      1.0  0.46035  0.59246  0.43265  1.0000
  H   H450      1.0  0.43615  0.54696  0.45669  1.0000
  H   H451      1.0  0.45102  0.54963  0.49253  1.0000
  H   H452      1.0  0.45371  0.53995  0.44586  1.0000
  C   C389      1.0  0.37687  0.72287  0.87950  1.0000
  H   H453      1.0  0.47789  0.56998  0.47919  1.0000
  H   H454      1.0  0.48319  0.56165  0.43250  1.0000
  H   H455      1.0  0.48557  0.57685  0.36500  1.0000
  H   H456      1.0  0.43109  0.55870  0.39737  1.0000
  H   H457      1.0  0.47690  0.54626  0.06368  1.0000
  H   H458      1.0  0.42853  0.55944  0.32236  1.0000
  H   H459      1.0  0.45383  0.56867  0.26900  1.0000
  H   H460      1.0  0.47453  0.67720  0.66530  1.0000
  H   H461      1.0  0.39017  0.53826  0.59084  1.0000
  C   C390      1.0  0.46016  0.50702  0.03491  1.0000
  C   C391      1.0  0.47109  0.65346  0.07821  1.0000
  C   C392      1.0  0.42706  0.51879  0.17455  1.0000
  H   H462      1.0  0.48548  0.58373  0.43133  1.0000
  H   H463      1.0  0.50079  0.55424  0.20058  1.0000
  H   H464      1.0  0.49995  0.50880  0.05033  1.0000
  C   C393      1.0  0.42471  0.52913  0.24110  1.0000
  H   H465      1.0  0.36994  0.55696  0.69527  1.0000
  H   H466      1.0  0.44249  0.59233  0.96432  1.0000
  C   C394      1.0  0.48811  0.64981  0.91014  1.0000
  N   N26       1.0  0.37892  0.54367  0.64865  1.0000
  H   H467      1.0  0.48580  0.63410  0.01164  1.0000
  S   S120      1.0  0.37118  0.52487  0.44889  1.0000
  H   H468      1.0  0.48764  0.67206  0.02876  1.0000
  C   C395      1.0  0.36659  0.52662  0.66364  1.0000
  C   C396      1.0  0.35904  0.52226  0.70643  1.0000
  C   C397      1.0  0.37197  0.55686  0.66070  1.0000
  C   C398      1.0  0.45168  0.68566  0.08601  1.0000
  H   H469      1.0  0.40003  0.53597  0.65972  1.0000
  H   H470      1.0  0.42763  0.54244  0.22712  1.0000
  H   H471      1.0  0.40221  0.74125  0.94932  1.0000
  H   H472      1.0  0.46289  0.71957  0.98855  1.0000
  H   H473      1.0  0.44185  0.71229  0.94629  1.0000
  C   C399      1.0  0.46827  0.69582  0.07218  1.0000
  C   C400      1.0  0.47678  0.59845  0.01453  1.0000
  H   H474      1.0  0.31737  0.51391  0.30726  1.0000
  C   C401      1.0  0.48881  0.51227  0.04888  1.0000
  H   H475      1.0  0.35968  0.55498  0.64905  1.0000
  C   C402      1.0  0.32580  0.50755  0.91361  1.0000
  H   H476      1.0  0.36194  0.53119  0.72895  1.0000
  Fe  Fe64      1.0  0.39546  0.52942  0.47462  1.0000
  C   C403      1.0  0.48326  0.63401  0.97935  1.0000
  C   C404      1.0  0.48954  0.61957  0.40655  1.0000
  H   H477      1.0  0.45413  0.66645  0.58273  1.0000
  Fe  Fe65      1.0  0.48911  0.61715  0.51947  1.0000
  H   H478      1.0  0.44312  0.61194  0.01705  1.0000
  H   H479      1.0  0.30254  0.50549  0.37493  1.0000
  H   H480      1.0  0.27739  0.53798  0.57607  1.0000
  C   C405      1.0  0.35749  0.50839  0.93311  1.0000
  C   C406      1.0  0.44197  0.69998  0.02929  1.0000
  S   S121      1.0  0.48328  0.58673  0.19888  1.0000
  H   H481      1.0  0.45998  0.61734  0.04780  1.0000
  C   C407      1.0  0.33525  0.52133  0.37795  1.0000
  H   H482      1.0  0.49507  0.66649  0.38692  1.0000
  H   H483      1.0  0.48495  0.71555  0.02586  1.0000
  C   C408      1.0  0.39355  0.73984  0.92625  1.0000
  C   C409      1.0  0.27965  0.53113  0.60467  1.0000
  S   S122      1.0  0.47220  0.60732  0.12215  1.0000
  H   H484      1.0  0.41295  0.67525  0.01845  1.0000
  C   C410      1.0  0.41882  0.68585  0.99261  1.0000
  H   H485      1.0  0.38048  0.56976  0.64722  1.0000
  C   C411      1.0  0.49122  0.64887  0.95175  1.0000
  C   C412      1.0  0.38371  0.54686  0.60219  1.0000
  H   H486      1.0  0.50120  0.53652  0.06808  1.0000
  H   H487      1.0  0.49418  0.66142  0.88891  1.0000
  C   C413      1.0  0.48075  0.62068  0.37237  1.0000
  H   H488      1.0  0.46920  0.62349  0.37709  1.0000
  H   H489      1.0  0.39203  0.54444  0.70302  1.0000
  H   H490      1.0  0.42612  0.67913  0.07633  1.0000
  C   C414      1.0  0.46904  0.62091  0.92318  1.0000
  H   H491      1.0  0.37406  0.52207  0.25239  1.0000
  H   H492      1.0  0.41332  0.51153  0.17920  1.0000
  H   H493      1.0  0.36714  0.51570  0.60411  1.0000
  S   S123      1.0  0.48658  0.65550  0.11208  1.0000
  N   N27       1.0  0.46381  0.60393  0.99589  1.0000
  C   C415      1.0  0.27984  0.55394  0.64487  1.0000
  H   H494      1.0  0.49965  0.65981  0.96290  1.0000
  C   C416      1.0  0.39445  0.54569  0.66807  1.0000
  H   H495      1.0  0.36619  0.51786  0.86741  1.0000
  C   C417      1.0  0.48738  0.54751  0.20334  1.0000
  H   H496      1.0  0.41088  0.52288  0.24356  1.0000
  C   C418      1.0  0.46257  0.66217  0.01202  1.0000
  H   H497      1.0  0.47453  0.63691  0.86351  1.0000
  C   C419      1.0  0.47197  0.70795  0.03707  1.0000
  H   H498      1.0  0.49764  0.64973  0.77438  1.0000
  H   H499      1.0  0.46568  0.66986  0.98166  1.0000
  H   H500      1.0  0.37258  0.54532  0.58552  1.0000
  H   H501      1.0  0.27299  0.51303  0.68042  1.0000
  H   H502      1.0  0.35024  0.53219  0.52624  1.0000
  H   H503      1.0  0.50054  0.64337  0.70040  1.0000
  C   C420      1.0  0.31991  0.51842  0.63184  1.0000
  C   C421      1.0  0.49223  0.65541  0.75076  1.0000
  H   H504      1.0  0.44753  0.57800  0.00002  1.0000
  C   C422      1.0  0.32198  0.50626  0.60660  1.0000
  H   H505      1.0  0.37741  0.50751  0.19013  1.0000
  H   H506      1.0  0.27272  0.53003  0.71058  1.0000
  C   C423      1.0  0.45322  0.58955  0.97657  1.0000
  C   C424      1.0  0.42786  0.74820  0.85918  1.0000
  H   H507      1.0  0.41590  0.74429  0.84729  1.0000
  H   H508      1.0  0.45686  0.53607  0.14139  1.0000
  H   H509      1.0  0.37243  0.71099  0.86674  1.0000
  N   N28       1.0  0.43398  0.52049  0.21521  1.0000
  C   C425      1.0  0.34746  0.50621  0.72120  1.0000
  H   H510      1.0  0.43312  0.51196  0.15382  1.0000
  C   C426      1.0  0.33315  0.51112  0.56875  1.0000
  C   C427      1.0  0.37228  0.73652  0.86427  1.0000
  H   H511      1.0  0.25716  0.55288  0.73840  1.0000
  H   H512      1.0  0.31164  0.51450  0.66146  1.0000
  H   H513      1.0  0.32120  0.50552  0.23724  1.0000
  H   H514      1.0  0.42854  0.53127  0.15748  1.0000
  H   H515      1.0  0.29139  0.53101  0.67791  1.0000
  S   S124      1.0  0.49317  0.60909  0.63960  1.0000
  C   C428      1.0  0.38750  0.72453  0.91028  1.0000
  H   H516      1.0  0.29363  0.55788  0.64628  1.0000
  H   H517      1.0  0.44895  0.67579  0.11235  1.0000
  H   H518      1.0  0.25484  0.54774  0.58969  1.0000
  H   H519      1.0  0.45058  0.52742  0.04286  1.0000
  H   H520      1.0  0.33499  0.52575  0.40954  1.0000
  H   H521      1.0  0.48418  0.54287  0.27083  1.0000
  H   H522      1.0  0.48683  0.55107  0.13679  1.0000
  C   C429      1.0  0.48673  0.61814  0.33213  1.0000
  H   H523      1.0  0.27403  0.55785  0.67291  1.0000
  H   H524      1.0  0.49307  0.65883  0.25063  1.0000
  S   S125      1.0  0.39473  0.50541  0.99543  1.0000
  H   H525      1.0  0.31348  0.50691  0.90617  1.0000
  C   C430      1.0  0.49387  0.65178  0.70894  1.0000
  C   C431      1.0  0.25385  0.53059  0.64553  1.0000
  Fe  Fe66      1.0  0.45099  0.81412  0.88835  1.0000
  S   S126      1.0  0.44190  0.82547  0.94315  1.0000
  Fe  Fe67      1.0  0.44824  0.84139  0.82324  1.0000
  S   S127      1.0  0.43850  0.85442  0.87202  1.0000
  S   S128      1.0  0.44947  0.84860  0.75317  1.0000
  Fe  Fe68      1.0  0.45848  0.85077  0.90893  1.0000
  S   S129      1.0  0.47384  0.87513  0.93203  1.0000
  Fe  Fe69      1.0  0.42273  0.82853  0.90249  1.0000
  S   S130      1.0  0.39586  0.82394  0.92991  1.0000
  S   S131      1.0  0.46937  0.83937  0.85735  1.0000
  S   S132      1.0  0.43057  0.81547  0.85065  1.0000
  Fe  Fe70      1.0  0.28313  0.80744  0.82407  1.0000
  S   S133      1.0  0.29971  0.80419  0.76871  1.0000
  Fe  Fe71      1.0  0.30871  0.84201  0.83366  1.0000
  S   S134      1.0  0.32696  0.84155  0.77860  1.0000
  S   S135      1.0  0.31256  0.86562  0.86547  1.0000
  Fe  Fe72      1.0  0.30447  0.83146  0.74555  1.0000
  S   S136      1.0  0.30332  0.83828  0.67629  1.0000
  Fe  Fe73      1.0  0.32107  0.81460  0.80581  1.0000
  S   S137      1.0  0.34297  0.80510  0.80254  1.0000
  S   S138      1.0  0.28651  0.83414  0.79814  1.0000
  S   S139      1.0  0.30433  0.81563  0.86357  1.0000
  H   H526      1.0  0.34322  0.95247  0.18097  1.0000
  Fe  Fe74      1.0  0.49480  0.92981  0.49767  1.0000
  C   C432      1.0  0.40396  0.95034  0.61407  1.0000
  Fe  Fe75      1.0  0.48154  0.94730  0.16253  1.0000
  S   S140      1.0  0.45763  0.95217  0.18099  1.0000
  H   H527      1.0  0.48260  0.87210  0.28018  1.0000
  H   H528      1.0  0.47086  0.76253  0.90036  1.0000
  H   H529      1.0  0.28911  0.83344  0.91922  1.0000
  H   H530      1.0  0.48915  0.79802  0.68671  1.0000
  H   H531      1.0  0.41903  0.97520  0.14664  1.0000
  H   H532      1.0  0.28345  0.80201  0.67630  1.0000
  C   C433      1.0  0.37851  0.99175  0.03972  1.0000
  Fe  Fe76      1.0  0.47754  0.94538  0.56063  1.0000
  S   S141      1.0  0.45507  0.95359  0.57019  1.0000
  S   S142      1.0  0.47731  0.91889  0.55853  1.0000
  Fe  Fe77      1.0  0.35859  0.90800  0.04911  1.0000
  S   S143      1.0  0.38105  0.91104  0.08294  1.0000
  S   S144      1.0  0.34805  0.88180  0.02907  1.0000
  Fe  Fe78      1.0  0.36053  0.94406  0.05608  1.0000
  S   S145      1.0  0.38305  0.95003  0.08940  1.0000
  S   S146      1.0  0.34887  0.96423  0.04595  1.0000
  Fe  Fe79      1.0  0.39247  0.93596  0.04322  1.0000
  S   S147      1.0  0.42015  0.94495  0.02113  1.0000
  Fe  Fe80      1.0  0.37022  0.92479  0.12789  1.0000
  S   S148      1.0  0.37726  0.92263  0.19381  1.0000
  S   S149      1.0  0.37107  0.93217  0.00517  1.0000
  S   S150      1.0  0.34644  0.91957  0.09819  1.0000
  Fe  Fe81      1.0  0.38478  0.93052  0.45257  1.0000
  S   S151      1.0  0.38016  0.94055  0.51278  1.0000
  S   S152      1.0  0.40747  0.92294  0.43888  1.0000
  Fe  Fe82      1.0  0.35306  0.93214  0.42327  1.0000
  S   S153      1.0  0.34537  0.94212  0.48208  1.0000
  S   S154      1.0  0.33826  0.92847  0.36795  1.0000
  Fe  Fe83      1.0  0.37236  0.95902  0.47359  1.0000
  Fe  Fe84      1.0  0.35371  0.92277  0.51767  1.0000
  S   S155      1.0  0.34626  0.91235  0.58721  1.0000
  S   S156      1.0  0.37941  0.95059  0.41241  1.0000
  S   S157      1.0  0.35899  0.91124  0.45966  1.0000
  C   C434      1.0  0.36588  0.92406  0.24155  1.0000
  C   C435      1.0  0.34924  0.92376  0.24446  1.0000
  C   C436      1.0  0.34084  0.92513  0.28335  1.0000
  C   C437      1.0  0.34900  0.92676  0.31946  1.0000
  C   C438      1.0  0.36562  0.92703  0.31640  1.0000
  C   C439      1.0  0.37400  0.92569  0.27764  1.0000
  H   H533      1.0  0.34277  0.92220  0.21702  1.0000
  H   H534      1.0  0.32793  0.92473  0.28564  1.0000
  H   H535      1.0  0.37196  0.92809  0.34403  1.0000
  H   H536      1.0  0.38683  0.92583  0.27568  1.0000
  C   C440      1.0  0.44288  0.94609  0.53071  1.0000
  C   C441      1.0  0.43152  0.95373  0.51828  1.0000
  C   C442      1.0  0.42145  0.94733  0.48758  1.0000
  C   C443      1.0  0.42221  0.93289  0.47075  1.0000
  C   C444      1.0  0.43408  0.92572  0.48171  1.0000
  C   C445      1.0  0.44448  0.93242  0.51143  1.0000
  H   H537      1.0  0.43057  0.96460  0.53213  1.0000
  H   H538      1.0  0.41313  0.95361  0.47690  1.0000
  H   H539      1.0  0.43497  0.91472  0.46825  1.0000
  H   H540      1.0  0.45341  0.92664  0.52007  1.0000
  C   C446      1.0  0.44726  0.95248  0.13678  1.0000
  C   C447      1.0  0.42974  0.94606  0.14164  1.0000
  C   C448      1.0  0.42141  0.94418  0.10608  1.0000
  C   C449      1.0  0.43051  0.94903  0.06555  1.0000
  C   C450      1.0  0.44802  0.95628  0.06078  1.0000
  C   C451      1.0  0.45638  0.95800  0.09643  1.0000
  H   H541      1.0  0.42259  0.94170  0.17276  1.0000
  H   H542      1.0  0.40798  0.93816  0.11041  1.0000
  H   H543      1.0  0.45512  0.96018  0.02956  1.0000
  H   H544      1.0  0.46989  0.96345  0.09254  1.0000
  C   C452      1.0  0.42665  0.88670  0.05316  1.0000
  C   C453      1.0  0.44707  0.91422  0.05702  1.0000
  H   H545      1.0  0.27620  0.85108  0.87754  1.0000
  C   C454      1.0  0.41282  0.88755  0.90900  1.0000
  S   S158      1.0  0.45999  0.79131  0.89398  1.0000
  C   C455      1.0  0.31531  0.85886  0.65144  1.0000
  C   C456      1.0  0.31641  0.86275  0.60758  1.0000
  C   C457      1.0  0.32592  0.87904  0.58715  1.0000
  C   C458      1.0  0.33433  0.89157  0.61060  1.0000
  C   C459      1.0  0.33329  0.88763  0.65435  1.0000
  C   C460      1.0  0.32387  0.87136  0.67469  1.0000
  H   H546      1.0  0.30982  0.85314  0.58936  1.0000
  H   H547      1.0  0.32656  0.88195  0.55345  1.0000
  H   H548      1.0  0.33975  0.89722  0.67276  1.0000
  H   H549      1.0  0.32312  0.86855  0.70844  1.0000
  C   C461      1.0  0.33817  0.87757  0.98353  1.0000
  C   C462      1.0  0.33498  0.89015  0.95816  1.0000
  C   C463      1.0  0.32717  0.88628  0.92201  1.0000
  C   C464      1.0  0.32282  0.86993  0.91040  1.0000
  C   C465      1.0  0.32624  0.85740  0.93541  1.0000
  C   C466      1.0  0.33359  0.86115  0.97225  1.0000
  H   H550      1.0  0.33837  0.90282  0.96663  1.0000
  H   H551      1.0  0.32447  0.89602  0.90292  1.0000
  H   H552      1.0  0.32288  0.84475  0.92690  1.0000
  H   H553      1.0  0.33584  0.85130  0.99204  1.0000
  C   C467      1.0  0.46488  0.86707  0.72540  1.0000
  C   C468      1.0  0.46301  0.87262  0.68433  1.0000
  C   C469      1.0  0.47533  0.88685  0.66056  1.0000
  S   S159      1.0  0.49894  0.95271  0.59824  1.0000
  C   C470      1.0  0.36088  0.98544  0.04859  1.0000
  C   C471      1.0  0.47926  0.87580  0.74249  1.0000
  H   H554      1.0  0.45199  0.86585  0.67077  1.0000
  H   H555      1.0  0.47375  0.89093  0.62893  1.0000
  H   H556      1.0  0.45322  0.88760  0.09439  1.0000
  H   H557      1.0  0.48087  0.87163  0.77406  1.0000
  C   C472      1.0  0.47817  0.88019  0.98299  1.0000
  C   C473      1.0  0.49511  0.82055  0.64490  1.0000
  C   C474      1.0  0.35359  0.98495  0.18496  1.0000
  C   C475      1.0  0.47747  0.79037  0.76467  1.0000
  H   H558      1.0  0.39034  0.96152  0.18188  1.0000
  C   C476      1.0  0.47439  0.86789  0.01804  1.0000
  C   C477      1.0  0.36807  0.77489  0.89735  1.0000
  H   H559      1.0  0.47517  0.86306  0.08474  1.0000
  C   C478      1.0  0.27061  0.85000  0.96107  1.0000
  H   H560      1.0  0.47387  0.87122  0.35474  1.0000
  C   C479      1.0  0.38142  0.82067  0.89341  1.0000
  C   C480      1.0  0.38671  0.82091  0.85074  1.0000
  C   C481      1.0  0.37483  0.81682  0.82258  1.0000
  C   C482      1.0  0.35770  0.81296  0.83672  1.0000
  C   C483      1.0  0.35251  0.81375  0.87892  1.0000
  C   C484      1.0  0.36435  0.81740  0.90735  1.0000
  H   H561      1.0  0.39989  0.82384  0.83953  1.0000
  H   H562      1.0  0.37890  0.81636  0.78986  1.0000
  H   H563      1.0  0.33928  0.81065  0.89008  1.0000
  H   H564      1.0  0.36021  0.81722  0.94037  1.0000
  H   H565      1.0  0.35694  0.96256  0.13293  1.0000
  H   H566      1.0  0.40714  0.85268  0.98018  1.0000
  N   N29       1.0  0.36465  0.96250  0.63157  1.0000
  C   C485      1.0  0.35897  0.96020  0.58973  1.0000
  C   C486      1.0  0.35392  0.94792  0.66241  1.0000
  C   C487      1.0  0.36180  0.97789  0.64444  1.0000
  C   C488      1.0  0.38244  0.96340  0.62925  1.0000
  C   C489      1.0  0.49421  0.99564  0.56773  1.0000
  H   H567      1.0  0.49876  0.81492  0.61820  1.0000
  H   H568      1.0  0.48218  0.84146  0.73856  1.0000
  H   H569      1.0  0.36349  0.78507  0.88532  1.0000
  H   H570      1.0  0.42930  0.96480  0.62137  1.0000
  H   H571      1.0  0.35885  0.94800  0.57957  1.0000
  H   H572      1.0  0.34593  0.96034  0.58940  1.0000
  H   H573      1.0  0.36733  0.97032  0.56519  1.0000
  H   H574      1.0  0.35405  0.93566  0.65263  1.0000
  H   H575      1.0  0.34049  0.94710  0.66586  1.0000
  H   H576      1.0  0.35818  0.94877  0.69400  1.0000
  H   H577      1.0  0.27065  0.78398  0.65566  1.0000
  C   C490      1.0  0.26675  0.87511  0.98719  1.0000
  H   H578      1.0  0.34834  0.97685  0.64573  1.0000
  S   S160      1.0  0.48923  0.89522  0.11417  1.0000
  C   C491      1.0  0.48888  0.90203  0.02828  1.0000
  Fe  Fe85      1.0  0.49689  0.92226  0.12944  1.0000
  H   H579      1.0  0.48870  0.00058  0.18057  1.0000
  C   C492      1.0  0.39456  0.99560  0.51315  1.0000
  C   C493      1.0  0.36425  0.96897  0.23307  1.0000
  C   C494      1.0  0.41205  0.97788  0.63686  1.0000
  C   C495      1.0  0.49200  0.87894  0.29831  1.0000
  C   C496      1.0  0.42517  0.90002  0.92501  1.0000
  C   C497      1.0  0.40901  0.88031  0.05202  1.0000
  N   N30       1.0  0.38707  0.88926  0.56328  1.0000
  C   C498      1.0  0.37466  0.88760  0.53312  1.0000
  C   C499      1.0  0.39234  0.90686  0.57317  1.0000
  C   C500      1.0  0.40188  0.88625  0.54139  1.0000
  C   C501      1.0  0.38040  0.87752  0.60294  1.0000
  C   C502      1.0  0.36326  0.86695  0.61279  1.0000
  C   C503      1.0  0.39111  0.87666  0.63361  1.0000
  C   C504      1.0  0.35741  0.85605  0.65063  1.0000
  C   C505      1.0  0.38513  0.86569  0.67131  1.0000
  C   C506      1.0  0.36831  0.85539  0.67978  1.0000
  H   H580      1.0  0.36373  0.89106  0.54598  1.0000
  H   H581      1.0  0.38029  0.89618  0.50313  1.0000
  H   H582      1.0  0.36998  0.87458  0.52458  1.0000
  H   H583      1.0  0.38154  0.90957  0.58984  1.0000
  H   H584      1.0  0.39726  0.91609  0.54403  1.0000
  H   H585      1.0  0.40253  0.90949  0.59339  1.0000
  H   H586      1.0  0.39878  0.87278  0.53644  1.0000
  H   H587      1.0  0.40634  0.89400  0.50987  1.0000
  H   H588      1.0  0.41288  0.88968  0.55895  1.0000
  H   H589      1.0  0.35403  0.86691  0.59204  1.0000
  H   H590      1.0  0.40421  0.88454  0.62874  1.0000
  H   H591      1.0  0.34427  0.84813  0.65757  1.0000
  H   H592      1.0  0.39357  0.86518  0.69415  1.0000
  H   H593      1.0  0.36364  0.84692  0.70907  1.0000
  H   H594      1.0  0.36305  0.94972  0.17110  1.0000
  H   H595      1.0  0.45982  0.94749  0.40104  1.0000
  H   H596      1.0  0.27700  0.81961  0.96603  1.0000
  C   C507      1.0  0.27213  0.79040  0.68447  1.0000
  H   H597      1.0  0.39985  0.78494  0.86150  1.0000
  H   H598      1.0  0.49065  0.82944  0.79497  1.0000
  C   C508      1.0  0.40699  0.98856  0.52011  1.0000
  H   H599      1.0  0.46351  0.98470  0.60635  1.0000
  N   N31       1.0  0.38195  0.87171  0.90431  1.0000
  C   C509      1.0  0.38834  0.86350  0.87070  1.0000
  C   C510      1.0  0.37233  0.85836  0.93929  1.0000
  C   C511      1.0  0.37029  0.87939  0.88631  1.0000
  H   H600      1.0  0.39637  0.85649  0.88256  1.0000
  H   H601      1.0  0.37789  0.85401  0.85860  1.0000
  H   H602      1.0  0.38033  0.85143  0.95171  1.0000
  H   H603      1.0  0.36136  0.84893  0.92892  1.0000
  H   H604      1.0  0.36733  0.86356  0.96616  1.0000
  C   C512      1.0  0.48953  0.81094  0.68465  1.0000
  H   H605      1.0  0.37721  0.89021  0.86166  1.0000
  H   H606      1.0  0.36045  0.87014  0.87186  1.0000
  N   N32       1.0  0.44368  0.94080  0.33124  1.0000
  C   C513      1.0  0.43873  0.92358  0.35443  1.0000
  C   C514      1.0  0.43357  0.95003  0.35178  1.0000
  C   C515      1.0  0.43917  0.93903  0.28801  1.0000
  C   C516      1.0  0.46178  0.94983  0.33224  1.0000
  C   C517      1.0  0.46802  0.95224  0.37142  1.0000
  C   C518      1.0  0.47368  0.95631  0.29512  1.0000
  H   H607      1.0  0.50015  0.84472  0.60846  1.0000
  H   H608      1.0  0.47617  0.99692  0.64152  1.0000
  N   N33       1.0  0.47848  0.80830  0.76261  1.0000
  H   H609      1.0  0.44018  0.92372  0.38835  1.0000
  H   H610      1.0  0.42524  0.91625  0.35366  1.0000
  H   H611      1.0  0.44653  0.91646  0.34095  1.0000
  H   H612      1.0  0.43523  0.95084  0.38544  1.0000
  H   H613      1.0  0.41984  0.94363  0.35156  1.0000
  H   H614      1.0  0.43709  0.96313  0.33565  1.0000
  H   H615      1.0  0.44601  0.93183  0.27084  1.0000
  H   H616      1.0  0.42550  0.93216  0.28839  1.0000
  H   H617      1.0  0.44199  0.95154  0.26903  1.0000
  C   C519      1.0  0.49126  0.84464  0.67341  1.0000
  H   H618      1.0  0.46857  0.99600  0.52924  1.0000
  H   H619      1.0  0.49094  0.92366  0.28667  1.0000
  H   H620      1.0  0.48842  0.90686  0.96147  1.0000
  C   C520      1.0  0.36212  0.76383  0.83246  1.0000
  N   N34       1.0  0.43446  0.89888  0.08178  1.0000
  C   C521      1.0  0.42221  0.90437  0.10766  1.0000
  C   C522      1.0  0.44304  0.89112  0.11117  1.0000
  C   C523      1.0  0.43680  0.88050  0.02594  1.0000
  H   H621      1.0  0.42847  0.91344  0.12892  1.0000
  H   H622      1.0  0.41575  0.91091  0.08740  1.0000
  H   H623      1.0  0.41258  0.89360  0.12834  1.0000
  H   H624      1.0  0.43406  0.87943  0.13013  1.0000
  H   H625      1.0  0.44911  0.89991  0.13328  1.0000
  H   H626      1.0  0.44119  0.92028  0.03390  1.0000
  H   H627      1.0  0.45285  0.92380  0.07767  1.0000
  H   H628      1.0  0.45027  0.88485  0.02494  1.0000
  H   H629      1.0  0.37091  0.95977  0.23795  1.0000
  H   H630      1.0  0.27201  0.81492  0.72858  1.0000
  C   C524      1.0  0.27622  0.82549  0.93432  1.0000
  C   C525      1.0  0.45046  0.77031  0.88253  1.0000
  C   C526      1.0  0.28528  0.85337  0.98138  1.0000
  H   H631      1.0  0.46863  0.78345  0.74385  1.0000
  H   H632      1.0  0.35844  0.99644  0.20069  1.0000
  H   H633      1.0  0.37042  0.97995  0.24944  1.0000
  H   H634      1.0  0.49003  0.78923  0.75603  1.0000
  C   C527      1.0  0.48982  0.89547  0.67736  1.0000
  C   C528      1.0  0.40368  0.90725  0.96562  1.0000
  H   H635      1.0  0.49135  0.88595  0.21070  1.0000
  H   H636      1.0  0.30196  0.86983  0.01783  1.0000
  C   C529      1.0  0.28134  0.87820  0.00607  1.0000
  C   C530      1.0  0.48459  0.81801  0.72009  1.0000
  C   C531      1.0  0.26041  0.80360  0.73603  1.0000
  C   C532      1.0  0.48677  0.87825  0.34131  1.0000
  H   H637      1.0  0.39648  0.77449  0.81535  1.0000
  C   C533      1.0  0.41248  0.86218  0.00013  1.0000
  H   H638      1.0  0.38861  0.86340  0.02587  1.0000
  C   C534      1.0  0.43501  0.76506  0.86705  1.0000
  H   H639      1.0  0.49179  0.85769  0.66904  1.0000
  H   H640      1.0  0.43794  0.86392  0.97949  1.0000
  H   H641      1.0  0.45767  0.91156  0.03942  1.0000
  H   H642      1.0  0.36529  0.98017  0.67637  1.0000
  H   H643      1.0  0.36331  0.88410  0.91047  1.0000
  H   H644      1.0  0.42850  0.77392  0.86148  1.0000
  C   C535      1.0  0.35660  0.95914  0.16734  1.0000
  H   H645      1.0  0.39573  0.87288  0.84332  1.0000
  C   C536      1.0  0.39542  0.97757  0.63910  1.0000
  H   H646      1.0  0.43837  0.90196  0.91578  1.0000
  C   C537      1.0  0.49177  0.88983  0.71834  1.0000
  C   C538      1.0  0.41633  0.96435  0.62414  1.0000
  H   H647      1.0  0.45596  0.80054  0.80793  1.0000
  H   H648      1.0  0.46878  0.85472  0.01437  1.0000
  H   H649      1.0  0.47640  0.91289  0.35962  1.0000
  H   H650      1.0  0.48636  0.98306  0.56057  1.0000
  C   C539      1.0  0.38197  0.98299  0.16739  1.0000
  C   C540      1.0  0.29053  0.86732  0.00331  1.0000
  H   H651      1.0  0.26253  0.76525  0.80751  1.0000
  S   S161      1.0  0.37842  0.98641  0.48336  1.0000
  H   H652      1.0  0.33867  0.99166  0.06548  1.0000
  H   H653      1.0  0.40017  0.91491  0.98762  1.0000
  H   H654      1.0  0.48575  0.80932  0.82505  1.0000
  N   N35       1.0  0.25687  0.79442  0.69900  1.0000
  H   H655      1.0  0.40661  0.97698  0.50790  1.0000
  C   C541      1.0  0.39541  0.88470  0.92071  1.0000
  C   C542      1.0  0.49072  0.96457  0.29747  1.0000
  C   C543      1.0  0.45880  0.75858  0.88894  1.0000
  C   C544      1.0  0.40211  0.86817  0.02594  1.0000
  N   N36       1.0  0.36441  0.97430  0.18776  1.0000
  C   C545      1.0  0.48545  0.89725  0.98839  1.0000
  H   H656      1.0  0.47314  0.98740  0.15296  1.0000
  C   C546      1.0  0.41037  0.98219  0.14730  1.0000
  H   H657      1.0  0.47025  0.95496  0.26389  1.0000
  H   H658      1.0  0.38528  0.98338  0.03168  1.0000
  H   H659      1.0  0.34050  0.97805  0.20056  1.0000
  H   H660      1.0  0.47274  0.78354  0.79721  1.0000
  S   S162      1.0  0.48989  0.94308  0.09743  1.0000
  C   C547      1.0  0.39385  0.97446  0.16735  1.0000
  H   H661      1.0  0.37830  0.89303  0.96165  1.0000
  H   H662      1.0  0.34996  0.75425  0.84745  1.0000
  H   H663      1.0  0.40749  0.94001  0.60354  1.0000
  C   C548      1.0  0.46137  0.80841  0.77692  1.0000
  H   H664      1.0  0.26596  0.81710  0.65434  1.0000
  H   H665      1.0  0.37806  0.93858  0.60886  1.0000
  C   C549      1.0  0.39124  0.89476  0.95014  1.0000
  H   H666      1.0  0.41730  0.88031  0.88766  1.0000
  H   H667      1.0  0.40023  0.88443  0.07095  1.0000
  S   S163      1.0  0.49350  0.95575  0.49845  1.0000
  C   C550      1.0  0.42060  0.90997  0.95290  1.0000
  C   C551      1.0  0.42981  0.86845  0.99986  1.0000
  C   C552      1.0  0.39049  0.78002  0.83985  1.0000
  H   H668      1.0  0.27515  0.78233  0.70955  1.0000
  H   H669      1.0  0.29312  0.84561  0.98035  1.0000
  H   H670      1.0  0.35923  0.77534  0.82131  1.0000
  H   H671      1.0  0.35122  0.96259  0.24971  1.0000
  H   H672      1.0  0.43015  0.91981  0.96477  1.0000
  H   H673      1.0  0.35731  0.76523  0.91802  1.0000
  H   H674      1.0  0.49610  0.86666  0.22116  1.0000
  H   H675      1.0  0.48962  0.96167  0.40360  1.0000
  C   C553      1.0  0.47805  0.87266  0.05789  1.0000
  C   C554      1.0  0.38724  0.94974  0.61689  1.0000
  H   H676      1.0  0.42178  0.98898  0.64365  1.0000
  C   C555      1.0  0.48994  0.81623  0.79254  1.0000
  H   H677      1.0  0.38826  0.79110  0.82375  1.0000
  S   S164      1.0  0.48625  0.92503  0.19437  1.0000
  C   C556      1.0  0.47069  0.99778  0.61175  1.0000
  C   C557      1.0  0.48531  0.88975  0.06321  1.0000
  H   H678      1.0  0.49446  0.91522  0.03183  1.0000
  H   H679      1.0  0.46125  0.82125  0.78100  1.0000
  H   H680      1.0  0.27175  0.81494  0.91513  1.0000
  H   H681      1.0  0.37774  0.78086  0.91737  1.0000
  C   C558      1.0  0.49593  0.83734  0.63930  1.0000
  H   H682      1.0  0.43010  0.99167  0.54621  1.0000
  H   H683      1.0  0.28560  0.88907  0.02279  1.0000
  C   C559      1.0  0.49753  0.92738  0.31313  1.0000
  H   H684      1.0  0.35264  0.98881  0.15151  1.0000
  C   C560      1.0  0.48507  0.96049  0.37331  1.0000
  C   C561      1.0  0.42028  0.99690  0.54173  1.0000
  H   H685      1.0  0.45262  0.80354  0.75383  1.0000
  H   H686      1.0  0.36910  0.98922  0.62143  1.0000
  N   N37       1.0  0.37470  0.76742  0.86246  1.0000
  C   C562      1.0  0.35226  0.99640  0.05869  1.0000
  C   C563      1.0  0.48573  0.83519  0.71321  1.0000
  N   N38       1.0  0.26487  0.83559  0.93666  1.0000
  H   H687      1.0  0.39320  0.98876  0.64790  1.0000
  H   H688      1.0  0.39471  0.76540  0.92322  1.0000
  H   H689      1.0  0.26215  0.79531  0.76268  1.0000
  C   C564      1.0  0.48929  0.92134  0.35450  1.0000
  S   S165      1.0  0.48760  0.91655  0.44051  1.0000
  H   H690      1.0  0.49376  0.88675  0.40016  1.0000
  C   C565      1.0  0.49776  0.92589  0.38929  1.0000
  H   H691      1.0  0.26027  0.83136  0.87304  1.0000
  C   C566      1.0  0.26385  0.84184  0.89277  1.0000
  S   S166      1.0  0.25579  0.79196  0.85155  1.0000
  H   H692      1.0  0.49388  0.98756  0.09533  1.0000
  H   H693      1.0  0.25264  0.75988  0.69760  1.0000
  Fe  Fe86      1.0  0.50033  0.92696  0.59065  1.0000
  C   C567      1.0  0.49798  0.88687  0.36710  1.0000
  C   C568      1.0  0.48033  0.00074  0.15613  1.0000
  H   H694      1.0  0.50026  0.99325  0.59561  1.0000
  C   C569      1.0  0.38781  0.99989  0.14697  1.0000
  H   H695      1.0  0.36677  0.75947  0.80356  1.0000
  C   C570      1.0  0.41563  0.99870  0.12733  1.0000
  C   C571      1.0  0.25437  0.80587  0.66461  1.0000
  C   C572      1.0  0.26140  0.86122  0.96508  1.0000
  H   H696      1.0  0.25963  0.88362  0.98945  1.0000
  H   H697      1.0  0.25437  0.84820  0.89095  1.0000
  H   H698      1.0  0.49971  0.96895  0.26895  1.0000
  C   C573      1.0  0.49638  0.96664  0.33643  1.0000
  H   H699      1.0  0.47200  0.99681  0.07683  1.0000
  C   C574      1.0  0.50119  0.00064  0.10028  1.0000
  C   C575      1.0  0.38918  0.75361  0.91100  1.0000
  Fe  Fe87      1.0  0.57749  0.07676  0.06358  1.0000
  S   S167      1.0  0.60269  0.09395  0.03036  1.0000
  H   H700      1.0  0.60554  0.11606  0.15513  1.0000
  Fe  Fe88      1.0  0.55977  0.10026  0.03277  1.0000
  S   S168      1.0  0.58328  0.11902  0.99602  1.0000
  S   S169      1.0  0.53554  0.10576  0.03865  1.0000
  Fe  Fe89      1.0  0.58865  0.09637  0.97546  1.0000
  S   S170      1.0  0.59798  0.09096  0.91107  1.0000
  Fe  Fe90      1.0  0.59517  0.11508  0.05413  1.0000
  S   S171      1.0  0.61201  0.13896  0.07641  1.0000
  S   S172      1.0  0.56409  0.07791  0.00767  1.0000
  S   S173      1.0  0.57111  0.09766  0.09179  1.0000
  Fe  Fe91      1.0  0.57577  0.09623  0.67847  1.0000
  S   S174      1.0  0.59241  0.08091  0.66578  1.0000
  S   S175      1.0  0.57127  0.10681  0.73961  1.0000
  Fe  Fe92      1.0  0.56679  0.09581  0.58822  1.0000
  S   S176      1.0  0.58236  0.08015  0.56926  1.0000
  S   S177      1.0  0.55279  0.10461  0.54088  1.0000
  Fe  Fe93      1.0  0.57166  0.06514  0.63307  1.0000
  H   H701      1.0  0.61676  0.03043  0.94967  1.0000
  Fe  Fe94      1.0  0.60126  0.09758  0.60322  1.0000
  S   S178      1.0  0.62869  0.11021  0.57792  1.0000
  S   S179      1.0  0.55444  0.07950  0.64956  1.0000
  S   S180      1.0  0.58625  0.11410  0.61837  1.0000
  H   H702      1.0  0.63257  0.15044  0.85801  1.0000
  H   H703      1.0  0.51882  0.11700  0.97278  1.0000
  C   C576      1.0  0.55803  0.02839  0.57086  1.0000
  C   C577      1.0  0.57218  0.24301  0.26956  1.0000
  H   H704      1.0  0.52384  0.11984  0.74804  1.0000
  H   H705      1.0  0.53567  0.16413  0.39617  1.0000
  S   S181      1.0  0.51480  0.19347  0.32308  1.0000
  Fe  Fe95      1.0  0.52333  0.17966  0.27410  1.0000
  S   S182      1.0  0.54956  0.18282  0.24504  1.0000
  H   H706      1.0  0.51509  0.14185  0.47111  1.0000
  H   H707      1.0  0.56135  0.24963  0.13461  1.0000
  C   C578      1.0  0.51713  0.06151  0.13296  1.0000
  C   C579      1.0  0.64150  0.11506  0.41211  1.0000
  Fe  Fe96      1.0  0.66914  0.20967  0.29970  1.0000
  S   S183      1.0  0.65548  0.21127  0.36166  1.0000
  S   S184      1.0  0.69315  0.23061  0.26691  1.0000
  Fe  Fe97      1.0  0.64209  0.17555  0.28967  1.0000
  S   S185      1.0  0.62691  0.17511  0.35174  1.0000
  S   S186      1.0  0.63127  0.15105  0.26106  1.0000
  Fe  Fe98      1.0  0.63215  0.20248  0.33063  1.0000
  S   S187      1.0  0.61176  0.21387  0.34133  1.0000
  Fe  Fe99      1.0  0.65147  0.18366  0.37712  1.0000
  S   S188      1.0  0.65820  0.17483  0.43950  1.0000
  S   S189      1.0  0.64578  0.20268  0.26704  1.0000
  S   S190      1.0  0.66666  0.18241  0.31675  1.0000
  C   C580      1.0  0.51749  0.03414  0.11757  1.0000
  H   H708      1.0  0.57991  0.23710  0.28543  1.0000
  C   C581      1.0  0.54762  0.24605  0.14527  1.0000
  C   C582      1.0  0.51229  0.05586  0.60622  1.0000
  C   C583      1.0  0.54426  0.01599  0.04308  1.0000
  C   C584      1.0  0.56639  0.19078  0.27370  1.0000
  C   C585      1.0  0.58216  0.19000  0.25889  1.0000
  C   C586      1.0  0.59600  0.19664  0.28024  1.0000
  C   C587      1.0  0.59427  0.20462  0.31577  1.0000
  C   C588      1.0  0.57848  0.20542  0.33070  1.0000
  C   C589      1.0  0.56450  0.19833  0.30997  1.0000
  H   H709      1.0  0.58378  0.18436  0.23058  1.0000
  H   H710      1.0  0.60810  0.19596  0.26849  1.0000
  H   H711      1.0  0.57709  0.21153  0.35831  1.0000
  H   H712      1.0  0.55241  0.19909  0.32147  1.0000
  H   H713      1.0  0.53914  0.01527  0.01357  1.0000
  H   H714      1.0  0.53708  0.21263  0.15198  1.0000
  H   H715      1.0  0.61890  0.11351  0.77452  1.0000
  H   H716      1.0  0.50376  0.12102  0.12296  1.0000
  H   H717      1.0  0.58602  0.02511  0.04558  1.0000
  H   H718      1.0  0.63927  0.14622  0.34222  1.0000
  C   C590      1.0  0.51216  0.12061  0.20025  1.0000
  C   C591      1.0  0.56287  0.23502  0.23922  1.0000
  H   H719      1.0  0.53969  0.05563  0.11897  1.0000
  H   H720      1.0  0.62862  0.11122  0.70587  1.0000
  C   C592      1.0  0.53457  0.10424  0.57160  1.0000
  C   C593      1.0  0.53515  0.10654  0.61396  1.0000
  C   C594      1.0  0.52026  0.10305  0.64132  1.0000
  C   C595      1.0  0.59822  0.02774  0.02522  1.0000
  H   H721      1.0  0.50514  0.14553  0.15565  1.0000
  C   C596      1.0  0.51919  0.09961  0.55579  1.0000
  H   H722      1.0  0.54707  0.11048  0.62602  1.0000
  H   H723      1.0  0.52073  0.10414  0.67446  1.0000
  H   H724      1.0  0.62668  0.04690  0.98013  1.0000
  C   C597      1.0  0.58611  0.03286  0.96033  1.0000
  C   C598      1.0  0.63569  0.12792  0.53858  1.0000
  C   C599      1.0  0.65299  0.13652  0.52965  1.0000
  C   C600      1.0  0.65943  0.15071  0.49914  1.0000
  C   C601      1.0  0.64876  0.15634  0.47607  1.0000
  C   C602      1.0  0.63133  0.14765  0.48426  1.0000
  C   C603      1.0  0.62477  0.13356  0.51603  1.0000
  H   H725      1.0  0.66152  0.13231  0.54679  1.0000
  H   H726      1.0  0.67286  0.15736  0.49328  1.0000
  H   H727      1.0  0.62294  0.15197  0.46689  1.0000
  H   H728      1.0  0.61135  0.12706  0.52293  1.0000
  C   C604      1.0  0.51754  0.08793  0.04067  1.0000
  C   C605      1.0  0.52041  0.11774  0.78200  1.0000
  H   H729      1.0  0.51570  0.10910  0.20527  1.0000
  H   H730      1.0  0.55760  0.02052  0.50885  1.0000
  C   C606      1.0  0.51721  0.06498  0.84747  1.0000
  C   C607      1.0  0.51857  0.07307  0.02660  1.0000
  H   H731      1.0  0.53408  0.04838  0.59681  1.0000
  C   C608      1.0  0.61552  0.12105  0.39987  1.0000
  C   C609      1.0  0.63145  0.14748  0.82608  1.0000
  H   H732      1.0  0.53052  0.07233  0.01456  1.0000
  C   C610      1.0  0.58904  0.09426  0.86502  1.0000
  C   C611      1.0  0.59185  0.08620  0.83002  1.0000
  C   C612      1.0  0.58605  0.08953  0.79176  1.0000
  C   C613      1.0  0.57774  0.10126  0.78789  1.0000
  C   C614      1.0  0.57473  0.10914  0.82308  1.0000
  C   C615      1.0  0.58021  0.10555  0.86159  1.0000
  H   H733      1.0  0.59873  0.07750  0.83234  1.0000
  H   H734      1.0  0.58834  0.08327  0.76507  1.0000
  H   H735      1.0  0.56851  0.11839  0.82035  1.0000
  H   H736      1.0  0.57817  0.11199  0.88813  1.0000
  C   C616      1.0  0.61669  0.14209  0.12839  1.0000
  C   C617      1.0  0.62532  0.15850  0.13689  1.0000
  C   C618      1.0  0.62956  0.16156  0.17746  1.0000
  C   C619      1.0  0.62539  0.14816  0.20994  1.0000
  C   C620      1.0  0.61661  0.13177  0.20157  1.0000
  C   C621      1.0  0.61218  0.12874  0.16114  1.0000
  H   H737      1.0  0.62886  0.16892  0.11181  1.0000
  H   H738      1.0  0.63635  0.17422  0.18331  1.0000
  H   H739      1.0  0.61332  0.12130  0.22641  1.0000
  C   C622      1.0  0.53100  0.07063  0.81585  1.0000
  H   H740      1.0  0.55800  0.21992  0.16532  1.0000
  C   C623      1.0  0.56910  0.13669  0.14071  1.0000
  C   C624      1.0  0.57521  0.14434  0.17515  1.0000
  H   H741      1.0  0.57771  0.13411  0.11718  1.0000
  H   H742      1.0  0.58846  0.14767  0.17828  1.0000
  H   H743      1.0  0.52431  0.13191  0.09510  1.0000
  C   C625      1.0  0.57383  0.01643  0.96960  1.0000
  H   H744      1.0  0.51869  0.09760  0.52317  1.0000
  H   H745      1.0  0.64731  0.15739  0.66803  1.0000
  H   H746      1.0  0.51929  0.06821  0.61392  1.0000
  C   C626      1.0  0.52594  0.10940  0.85147  1.0000
  H   H747      1.0  0.53941  0.14695  0.22515  1.0000
  H   H748      1.0  0.53200  0.16077  0.47503  1.0000
  C   C627      1.0  0.62814  0.13958  0.74263  1.0000
  H   H749      1.0  0.54135  0.10994  0.79334  1.0000
  H   H750      1.0  0.51168  0.07662  0.73202  1.0000
  H   H751      1.0  0.57161  0.04551  0.87177  1.0000
  H   H752      1.0  0.51112  0.08532  0.92264  1.0000
  H   H753      1.0  0.64473  0.11420  0.32997  1.0000
  H   H754      1.0  0.73800  0.23635  0.38113  1.0000
  C   C628      1.0  0.55235  0.02349  0.61390  1.0000
  H   H755      1.0  0.69838  0.23910  0.35256  1.0000
  H   H756      1.0  0.52819  0.13115  0.92509  1.0000
  H   H757      1.0  0.53388  0.10479  0.86985  1.0000
  H   H758      1.0  0.65229  0.13884  0.68369  1.0000
  S   S191      1.0  0.57410  0.05215  0.10360  1.0000
  H   H759      1.0  0.58414  0.01112  0.58298  1.0000
  N   N39       1.0  0.52253  0.13207  0.16258  1.0000
  S   S192      1.0  0.56005  0.03693  0.65157  1.0000
  H   H760      1.0  0.64069  0.17339  0.79834  1.0000
  H   H761      1.0  0.59386  0.18031  0.38536  1.0000
  C   C629      1.0  0.59936  0.05561  0.99982  1.0000
  H   H762      1.0  0.60140  0.13769  0.70231  1.0000
  H   H763      1.0  0.60819  0.03323  0.04499  1.0000
  H   H764      1.0  0.66098  0.24597  0.22908  1.0000
  H   H765      1.0  0.56975  0.11788  0.44459  1.0000
  C   C630      1.0  0.55399  0.03172  0.05319  1.0000
  H   H766      1.0  0.58640  0.01927  0.65449  1.0000
  H   H767      1.0  0.60718  0.11124  0.71340  1.0000
  C   C631      1.0  0.53355  0.15037  0.39779  1.0000
  H   H768      1.0  0.65671  0.14214  0.36023  1.0000
  H   H769      1.0  0.64250  0.14791  0.39583  1.0000
  C   C632      1.0  0.64322  0.14039  0.36965  1.0000
  C   C633      1.0  0.53480  0.12546  0.43704  1.0000
  C   C634      1.0  0.52879  0.14702  0.47322  1.0000
  C   C635      1.0  0.52217  0.11761  0.93812  1.0000
  H   H770      1.0  0.53060  0.14097  0.50366  1.0000
  C   C636      1.0  0.51742  0.12378  0.12487  1.0000
  H   H771      1.0  0.54825  0.12657  0.10869  1.0000
  C   C637      1.0  0.60752  0.11197  0.44004  1.0000
  H   H772      1.0  0.65459  0.11671  0.39833  1.0000
  N   N40       1.0  0.53892  0.14393  0.43650  1.0000
  H   H773      1.0  0.50332  0.20569  0.41932  1.0000
  H   H774      1.0  0.53735  0.11942  0.46659  1.0000
  H   H775      1.0  0.54020  0.14798  0.36867  1.0000
  H   H776      1.0  0.59400  0.05560  0.91459  1.0000
  C   C638      1.0  0.62376  0.12675  0.77771  1.0000
  C   C639      1.0  0.70781  0.24766  0.28698  1.0000
  C   C640      1.0  0.53029  0.11219  0.80766  1.0000
  H   H777      1.0  0.56688  0.04090  0.55996  1.0000
  H   H778      1.0  0.62675  0.11934  0.31890  1.0000
  H   H779      1.0  0.54234  0.12257  0.41030  1.0000
  C   C641      1.0  0.51852  0.14789  0.15989  1.0000
  H   H780      1.0  0.51338  0.12675  0.22949  1.0000
  C   C642      1.0  0.63201  0.11359  0.34417  1.0000
  N   N41       1.0  0.63276  0.12241  0.38213  1.0000
  H   H781      1.0  0.56433  0.16865  0.37882  1.0000
  C   C643      1.0  0.51176  0.24287  0.29451  1.0000
  H   H782      1.0  0.59941  0.01556  0.01774  1.0000
  C   C644      1.0  0.61617  0.04226  0.96129  1.0000
  C   C645      1.0  0.52060  0.04468  0.59642  1.0000
  H   H783      1.0  0.63792  0.16695  0.72630  1.0000
  N   N42       1.0  0.59965  0.03936  0.98646  1.0000
  C   C646      1.0  0.55205  0.13248  0.13622  1.0000
  H   H784      1.0  0.61365  0.10574  0.46041  1.0000
  H   H785      1.0  0.64250  0.12132  0.44130  1.0000
  H   H786      1.0  0.55635  0.04289  0.03130  1.0000
  C   C647      1.0  0.55707  0.15187  0.43913  1.0000
  C   C648      1.0  0.56835  0.16409  0.40690  1.0000
  H   H787      1.0  0.51898  0.02083  0.57880  1.0000
  C   C649      1.0  0.58503  0.04303  0.92391  1.0000
  H   H788      1.0  0.56387  0.22300  0.23330  1.0000
  H   H789      1.0  0.62395  0.10009  0.35179  1.0000
  H   H790      1.0  0.61118  0.13561  0.34535  1.0000
  C   C650      1.0  0.60604  0.12873  0.37642  1.0000
  C   C651      1.0  0.59120  0.11094  0.45566  1.0000
  H   H791      1.0  0.63498  0.10126  0.42094  1.0000
  C   C652      1.0  0.56403  0.14718  0.47461  1.0000
  H   H792      1.0  0.55627  0.13799  0.50042  1.0000
  C   C653      1.0  0.56074  0.03281  0.09118  1.0000
  C   C654      1.0  0.63438  0.15653  0.75129  1.0000
  H   H793      1.0  0.58537  0.10412  0.48656  1.0000
  H   H794      1.0  0.60524  0.17130  0.44728  1.0000
  H   H795      1.0  0.58664  0.05440  0.01510  1.0000
  C   C655      1.0  0.56113  0.01081  0.94438  1.0000
  N   N43       1.0  0.62617  0.13590  0.69889  1.0000
  C   C656      1.0  0.50607  0.12046  0.80001  1.0000
  H   H796      1.0  0.53186  0.11142  0.93499  1.0000
  H   H797      1.0  0.64165  0.13998  0.63860  1.0000
  C   C657      1.0  0.58236  0.11876  0.43200  1.0000
  C   C658      1.0  0.58977  0.12769  0.39248  1.0000
  H   H798      1.0  0.62178  0.12073  0.84509  1.0000
  C   C659      1.0  0.56431  0.14782  0.20536  1.0000
  H   H799      1.0  0.58294  0.13390  0.37413  1.0000
  C   C660      1.0  0.58548  0.17096  0.41016  1.0000
  C   C661      1.0  0.58121  0.15405  0.47734  1.0000
  C   C662      1.0  0.54728  0.14374  0.20115  1.0000
  H   H800      1.0  0.52041  0.15411  0.18893  1.0000
  C   C663      1.0  0.51168  0.02876  0.58621  1.0000
  H   H801      1.0  0.58624  0.15005  0.50450  1.0000
  C   C664      1.0  0.64256  0.14340  0.67127  1.0000
  C   C665      1.0  0.59192  0.16593  0.44515  1.0000
  C   C666      1.0  0.50425  0.09623  0.58322  1.0000
  C   C667      1.0  0.63600  0.16036  0.79243  1.0000
  H   H802      1.0  0.53949  0.07910  0.74995  1.0000
  C   C668      1.0  0.54060  0.13598  0.16641  1.0000
  H   H803      1.0  0.56912  0.15391  0.23196  1.0000
  H   H804      1.0  0.52149  0.24263  0.20341  1.0000
  C   C669      1.0  0.52603  0.05087  0.12292  1.0000
  H   H805      1.0  0.51968  0.11153  0.12535  1.0000
  C   C670      1.0  0.55279  0.01681  0.54200  1.0000
  H   H806      1.0  0.52520  0.02663  0.11019  1.0000
  H   H807      1.0  0.52050  0.22287  0.23069  1.0000
  C   C671      1.0  0.57227  0.03732  0.89899  1.0000
  H   H808      1.0  0.61229  0.14081  0.64966  1.0000
  C   C672      1.0  0.55730  0.01807  0.11935  1.0000
  H   H809      1.0  0.56245  0.01880  0.14884  1.0000
  H   H810      1.0  0.54353  0.07209  0.82335  1.0000
  H   H811      1.0  0.60291  0.06594  0.97312  1.0000
  H   H812      1.0  0.60822  0.06012  0.02294  1.0000
  H   H813      1.0  0.61870  0.11529  0.66192  1.0000
  C   C673      1.0  0.61398  0.14323  0.68268  1.0000
  C   C674      1.0  0.61991  0.11759  0.69516  1.0000
  C   C675      1.0  0.54092  0.00719  0.62765  1.0000
  C   C676      1.0  0.62539  0.13073  0.81871  1.0000
  H   H814      1.0  0.61805  0.15711  0.68236  1.0000
  C   C677      1.0  0.50394  0.05918  0.02699  1.0000
  H   H815      1.0  0.52124  0.11904  0.43477  1.0000
  H   H816      1.0  0.51128  0.23324  0.43601  1.0000
  H   H817      1.0  0.52654  0.15712  0.13294  1.0000
  H   H818      1.0  0.54031  0.20875  0.20515  1.0000
  H   H819      1.0  0.61871  0.05191  0.93331  1.0000
  H   H820      1.0  0.52384  0.07457  0.13605  1.0000
  C   C678      1.0  0.52871  0.07458  0.77447  1.0000
  C   C679      1.0  0.50481  0.09739  0.62620  1.0000
  H   H821      1.0  0.55033  0.01689  0.89014  1.0000
  C   C680      1.0  0.54467  0.21829  0.17660  1.0000
  N   N44       1.0  0.54261  0.23449  0.18544  1.0000
  H   H822      1.0  0.51705  0.23352  0.30547  1.0000
  H   H823      1.0  0.51984  0.14415  0.39688  1.0000
  C   C681      1.0  0.51160  0.11238  0.87100  1.0000
  H   H824      1.0  0.65089  0.24030  0.30004  1.0000
  C   C682      1.0  0.58057  0.00613  0.65045  1.0000
  H   H825      1.0  0.51635  0.22429  0.17720  1.0000
  H   H826      1.0  0.57343  0.00777  0.99679  1.0000
  C   C683      1.0  0.52452  0.23097  0.19968  1.0000
  H   H827      1.0  0.50476  0.04784  0.01528  1.0000
  H   H828      1.0  0.74745  0.21486  0.41805  1.0000
  C   C684      1.0  0.55263  0.24247  0.21788  1.0000
  C   C685      1.0  0.51268  0.07298  0.76450  1.0000
  N   N45       1.0  0.50723  0.10936  0.91748  1.0000
  C   C686      1.0  0.70762  0.24881  0.33016  1.0000
  C   C687      1.0  0.56031  0.02125  0.90927  1.0000
  S   S193      1.0  0.50743  0.15414  0.30633  1.0000
  H   H829      1.0  0.50886  0.00692  0.06947  1.0000
  H   H830      1.0  0.51906  0.06190  0.87965  1.0000
  H   H831      1.0  0.67213  0.24605  0.31087  1.0000
  S   S194      1.0  0.50467  0.18159  0.23090  1.0000
  H   H832      1.0  0.54078  0.24019  0.11970  1.0000
  C   C688      1.0  0.66178  0.25108  0.30617  1.0000
  C   C689      1.0  0.74930  0.24022  0.39619  1.0000
  C   C690      1.0  0.50385  0.23928  0.41979  1.0000
  C   C691      1.0  0.50154  0.11765  0.84378  1.0000
  C   C692      1.0  0.50186  0.08881  0.05557  1.0000
  S   S195      1.0  0.52029  0.47186  0.12015  1.0000
  H   H833      1.0  0.51908  0.41634  0.31747  1.0000
  N   N46       1.0  0.68063  0.49793  0.47521  1.0000
  H   H834      1.0  0.55863  0.49782  0.54731  1.0000
  H   H835      1.0  0.70905  0.29418  0.34898  1.0000
  Fe  Fe100     1.0  0.54017  0.35746  0.26683  1.0000
  S   S196      1.0  0.53553  0.33759  0.32171  1.0000
  S   S197      1.0  0.56374  0.38008  0.24424  1.0000
  H   H836      1.0  0.66041  0.47609  0.46478  1.0000
  C   C693      1.0  0.57313  0.47431  0.80123  1.0000
  C   C694      1.0  0.52316  0.40516  0.32220  1.0000
  H   H837      1.0  0.64122  0.26077  0.26297  1.0000
  H   H838      1.0  0.62456  0.48953  0.15106  1.0000
  Fe  Fe101     1.0  0.51975  0.31924  0.28250  1.0000
  H   H839      1.0  0.74031  0.41573  0.30015  1.0000
  S   S198      1.0  0.51784  0.36436  0.28896  1.0000
  S   S199      1.0  0.52637  0.33909  0.22504  1.0000
  C   C695      1.0  0.61647  0.48418  0.51177  1.0000
  H   H840      1.0  0.59932  0.42606  0.44564  1.0000
  H   H841      1.0  0.65540  0.28117  0.23991  1.0000
  Fe  Fe102     1.0  0.66124  0.47069  0.35426  1.0000
  S   S200      1.0  0.64656  0.45091  0.40817  1.0000
  S   S201      1.0  0.68986  0.47948  0.33301  1.0000
  Fe  Fe103     1.0  0.62953  0.47808  0.33344  1.0000
  S   S202      1.0  0.61289  0.45895  0.38619  1.0000
  H   H842      1.0  0.52365  0.38696  0.50742  1.0000
  Fe  Fe104     1.0  0.63336  0.46907  0.42497  1.0000
  S   S203      1.0  0.52491  0.29403  0.28822  1.0000
  Fe  Fe105     1.0  0.62694  0.44223  0.36530  1.0000
  S   S204      1.0  0.61183  0.41434  0.37397  1.0000
  C   C696      1.0  0.57190  0.48448  0.83221  1.0000
  S   S205      1.0  0.64238  0.46060  0.30922  1.0000
  H   H843      1.0  0.56158  0.37340  0.43633  1.0000
  C   C697      1.0  0.55340  0.45780  0.58696  1.0000
  C   C698      1.0  0.73771  0.48032  0.39204  1.0000
  C   C699      1.0  0.72162  0.47170  0.41476  1.0000
  C   C700      1.0  0.70687  0.47075  0.39680  1.0000
  C   C701      1.0  0.70797  0.47892  0.35628  1.0000
  C   C702      1.0  0.72405  0.48731  0.33336  1.0000
  H   H844      1.0  0.68434  0.27062  0.34217  1.0000
  H   H845      1.0  0.72057  0.46584  0.44667  1.0000
  H   H846      1.0  0.69467  0.46386  0.41448  1.0000
  C   C703      1.0  0.53030  0.43947  0.65702  1.0000
  H   H847      1.0  0.72513  0.49369  0.30199  1.0000
  C   C704      1.0  0.57717  0.38935  0.28043  1.0000
  C   C705      1.0  0.58950  0.40530  0.26818  1.0000
  C   C706      1.0  0.59999  0.41331  0.29680  1.0000
  C   C707      1.0  0.59854  0.40515  0.33745  1.0000
  C   C708      1.0  0.58644  0.38906  0.34937  1.0000
  C   C709      1.0  0.57563  0.38127  0.32121  1.0000
  H   H848      1.0  0.59089  0.41151  0.23650  1.0000
  H   H849      1.0  0.60943  0.42562  0.28717  1.0000
  H   H850      1.0  0.58556  0.38251  0.38038  1.0000
  H   H851      1.0  0.56633  0.36888  0.33077  1.0000
  H   H852      1.0  0.53034  0.38089  0.37171  1.0000
  C   C710      1.0  0.59631  0.42585  0.48016  1.0000
  C   C711      1.0  0.67401  0.49478  0.52087  1.0000
  C   C712      1.0  0.55813  0.47911  0.86381  1.0000
  H   H853      1.0  0.71921  0.26320  0.37795  1.0000
  C   C713      1.0  0.68204  0.27943  0.27735  1.0000
  H   H854      1.0  0.71015  0.31648  0.22361  1.0000
  H   H855      1.0  0.51497  0.49238  0.74269  1.0000
  Fe  Fe106     1.0  0.50351  0.34483  0.25130  1.0000
  C   C714      1.0  0.57686  0.42756  0.53733  1.0000
  H   H856      1.0  0.50973  0.44785  0.72787  1.0000
  H   H857      1.0  0.72139  0.44993  0.31188  1.0000
  C   C715      1.0  0.51104  0.48788  0.80926  1.0000
  H   H858      1.0  0.52124  0.41857  0.39340  1.0000
  H   H859      1.0  0.56626  0.47333  0.63104  1.0000
  H   H860      1.0  0.71937  0.42404  0.34593  1.0000
  H   H861      1.0  0.52271  0.26371  0.41962  1.0000
  C   C716      1.0  0.71104  0.30679  0.28691  1.0000
  C   C717      1.0  0.54135  0.37850  0.47140  1.0000
  H   H862      1.0  0.54790  0.42335  0.80256  1.0000
  N   N47       1.0  0.53542  0.40748  0.35281  1.0000
  H   H863      1.0  0.57727  0.41647  0.55798  1.0000
  H   H864      1.0  0.65997  0.49044  0.52620  1.0000
  C   C718      1.0  0.51560  0.46496  0.07175  1.0000
  C   C719      1.0  0.52174  0.47631  0.03476  1.0000
  C   C720      1.0  0.51811  0.47110  0.99581  1.0000
  H   H865      1.0  0.72961  0.42140  0.39059  1.0000
  H   H866      1.0  0.51214  0.48189  0.55325  1.0000
  C   C721      1.0  0.72003  0.26045  0.25850  1.0000
  C   C722      1.0  0.51997  0.26003  0.29812  1.0000
  C   C723      1.0  0.73881  0.48783  0.35081  1.0000
  C   C724      1.0  0.55809  0.38223  0.45456  1.0000
  C   C725      1.0  0.55224  0.25820  0.22918  1.0000
  H   H867      1.0  0.50652  0.42614  0.83301  1.0000
  S   S206      1.0  0.56242  0.49565  0.05460  1.0000
  H   H868      1.0  0.59092  0.46164  0.29715  1.0000
  C   C726      1.0  0.55514  0.43690  0.36016  1.0000
  N   N48       1.0  0.56088  0.44979  0.14617  1.0000
  C   C727      1.0  0.55791  0.46296  0.17021  1.0000
  C   C728      1.0  0.57821  0.44998  0.15033  1.0000
  C   C729      1.0  0.56034  0.45448  0.10089  1.0000
  C   C730      1.0  0.54766  0.43327  0.16152  1.0000
  C   C731      1.0  0.55124  0.41897  0.17905  1.0000
  C   C732      1.0  0.53053  0.43100  0.15830  1.0000
  C   C733      1.0  0.53843  0.40342  0.19158  1.0000
  C   C734      1.0  0.51785  0.41540  0.17096  1.0000
  C   C735      1.0  0.52180  0.40161  0.18745  1.0000
  H   H869      1.0  0.55793  0.45980  0.20453  1.0000
  H   H870      1.0  0.56777  0.47552  0.15967  1.0000
  H   H871      1.0  0.54569  0.46463  0.16610  1.0000
  H   H872      1.0  0.57978  0.44726  0.18379  1.0000
  H   H873      1.0  0.58780  0.46259  0.13834  1.0000
  H   H874      1.0  0.58153  0.44072  0.13184  1.0000
  H   H875      1.0  0.54859  0.45697  0.09543  1.0000
  H   H876      1.0  0.57092  0.46620  0.08736  1.0000
  H   H877      1.0  0.56117  0.44428  0.08209  1.0000
  H   H878      1.0  0.56383  0.41930  0.18282  1.0000
  H   H879      1.0  0.52683  0.44126  0.14532  1.0000
  H   H880      1.0  0.54141  0.39253  0.20384  1.0000
  C   C736      1.0  0.59750  0.49981  0.24175  1.0000
  C   C737      1.0  0.60264  0.49349  0.57026  1.0000
  H   H881      1.0  0.51285  0.44412  0.86010  1.0000
  C   C738      1.0  0.70416  0.30643  0.24935  1.0000
  H   H882      1.0  0.56334  0.43992  0.47599  1.0000
  C   C739      1.0  0.52655  0.40817  0.39449  1.0000
  H   H883      1.0  0.70473  0.50145  0.53127  1.0000
  H   H884      1.0  0.56246  0.45142  0.77677  1.0000
  H   H885      1.0  0.51741  0.44670  0.80373  1.0000
  H   H886      1.0  0.56236  0.46493  0.55999  1.0000
  C   C740      1.0  0.50360  0.47405  0.68690  1.0000
  H   H887      1.0  0.53630  0.43279  0.77009  1.0000
  C   C741      1.0  0.56074  0.45857  0.80195  1.0000
  C   C742      1.0  0.68920  0.28038  0.31558  1.0000
  C   C743      1.0  0.57031  0.39727  0.46074  1.0000
  C   C744      1.0  0.73187  0.27421  0.27281  1.0000
  H   H888      1.0  0.53499  0.40960  0.41920  1.0000
  C   C745      1.0  0.55024  0.42273  0.33755  1.0000
  H   H889      1.0  0.67757  0.48330  0.42294  1.0000
  H   H890      1.0  0.58541  0.45154  0.47078  1.0000
  H   H891      1.0  0.59887  0.41502  0.49670  1.0000
  C   C746      1.0  0.65276  0.27123  0.26722  1.0000
  S   S207      1.0  0.74609  0.29248  0.33645  1.0000
  H   H892      1.0  0.54810  0.43752  0.38948  1.0000
  S   S208      1.0  0.50751  0.34768  0.40901  1.0000
  H   H893      1.0  0.58705  0.43893  0.54384  1.0000
  C   C747      1.0  0.70344  0.29393  0.32007  1.0000
  C   C748      1.0  0.56044  0.42361  0.29907  1.0000
  H   H894      1.0  0.68492  0.29334  0.21496  1.0000
  N   N49       1.0  0.57868  0.42502  0.49218  1.0000
  C   C749      1.0  0.51346  0.27255  0.28399  1.0000
  C   C750      1.0  0.56609  0.40894  0.48506  1.0000
  H   H895      1.0  0.56496  0.42976  0.54774  1.0000
  C   C751      1.0  0.50581  0.44827  0.06967  1.0000
  H   H896      1.0  0.54530  0.38947  0.32591  1.0000
  H   H897      1.0  0.52750  0.43093  0.90391  1.0000
  C   C752      1.0  0.54080  0.39247  0.35688  1.0000
  C   C753      1.0  0.54381  0.45364  0.66200  1.0000
  H   H898      1.0  0.58299  0.39944  0.44607  1.0000
  C   C754      1.0  0.57603  0.43917  0.46677  1.0000
  H   H899      1.0  0.63019  0.48535  0.22500  1.0000
  C   C755      1.0  0.55560  0.46256  0.62715  1.0000
  H   H900      1.0  0.56093  0.27802  0.26776  1.0000
  C   C756      1.0  0.54884  0.40485  0.50105  1.0000
  C   C757      1.0  0.53672  0.38981  0.49452  1.0000
  C   C758      1.0  0.57490  0.43753  0.28479  1.0000
  Fe  Fe107     1.0  0.50603  0.43349  0.53841  1.0000
  H   H901      1.0  0.54451  0.41327  0.51864  1.0000
  N   N50       1.0  0.66712  0.26517  0.27104  1.0000
  H   H902      1.0  0.61199  0.47270  0.57638  1.0000
  C   C759      1.0  0.53601  0.42611  0.80166  1.0000
  H   H903      1.0  0.52661  0.47067  0.54788  1.0000
  S   S209      1.0  0.62712  0.47070  0.49433  1.0000
  H   H904      1.0  0.60556  0.43757  0.48797  1.0000
  H   H905      1.0  0.58373  0.47872  0.77626  1.0000
  H   H906      1.0  0.51198  0.38943  0.19660  1.0000
  C   C760      1.0  0.73326  0.45438  0.29141  1.0000
  H   H907      1.0  0.74888  0.41223  0.34775  1.0000
  C   C761      1.0  0.52563  0.48321  0.55219  1.0000
  H   H908      1.0  0.72241  0.31693  0.29027  1.0000
  C   C762      1.0  0.74704  0.44904  0.29929  1.0000
  C   C763      1.0  0.54559  0.46346  0.86464  1.0000
  H   H909      1.0  0.51721  0.47652  0.68878  1.0000
  H   H910      1.0  0.55440  0.48346  0.50938  1.0000
  S   S210      1.0  0.64928  0.48961  0.37420  1.0000
  C   C764      1.0  0.54652  0.45266  0.83375  1.0000
  H   H911      1.0  0.57726  0.43775  0.43264  1.0000
  C   C765      1.0  0.73173  0.27532  0.31598  1.0000
  H   H912      1.0  0.53516  0.45982  0.88985  1.0000
  C   C766      1.0  0.53053  0.49203  0.47743  1.0000
  H   H913      1.0  0.52564  0.41373  0.80422  1.0000
  C   C767      1.0  0.61683  0.49221  0.17641  1.0000
  H   H914      1.0  0.52286  0.48004  0.96742  1.0000
  H   H915      1.0  0.72688  0.44117  0.37708  1.0000
  Fe  Fe108     1.0  0.51213  0.34334  0.34115  1.0000
  H   H916      1.0  0.64975  0.27668  0.29601  1.0000
  H   H917      1.0  0.54445  0.26447  0.21516  1.0000
  C   C768      1.0  0.53906  0.44456  0.58162  1.0000
  H   H918      1.0  0.53196  0.36682  0.46626  1.0000
  C   C769      1.0  0.50217  0.47712  0.84545  1.0000
  H   H919      1.0  0.55719  0.48714  0.88779  1.0000
  H   H920      1.0  0.51170  0.39392  0.33309  1.0000
  S   S211      1.0  0.54482  0.46139  0.71054  1.0000
  C   C770      1.0  0.62002  0.48979  0.21828  1.0000
  C   C771      1.0  0.68979  0.29305  0.24465  1.0000
  H   H921      1.0  0.55753  0.41330  0.28024  1.0000
  H   H922      1.0  0.67963  0.47241  0.47143  1.0000
  H   H923      1.0  0.52841  0.40314  0.29082  1.0000
  H   H924      1.0  0.57336  0.46146  0.36307  1.0000
  N   N51       1.0  0.74625  0.43675  0.33590  1.0000
  C   C772      1.0  0.57952  0.45104  0.30798  1.0000
  C   C773      1.0  0.50773  0.48339  0.76936  1.0000
  C   C774      1.0  0.55379  0.49589  0.51657  1.0000
  H   H925      1.0  0.59017  0.50310  0.26686  1.0000
  H   H926      1.0  0.52365  0.41257  0.87764  1.0000
  C   C775      1.0  0.51680  0.43836  0.83306  1.0000
  H   H927      1.0  0.58288  0.43764  0.25624  1.0000
  C   C776      1.0  0.67430  0.48176  0.45778  1.0000
  H   H928      1.0  0.55125  0.39440  0.37623  1.0000
  C   C777      1.0  0.61059  0.49399  0.25097  1.0000
  C   C778      1.0  0.72976  0.43060  0.36341  1.0000
  H   H929      1.0  0.61899  0.49827  0.45089  1.0000
  C   C779      1.0  0.56162  0.26606  0.25949  1.0000
  C   C780      1.0  0.56961  0.45081  0.34536  1.0000
  C   C781      1.0  0.61440  0.49684  0.48411  1.0000
  S   S212      1.0  0.53411  0.44109  0.53117  1.0000
  H   H930      1.0  0.52143  0.43221  0.68396  1.0000
  H   H931      1.0  0.57870  0.26455  0.30343  1.0000
  C   C782      1.0  0.52767  0.43520  0.61664  1.0000
  H   H932      1.0  0.72394  0.47021  0.25176  1.0000
  N   N52       1.0  0.53640  0.49640  0.51823  1.0000
  S   S213      1.0  0.55229  0.50220  0.63819  1.0000
  H   H933      1.0  0.53199  0.47994  0.46984  1.0000
  H   H934      1.0  0.54483  0.42521  0.88169  1.0000
  N   N53       1.0  0.53322  0.43601  0.83587  1.0000
  Fe  Fe109     1.0  0.54176  0.49605  0.10280  1.0000
  C   C783      1.0  0.61045  0.48247  0.55478  1.0000
  H   H935      1.0  0.51694  0.49018  0.47755  1.0000
  C   C784      1.0  0.53226  0.42578  0.87655  1.0000
  H   H936      1.0  0.67749  0.48460  0.53768  1.0000
  H   H937      1.0  0.52908  0.48927  0.03585  1.0000
  H   H938      1.0  0.53139  0.26364  0.31244  1.0000
  H   H939      1.0  0.51665  0.42483  0.61260  1.0000
  H   H940      1.0  0.67160  0.26677  0.20282  1.0000
  S   S214      1.0  0.61544  0.49360  0.30312  1.0000
  C   C785      1.0  0.60401  0.49851  0.16711  1.0000
  Fe  Fe110     1.0  0.55741  0.48924  0.69612  1.0000
  C   C786      1.0  0.57156  0.25848  0.27969  1.0000
  H   H941      1.0  0.51572  0.39638  0.40535  1.0000
  C   C787      1.0  0.50805  0.45455  0.99370  1.0000
  C   C788      1.0  0.71954  0.26249  0.34448  1.0000
  H   H942      1.0  0.59824  0.49216  0.60352  1.0000
  H   H943      1.0  0.58166  0.49657  0.83161  1.0000
  H   H944      1.0  0.50497  0.48047  0.87634  1.0000
  C   C789      1.0  0.73458  0.46619  0.25678  1.0000
  H   H945      1.0  0.74108  0.28394  0.25040  1.0000
  C   C790      1.0  0.74956  0.47311  0.22932  1.0000
  C   C791      1.0  0.74955  0.42187  0.32103  1.0000
  S   S215      1.0  0.50224  0.44895  0.94506  1.0000
  H   H946      1.0  0.54482  0.25790  0.14810  1.0000
  H   H947      1.0  0.72035  0.25973  0.22504  1.0000
  H   H948      1.0  0.50490  0.41389  0.16734  1.0000
  C   C792      1.0  0.51059  0.25687  0.41071  1.0000
  H   H949      1.0  0.52927  0.48611  0.58358  1.0000
  C   C793      1.0  0.67078  0.25822  0.23179  1.0000
  H   H950      1.0  0.50743  0.27936  0.38153  1.0000
  H   H951      1.0  0.68297  0.25590  0.23077  1.0000
  H   H952      1.0  0.50154  0.36142  0.48474  1.0000
  C   C794      1.0  0.50213  0.44304  0.03051  1.0000
  H   H953      1.0  0.52067  0.49972  0.81209  1.0000
  H   H954      1.0  0.75104  0.49455  0.33285  1.0000
  C   C795      1.0  0.59408  0.50184  0.20018  1.0000
  H   H955      1.0  0.65762  0.25497  0.33632  1.0000
  H   H956      1.0  0.53773  0.50209  0.45122  1.0000
  H   H957      1.0  0.75057  0.48244  0.20291  1.0000
  C   C796      1.0  0.50197  0.26576  0.38949  1.0000
  S   S216      1.0  0.58523  0.50253  0.68568  1.0000
  S   S217      1.0  0.60117  0.50267  0.11391  1.0000
  Fe  Fe111     1.0  0.57948  0.51084  0.09639  1.0000
  H   H958      1.0  0.54029  0.65350  0.30260  1.0000
  H   H959      1.0  0.53065  0.56528  0.83171  1.0000
  Fe  Fe112     1.0  0.56100  0.52005  0.02486  1.0000
  S   S218      1.0  0.53916  0.51945  0.07156  1.0000
  S   S219      1.0  0.55343  0.52350  0.95996  1.0000
  Fe  Fe113     1.0  0.55849  0.53314  0.10986  1.0000
  S   S220      1.0  0.55641  0.55433  0.14539  1.0000
  H   H960      1.0  0.53329  0.66103  0.19455  1.0000
  S   S221      1.0  0.58049  0.53568  0.06134  1.0000
  S   S222      1.0  0.59224  0.52121  0.56172  1.0000
  C   C797      1.0  0.53503  0.51288  0.52636  1.0000
  H   H961      1.0  0.56137  0.56245  0.92695  1.0000
  H   H962      1.0  0.62199  0.54759  0.31089  1.0000
  H   H963      1.0  0.70024  0.50830  0.39772  1.0000
  H   H964      1.0  0.60442  0.53456  0.85781  1.0000
  H   H965      1.0  0.56269  0.50564  0.49187  1.0000
  C   C798      1.0  0.50439  0.61582  0.40032  1.0000
  C   C799      1.0  0.59739  0.56811  0.19589  1.0000
  Fe  Fe114     1.0  0.54922  0.52143  0.67839  1.0000
  S   S223      1.0  0.57652  0.53747  0.66566  1.0000
  S   S224      1.0  0.52618  0.52914  0.67906  1.0000
  H   H966      1.0  0.52998  0.55578  0.55023  1.0000
  C   C800      1.0  0.50519  0.66426  0.36773  1.0000
  Fe  Fe115     1.0  0.57900  0.52158  0.72315  1.0000
  H   H967      1.0  0.53121  0.64607  0.23913  1.0000
  H   H968      1.0  0.74821  0.51753  0.43876  1.0000
  H   H969      1.0  0.52136  0.56727  0.04417  1.0000
  S   S225      1.0  0.55154  0.50684  0.73765  1.0000
  H   H970      1.0  0.73498  0.50983  0.51301  1.0000
  H   H971      1.0  0.51534  0.65662  0.42151  1.0000
  H   H972      1.0  0.73068  0.51726  0.38190  1.0000
  C   C801      1.0  0.54483  0.56418  0.88157  1.0000
  C   C802      1.0  0.51051  0.61351  0.35981  1.0000
  Fe  Fe116     1.0  0.57987  0.51681  0.62957  1.0000
  C   C803      1.0  0.57344  0.56539  0.86334  1.0000
  C   C804      1.0  0.67352  0.51007  0.45507  1.0000
  S   S226      1.0  0.53363  0.60115  0.58673  1.0000
  C   C805      1.0  0.53140  0.54396  0.54338  1.0000
  S   S227      1.0  0.50396  0.58686  0.08462  1.0000
  C   C806      1.0  0.53825  0.56909  0.75203  1.0000
  H   H973      1.0  0.53792  0.65047  0.37873  1.0000
  C   C807      1.0  0.63417  0.53444  0.22055  1.0000
  C   C808      1.0  0.55523  0.55145  0.74712  1.0000
  C   C809      1.0  0.53323  0.65964  0.22935  1.0000
  C   C810      1.0  0.54887  0.52655  0.53480  1.0000
  C   C811      1.0  0.70735  0.50915  0.42401  1.0000
  H   H974      1.0  0.52439  0.68507  0.20108  1.0000
  H   H975      1.0  0.64127  0.52671  0.20946  1.0000
  H   H976      1.0  0.54491  0.54029  0.76452  1.0000
  C   C812      1.0  0.52837  0.54904  0.65247  1.0000
  C   C813      1.0  0.51413  0.55388  0.65088  1.0000
  C   C814      1.0  0.51559  0.56984  0.63077  1.0000
  C   C815      1.0  0.53134  0.58110  0.61241  1.0000
  C   C816      1.0  0.54560  0.57630  0.61424  1.0000
  C   C817      1.0  0.54413  0.56029  0.63401  1.0000
  C   C818      1.0  0.73472  0.51434  0.44650  1.0000
  H   H977      1.0  0.50453  0.57344  0.62950  1.0000
  H   H978      1.0  0.55781  0.58495  0.59988  1.0000
  H   H979      1.0  0.55516  0.55666  0.63464  1.0000
  C   C819      1.0  0.55624  0.56676  0.80698  1.0000
  H   H980      1.0  0.67855  0.50644  0.53615  1.0000
  H   H981      1.0  0.50538  0.53237  0.53689  1.0000
  H   H982      1.0  0.58071  0.58020  0.73714  1.0000
  H   H983      1.0  0.67864  0.52267  0.46585  1.0000
  C   C820      1.0  0.70971  0.50500  0.49832  1.0000
  C   C821      1.0  0.50640  0.66637  0.32377  1.0000
  C   C822      1.0  0.52332  0.68289  0.23610  1.0000
  H   H984      1.0  0.50409  0.65533  0.20430  1.0000
  H   H985      1.0  0.56650  0.58300  0.70276  1.0000
  C   C823      1.0  0.56482  0.52463  0.91017  1.0000
  C   C824      1.0  0.58230  0.52876  0.90386  1.0000
  C   C825      1.0  0.59087  0.53108  0.86267  1.0000
  C   C826      1.0  0.58199  0.52898  0.82780  1.0000
  C   C827      1.0  0.56449  0.52444  0.83452  1.0000
  C   C828      1.0  0.55599  0.52243  0.87537  1.0000
  H   H986      1.0  0.58924  0.53060  0.93048  1.0000
  S   S228      1.0  0.59304  0.53235  0.77628  1.0000
  H   H987      1.0  0.55749  0.52296  0.80829  1.0000
  H   H988      1.0  0.55767  0.55207  0.54968  1.0000
  H   H989      1.0  0.60612  0.57924  0.20749  1.0000
  H   H990      1.0  0.53664  0.58064  0.76306  1.0000
  H   H991      1.0  0.67621  0.51180  0.42015  1.0000
  H   H992      1.0  0.51313  0.68741  0.24871  1.0000
  N   N54       1.0  0.51992  0.66490  0.25153  1.0000
  C   C829      1.0  0.54218  0.56372  0.12776  1.0000
  C   C830      1.0  0.53608  0.57352  0.15362  1.0000
  C   C831      1.0  0.52446  0.58082  0.14038  1.0000
  C   C832      1.0  0.51901  0.57843  0.10106  1.0000
  C   C833      1.0  0.52534  0.56892  0.07487  1.0000
  C   C834      1.0  0.53687  0.56154  0.08821  1.0000
  H   H993      1.0  0.54024  0.57536  0.18409  1.0000
  H   H994      1.0  0.51973  0.58827  0.16063  1.0000
  H   H995      1.0  0.59070  0.57298  0.17245  1.0000
  H   H996      1.0  0.54187  0.55444  0.06754  1.0000
  S   S229      1.0  0.51018  0.61268  0.27486  1.0000
  N   N55       1.0  0.60650  0.55755  0.17723  1.0000
  H   H997      1.0  0.56734  0.54950  0.75146  1.0000
  C   C835      1.0  0.61829  0.56800  0.14011  1.0000
  C   C836      1.0  0.59389  0.54325  0.16262  1.0000
  C   C837      1.0  0.61575  0.55090  0.20692  1.0000
  C   C838      1.0  0.61476  0.55315  0.25030  1.0000
  H   H998      1.0  0.58473  0.53512  0.18956  1.0000
  C   C839      1.0  0.62318  0.54611  0.27771  1.0000
  C   C840      1.0  0.62569  0.54127  0.19295  1.0000
  H   H999      1.0  0.58738  0.56069  0.22210  1.0000
  C   C841      1.0  0.54699  0.54184  0.54298  1.0000
  C   C842      1.0  0.54285  0.56552  0.83886  1.0000
  H   H1000     1.0  0.58207  0.56662  0.79854  1.0000
  H   H1001     1.0  0.62862  0.57833  0.14999  1.0000
  H   H1002     1.0  0.61177  0.57382  0.11817  1.0000
  H   H1003     1.0  0.62410  0.56050  0.12102  1.0000
  H   H1004     1.0  0.55400  0.55135  0.71312  1.0000
  H   H1005     1.0  0.58660  0.54774  0.14046  1.0000
  H   H1006     1.0  0.59968  0.53515  0.14576  1.0000
  H   H1007     1.0  0.60734  0.56005  0.26405  1.0000
  S   S230      1.0  0.51125  0.63259  0.54798  1.0000
  C   C843      1.0  0.51929  0.51545  0.52725  1.0000
  H   H1008     1.0  0.52726  0.55785  0.76610  1.0000
  Fe  Fe117     1.0  0.51001  0.60763  0.58235  1.0000
  H   H1009     1.0  0.56126  0.52574  0.53575  1.0000
  H   H1010     1.0  0.54599  0.66732  0.23529  1.0000
  H   H1011     1.0  0.63891  0.53086  0.28446  1.0000
  H   H1012     1.0  0.58510  0.56475  0.87303  1.0000
  H   H1013     1.0  0.60556  0.51803  0.47836  1.0000
  H   H1014     1.0  0.58404  0.50640  0.19383  1.0000
  N   N56       1.0  0.55439  0.56730  0.76164  1.0000
  H   H1015     1.0  0.56881  0.59378  0.74876  1.0000
  C   C844      1.0  0.60101  0.50647  0.54290  1.0000
  C   C845      1.0  0.63284  0.53676  0.26288  1.0000
  H   H1016     1.0  0.50810  0.50554  0.52196  1.0000
  H   H1017     1.0  0.53759  0.57018  0.71751  1.0000
  C   C846      1.0  0.56820  0.58169  0.73669  1.0000
  H   H1018     1.0  0.50191  0.54525  0.66515  1.0000
  H   H1019     1.0  0.53526  0.69103  0.24566  1.0000
  H   H1020     1.0  0.52217  0.61092  0.35490  1.0000
  H   H1021     1.0  0.53441  0.56290  0.90555  1.0000
  C   C847      1.0  0.57157  0.56656  0.82063  1.0000
  C   C848      1.0  0.53053  0.65705  0.31915  1.0000
  S   S231      1.0  0.50821  0.62449  0.15600  1.0000
  H   H1022     1.0  0.62655  0.53843  0.16084  1.0000
  C   C849      1.0  0.50367  0.65470  0.23920  1.0000
  C   C850      1.0  0.51756  0.53077  0.53573  1.0000
  C   C851      1.0  0.69922  0.50439  0.46626  1.0000
  C   C852      1.0  0.50176  0.61481  0.32558  1.0000
  H   H1023     1.0  0.51128  0.61501  0.42649  1.0000
  S   S232      1.0  0.55869  0.50938  0.14670  1.0000
  C   C853      1.0  0.56006  0.56407  0.89377  1.0000
  C   C854      1.0  0.60678  0.50801  0.49972  1.0000
  H   H1024     1.0  0.54249  0.51940  0.87999  1.0000
  C   C855      1.0  0.51666  0.65874  0.38735  1.0000
  H   H1025     1.0  0.65953  0.50568  0.46261  1.0000
  C   C856      1.0  0.51903  0.66270  0.29805  1.0000
  C   C857      1.0  0.72483  0.51417  0.41449  1.0000
  C   C858      1.0  0.72719  0.50987  0.48831  1.0000
  C   C859      1.0  0.52934  0.65524  0.36314  1.0000
  H   H1026     1.0  0.53352  0.91441  0.22808  1.0000
  C   C860      1.0  0.57106  0.98475  0.60468  1.0000
  S   S233      1.0  0.52553  0.94492  0.25490  1.0000
  H   H1027     1.0  0.56915  0.95527  0.57238  1.0000
  H   H1028     1.0  0.53269  0.90479  0.29541  1.0000
  S   S234      1.0  0.52317  0.93915  0.13493  1.0000
  Fe  Fe118     1.0  0.51515  0.96086  0.53565  1.0000
  S   S235      1.0  0.53621  0.98594  0.51900  1.0000
  N   N57       1.0  0.51491  0.88924  0.23467  1.0000
  S   S236      1.0  0.51814  0.93563  0.52949  1.0000
  H   H1029     1.0  0.52344  0.86818  0.24597  1.0000
  C   C861      1.0  0.51447  0.89629  0.35002  1.0000
  C   C862      1.0  0.51438  0.93786  0.30628  1.0000
  C   C863      1.0  0.54159  0.00042  0.55584  1.0000
  H   H1030     1.0  0.57804  0.94955  0.61738  1.0000
  H   H1031     1.0  0.52665  0.98328  0.60969  1.0000
  H   H1032     1.0  0.53294  0.94087  0.60673  1.0000
  H   H1033     1.0  0.52583  0.90816  0.18046  1.0000
  C   C864      1.0  0.56400  0.97199  0.63968  1.0000
  C   C865      1.0  0.51985  0.89706  0.30714  1.0000
  C   C866      1.0  0.52279  0.94253  0.34106  1.0000
  H   H1034     1.0  0.52112  0.94023  0.40901  1.0000
  H   H1035     1.0  0.53982  0.94544  0.69395  1.0000
  H   H1036     1.0  0.52296  0.90349  0.36996  1.0000
  C   C867      1.0  0.52823  0.88150  0.23062  1.0000
  Fe  Fe119     1.0  0.51520  0.96040  0.10826  1.0000
  C   C868      1.0  0.54918  0.94233  0.67241  1.0000
  H   H1037     1.0  0.50294  0.89639  0.73158  1.0000
  H   H1038     1.0  0.53113  0.95797  0.63358  1.0000
  H   H1039     1.0  0.55988  0.94197  0.68929  1.0000
  H   H1040     1.0  0.54490  0.99104  0.13125  1.0000
  H   H1041     1.0  0.55165  0.99838  0.95283  1.0000
  H   H1042     1.0  0.56036  0.96843  0.70899  1.0000
  Fe  Fe120     1.0  0.51183  0.94337  0.19773  1.0000
  H   H1043     1.0  0.50416  0.00116  0.54004  1.0000
  H   H1044     1.0  0.51282  0.91361  0.22030  1.0000
  H   H1045     1.0  0.56977  0.98201  0.57274  1.0000
  S   S237      1.0  0.50613  0.96599  0.17122  1.0000
  C   C869      1.0  0.53540  0.99576  0.59868  1.0000
  C   C870      1.0  0.53993  0.95386  0.61286  1.0000
  C   C871      1.0  0.56556  0.97712  0.68047  1.0000
  H   H1046     1.0  0.53582  0.95064  0.33599  1.0000
  C   C872      1.0  0.51446  0.93673  0.38245  1.0000
  H   H1047     1.0  0.53291  0.88155  0.19696  1.0000
  H   H1048     1.0  0.53933  0.88837  0.24548  1.0000
  C   C873      1.0  0.52210  0.90707  0.21508  1.0000
  H   H1049     1.0  0.55986  0.93477  0.60089  1.0000
  C   C874      1.0  0.54735  0.00234  0.10946  1.0000
  C   C875      1.0  0.56603  0.94828  0.60473  1.0000
  C   C876      1.0  0.57371  0.99398  0.68551  1.0000
  S   S238      1.0  0.52920  0.98171  0.05638  1.0000
  H   H1050     1.0  0.54308  0.96205  0.58208  1.0000
  H   H1051     1.0  0.50967  0.97259  0.33805  1.0000
  N   N58       1.0  0.55498  0.95440  0.63295  1.0000
  S   S239      1.0  0.50604  0.91280  0.64736  1.0000
  H   H1052     1.0  0.54255  0.92922  0.66597  1.0000
  C   C877      1.0  0.50878  0.88841  0.27988  1.0000
  C   C878      1.0  0.54104  0.00124  0.07093  1.0000
  H   H1053     1.0  0.57443  0.99778  0.71677  1.0000
  H   H1054     1.0  0.50296  0.81646  0.78269  1.0000
  C   C879      1.0  0.57931  0.00151  0.61014  1.0000
  H   H1055     1.0  0.50977  0.99934  0.12328  1.0000
  H   H1056     1.0  0.50654  0.88152  0.17589  1.0000
  C   C880      1.0  0.50159  0.88040  0.20988  1.0000
  H   H1057     1.0  0.53652  0.00333  0.66094  1.0000
  H   H1058     1.0  0.77326  0.22368  0.45212  1.0000
  C   C881      1.0  0.76918  0.23316  0.43604  1.0000
  C   C882      1.0  0.75463  0.22814  0.41691  1.0000
  C   C883      1.0  0.77850  0.25030  0.43451  1.0000
  H   H1059     1.0  0.78963  0.25330  0.44990  1.0000
  Fe  Fe121     1.0  0.90662  0.40778  0.54146  1.0000
  S   S240      1.0  0.88947  0.38109  0.56342  1.0000
  S   S241      1.0  0.93102  0.41425  0.49734  1.0000
  Fe  Fe122     1.0  0.88207  0.42265  0.58299  1.0000
  S   S242      1.0  0.86312  0.39754  0.60912  1.0000
  S   S243      1.0  0.87585  0.44617  0.58735  1.0000
  Fe  Fe123     1.0  0.88549  0.39095  0.62545  1.0000
  S   S244      1.0  0.88874  0.37901  0.68847  1.0000
  Fe  Fe124     1.0  0.86848  0.38999  0.54517  1.0000
  S   S245      1.0  0.84616  0.38111  0.50898  1.0000
  S   S246      1.0  0.90405  0.41683  0.60424  1.0000
  S   S247      1.0  0.88608  0.41583  0.51854  1.0000
  Fe  Fe125     1.0  0.87868  0.42568  0.99484  1.0000
  S   S248      1.0  0.89314  0.41227  0.02907  1.0000
  S   S249      1.0  0.87096  0.44511  0.02559  1.0000
  Fe  Fe126     1.0  0.87985  0.40815  0.91663  1.0000
  S   S250      1.0  0.89438  0.39283  0.94493  1.0000
  S   S251      1.0  0.87284  0.41211  0.85089  1.0000
  Fe  Fe127     1.0  0.87660  0.38938  0.00519  1.0000
  S   S252      1.0  0.86797  0.36669  0.05574  1.0000
  Fe  Fe128     1.0  0.90960  0.41695  0.96728  1.0000
  S   S253      1.0  0.93804  0.42699  0.95609  1.0000
  S   S254      1.0  0.86077  0.40264  0.97515  1.0000
  S   S255      1.0  0.89642  0.43241  0.93492  1.0000
  H   H1060     1.0  0.92491  0.37519  0.68983  1.0000
  H   H1061     1.0  0.88456  0.45457  0.67372  1.0000
  S   S256      1.0  0.79347  0.46652  0.41313  1.0000
  H   H1062     1.0  0.94256  0.37113  0.66286  1.0000
  H   H1063     1.0  0.96525  0.42639  0.45584  1.0000
  C   C884      1.0  0.85278  0.48150  0.65587  1.0000
  Fe  Fe129     1.0  0.81717  0.48757  0.42062  1.0000
  S   S257      1.0  0.82873  0.48803  0.35440  1.0000
  H   H1064     1.0  0.77501  0.47364  0.21497  1.0000
  S   S258      1.0  0.79312  0.48838  0.32233  1.0000
  Fe  Fe130     1.0  0.80428  0.46915  0.34536  1.0000
  S   S259      1.0  0.80472  0.44938  0.30311  1.0000
  H   H1065     1.0  0.93404  0.47593  0.60771  1.0000
  C   C885      1.0  0.99331  0.41787  0.59091  1.0000
  H   H1066     1.0  0.94160  0.41225  0.69017  1.0000
  Fe  Fe131     1.0  0.80414  0.33506  0.33393  1.0000
  S   S260      1.0  0.80598  0.36024  0.30109  1.0000
  S   S261      1.0  0.82455  0.33155  0.37062  1.0000
  Fe  Fe132     1.0  0.76836  0.31694  0.31245  1.0000
  S   S262      1.0  0.76749  0.34108  0.27867  1.0000
  H   H1067     1.0  0.86235  0.46142  0.65521  1.0000
  Fe  Fe133     1.0  0.79436  0.34558  0.25032  1.0000
  S   S263      1.0  0.80193  0.35772  0.18196  1.0000
  Fe  Fe134     1.0  0.77938  0.35394  0.33138  1.0000
  S   S264      1.0  0.77091  0.37170  0.36882  1.0000
  S   S265      1.0  0.79454  0.32051  0.28062  1.0000
  S   S266      1.0  0.77834  0.32977  0.36762  1.0000
  C   C886      1.0  0.79549  0.42788  0.32235  1.0000
  C   C887      1.0  0.79571  0.41597  0.29491  1.0000
  C   C888      1.0  0.78852  0.39866  0.30920  1.0000
  C   C889      1.0  0.78072  0.39324  0.35078  1.0000
  C   C890      1.0  0.78037  0.40517  0.37816  1.0000
  C   C891      1.0  0.78793  0.42248  0.36412  1.0000
  H   H1068     1.0  0.80130  0.42013  0.26241  1.0000
  H   H1069     1.0  0.78863  0.38950  0.28784  1.0000
  S   S267      1.0  0.98375  0.44667  0.10055  1.0000
  H   H1070     1.0  0.99722  0.42452  0.65275  1.0000
  C   C892      1.0  0.93842  0.38110  0.67592  1.0000
  H   H1071     1.0  0.99201  0.44459  0.47652  1.0000
  H   H1072     1.0  0.80502  0.29901  0.42930  1.0000
  H   H1073     1.0  0.99149  0.45185  0.00920  1.0000
  S   S268      1.0  0.83486  0.48591  0.46900  1.0000
  C   C893      1.0  0.97801  0.44634  0.01762  1.0000
  H   H1074     1.0  0.97860  0.48213  0.54777  1.0000
  C   C894      1.0  0.76329  0.46814  0.23611  1.0000
  C   C895      1.0  0.75923  0.44474  0.36225  1.0000
  H   H1075     1.0  0.96946  0.48008  0.19573  1.0000
  C   C896      1.0  0.97114  0.41048  0.65004  1.0000
  C   C897      1.0  0.98809  0.41810  0.63320  1.0000
  H   H1076     1.0  0.90368  0.48739  0.85930  1.0000
  C   C898      1.0  0.75850  0.25735  0.39457  1.0000
  C   C899      1.0  0.88898  0.45959  0.03943  1.0000
  C   C900      1.0  0.90478  0.45809  0.02873  1.0000
  C   C901      1.0  0.91937  0.47073  0.03557  1.0000
  C   C902      1.0  0.91813  0.48501  0.05226  1.0000
  C   C903      1.0  0.90233  0.48591  0.06584  1.0000
  C   C904      1.0  0.88775  0.47329  0.05898  1.0000
  H   H1077     1.0  0.90590  0.44760  0.01349  1.0000
  H   H1078     1.0  0.93158  0.46983  0.02574  1.0000
  H   H1079     1.0  0.98706  0.41271  0.07422  1.0000
  H   H1080     1.0  0.87558  0.47449  0.06747  1.0000
  C   C905      1.0  0.84951  0.36386  0.09089  1.0000
  C   C906      1.0  0.83692  0.36966  0.07815  1.0000
  C   C907      1.0  0.82221  0.36710  0.10605  1.0000
  C   C908      1.0  0.82007  0.35909  0.14741  1.0000
  C   C909      1.0  0.83266  0.35326  0.16035  1.0000
  C   C910      1.0  0.84725  0.35548  0.13198  1.0000
  H   H1081     1.0  0.83832  0.37579  0.04638  1.0000
  H   H1082     1.0  0.81243  0.37137  0.09545  1.0000
  H   H1083     1.0  0.83113  0.34701  0.19206  1.0000
  H   H1084     1.0  0.85686  0.35080  0.14200  1.0000
  C   C911      1.0  0.95022  0.43399  0.99654  1.0000
  C   C912      1.0  0.96768  0.44180  0.98606  1.0000
  C   C913      1.0  0.94307  0.43122  0.03882  1.0000
  H   H1085     1.0  0.97331  0.44397  0.95344  1.0000
  H   H1086     1.0  0.92963  0.42548  0.04731  1.0000
  C   C914      1.0  0.89340  0.46411  0.58834  1.0000
  C   C915      1.0  0.89144  0.47988  0.58512  1.0000
  C   C916      1.0  0.90484  0.49427  0.58964  1.0000
  C   C917      1.0  0.92017  0.49285  0.59804  1.0000
  C   C918      1.0  0.92230  0.47712  0.60038  1.0000
  C   C919      1.0  0.90894  0.46277  0.59518  1.0000
  H   H1087     1.0  0.87943  0.48089  0.57985  1.0000
  C   C920      1.0  0.90502  0.48806  0.94207  1.0000
  H   H1088     1.0  0.89536  0.48576  0.74916  1.0000
  H   H1089     1.0  0.91055  0.45068  0.59797  1.0000
  C   C921      1.0  0.88462  0.38843  0.73351  1.0000
  C   C922      1.0  0.88932  0.38371  0.77213  1.0000
  C   C923      1.0  0.88599  0.39094  0.80844  1.0000
  C   C924      1.0  0.87771  0.40277  0.80642  1.0000
  C   C925      1.0  0.87301  0.40742  0.76781  1.0000
  C   C926      1.0  0.87661  0.40046  0.73142  1.0000
  H   H1090     1.0  0.89544  0.37435  0.77409  1.0000
  H   H1091     1.0  0.88957  0.38719  0.83806  1.0000
  H   H1092     1.0  0.86628  0.41625  0.76626  1.0000
  H   H1093     1.0  0.87278  0.40406  0.70202  1.0000
  C   C927      1.0  0.84040  0.36671  0.47169  1.0000
  C   C928      1.0  0.84909  0.35572  0.46197  1.0000
  C   C929      1.0  0.84399  0.34476  0.43147  1.0000
  C   C930      1.0  0.83034  0.34486  0.41015  1.0000
  C   C931      1.0  0.82161  0.35572  0.42025  1.0000
  C   C932      1.0  0.82650  0.36640  0.45117  1.0000
  H   H1094     1.0  0.85951  0.35545  0.47835  1.0000
  H   H1095     1.0  0.85072  0.33629  0.42407  1.0000
  H   H1096     1.0  0.81096  0.35580  0.40449  1.0000
  H   H1097     1.0  0.81933  0.37439  0.45938  1.0000
  C   C933      1.0  0.94980  0.42796  0.51170  1.0000
  H   H1098     1.0  0.98131  0.47915  0.08062  1.0000
  H   H1099     1.0  0.94542  0.47839  0.15492  1.0000
  C   C934      1.0  0.97096  0.44285  0.06000  1.0000
  H   H1100     1.0  0.93054  0.39905  0.58559  1.0000
  H   H1101     1.0  0.94791  0.43273  0.10321  1.0000
  H   H1102     1.0  0.86962  0.49006  0.76202  1.0000
  C   C935      1.0  0.77340  0.26296  0.41355  1.0000
  Fe  Fe135     1.0  0.78334  0.48697  0.39074  1.0000
  H   H1103     1.0  0.75383  0.26620  0.37812  1.0000
  C   C936      1.0  0.95442  0.47966  0.12620  1.0000
  C   C937      1.0  0.96151  0.39623  0.09274  1.0000
  C   C938      1.0  0.94980  0.43495  0.54948  1.0000
  H   H1104     1.0  0.96228  0.39671  0.12607  1.0000
  C   C939      1.0  0.79819  0.28513  0.43227  1.0000
  C   C940      1.0  0.86735  0.47368  0.71235  1.0000
  C   C941      1.0  0.96498  0.44488  0.56169  1.0000
  H   H1105     1.0  0.78796  0.43158  0.38567  1.0000
  C   C942      1.0  0.86981  0.45636  0.77428  1.0000
  H   H1106     1.0  0.87632  0.44801  0.78783  1.0000
  N   N59       1.0  0.83719  0.41377  0.15116  1.0000
  C   C943      1.0  0.84393  0.40224  0.17529  1.0000
  C   C944      1.0  0.81866  0.40586  0.15466  1.0000
  C   C945      1.0  0.84421  0.41545  0.10613  1.0000
  C   C946      1.0  0.84131  0.43006  0.16856  1.0000
  C   C947      1.0  0.83590  0.43045  0.21155  1.0000
  C   C948      1.0  0.85032  0.44586  0.14377  1.0000
  C   C949      1.0  0.83907  0.44567  0.22850  1.0000
  C   C950      1.0  0.85342  0.46102  0.16110  1.0000
  C   C951      1.0  0.84773  0.46093  0.20329  1.0000
  H   H1107     1.0  0.85764  0.40827  0.17614  1.0000
  H   H1108     1.0  0.83749  0.39822  0.20821  1.0000
  H   H1109     1.0  0.84218  0.39038  0.16096  1.0000
  H   H1110     1.0  0.81302  0.41438  0.13817  1.0000
  H   H1111     1.0  0.81248  0.40257  0.18792  1.0000
  H   H1112     1.0  0.81499  0.39383  0.14068  1.0000
  H   H1113     1.0  0.85819  0.42094  0.10139  1.0000
  H   H1114     1.0  0.84099  0.40305  0.09392  1.0000
  H   H1115     1.0  0.83920  0.42340  0.08551  1.0000
  H   H1116     1.0  0.82890  0.41897  0.23223  1.0000
  H   H1117     1.0  0.85502  0.44689  0.11082  1.0000
  H   H1118     1.0  0.83455  0.44569  0.26124  1.0000
  H   H1119     1.0  0.86017  0.47297  0.14162  1.0000
  H   H1120     1.0  0.84993  0.47273  0.21639  1.0000
  H   H1121     1.0  0.93813  0.43260  0.56953  1.0000
  N   N60       1.0  0.89408  0.39688  0.40232  1.0000
  C   C952      1.0  0.91073  0.39795  0.38044  1.0000
  C   C953      1.0  0.89520  0.41424  0.41008  1.0000
  C   C954      1.0  0.89098  0.38647  0.44379  1.0000
  C   C955      1.0  0.88055  0.38899  0.37723  1.0000
  C   C956      1.0  0.87902  0.37318  0.36316  1.0000
  C   C957      1.0  0.86820  0.39624  0.36748  1.0000
  C   C958      1.0  0.86624  0.36536  0.33994  1.0000
  C   C959      1.0  0.85544  0.38825  0.34436  1.0000
  C   C960      1.0  0.85450  0.37288  0.33053  1.0000
  H   H1122     1.0  0.91307  0.40469  0.34788  1.0000
  H   H1123     1.0  0.92120  0.40479  0.39756  1.0000
  H   H1124     1.0  0.91193  0.38537  0.37830  1.0000
  H   H1125     1.0  0.89740  0.42270  0.37999  1.0000
  H   H1126     1.0  0.90574  0.41997  0.42819  1.0000
  H   H1127     1.0  0.88359  0.41431  0.42932  1.0000
  H   H1128     1.0  0.89051  0.37335  0.44076  1.0000
  H   H1129     1.0  0.90099  0.39184  0.46358  1.0000
  H   H1130     1.0  0.87875  0.38564  0.46162  1.0000
  H   H1131     1.0  0.88738  0.36647  0.37101  1.0000
  H   H1132     1.0  0.86790  0.40792  0.37791  1.0000
  H   H1133     1.0  0.86494  0.35303  0.33060  1.0000
  H   H1134     1.0  0.84595  0.39376  0.33788  1.0000
  H   H1135     1.0  0.84427  0.36643  0.31382  1.0000
  N   N61       1.0  0.92870  0.37727  0.02206  1.0000
  C   C961      1.0  0.91582  0.38456  0.03674  1.0000
  C   C962      1.0  0.92938  0.37769  0.97560  1.0000
  C   C963      1.0  0.92312  0.35931  0.04067  1.0000
  C   C964      1.0  0.94494  0.38677  0.03559  1.0000
  C   C965      1.0  0.95947  0.39625  0.00661  1.0000
  C   C966      1.0  0.94643  0.38709  0.07913  1.0000
  C   C967      1.0  0.97452  0.40521  0.02063  1.0000
  H   H1136     1.0  0.79602  0.28205  0.34957  1.0000
  C   C968      1.0  0.97553  0.40522  0.06355  1.0000
  H   H1137     1.0  0.91977  0.39810  0.02382  1.0000
  H   H1138     1.0  0.90345  0.37800  0.02652  1.0000
  H   H1139     1.0  0.91348  0.38368  0.07160  1.0000
  H   H1140     1.0  0.93244  0.39079  0.95967  1.0000
  H   H1141     1.0  0.91703  0.37029  0.96654  1.0000
  H   H1142     1.0  0.93881  0.37231  0.96226  1.0000
  H   H1143     1.0  0.92044  0.35769  0.07560  1.0000
  H   H1144     1.0  0.91120  0.35175  0.02978  1.0000
  H   H1145     1.0  0.93284  0.35355  0.03199  1.0000
  H   H1146     1.0  0.95944  0.39739  0.97293  1.0000
  H   H1147     1.0  0.93582  0.38058  0.10299  1.0000
  H   H1148     1.0  0.98533  0.41274  0.99810  1.0000
  H   H1149     1.0  0.89643  0.47477  0.95095  1.0000
  H   H1150     1.0  0.77753  0.28778  0.34855  1.0000
  N   N62       1.0  0.83731  0.43544  0.50075  1.0000
  C   C969      1.0  0.83936  0.42179  0.52978  1.0000
  C   C970      1.0  0.85286  0.45032  0.49763  1.0000
  C   C971      1.0  0.82295  0.43978  0.52029  1.0000
  C   C972      1.0  0.83420  0.43078  0.45821  1.0000
  C   C973      1.0  0.83293  0.44282  0.42618  1.0000
  C   C974      1.0  0.83171  0.41424  0.44767  1.0000
  C   C975      1.0  0.82968  0.43864  0.38608  1.0000
  C   C976      1.0  0.82825  0.41015  0.40757  1.0000
  C   C977      1.0  0.82732  0.42234  0.37682  1.0000
  H   H1151     1.0  0.84230  0.42591  0.56093  1.0000
  H   H1152     1.0  0.82773  0.41048  0.53629  1.0000
  H   H1153     1.0  0.84992  0.41782  0.51682  1.0000
  H   H1154     1.0  0.86399  0.44761  0.48313  1.0000
  H   H1155     1.0  0.85544  0.45416  0.52918  1.0000
  H   H1156     1.0  0.85209  0.46163  0.47887  1.0000
  H   H1157     1.0  0.81094  0.42904  0.52241  1.0000
  H   H1158     1.0  0.82465  0.44315  0.55263  1.0000
  H   H1159     1.0  0.82136  0.45081  0.50201  1.0000
  H   H1160     1.0  0.83413  0.45551  0.43210  1.0000
  H   H1161     1.0  0.83204  0.40413  0.47007  1.0000
  H   H1162     1.0  0.82857  0.44802  0.36235  1.0000
  H   H1163     1.0  0.82590  0.39734  0.40058  1.0000
  H   H1164     1.0  0.82433  0.41902  0.34606  1.0000
  H   H1165     1.0  0.94993  0.48482  0.09871  1.0000
  C   C978      1.0  0.97727  0.48122  0.16499  1.0000
  H   H1166     1.0  0.84136  0.49899  0.17535  1.0000
  H   H1167     1.0  0.96240  0.48111  0.44168  1.0000
  H   H1168     1.0  0.97937  0.49924  0.06490  1.0000
  C   C979      1.0  0.95345  0.43545  0.07048  1.0000
  H   H1169     1.0  0.86218  0.48784  0.51647  1.0000
  H   H1170     1.0  0.77443  0.40097  0.41043  1.0000
  H   H1171     1.0  0.96489  0.44986  0.59151  1.0000
  H   H1172     1.0  0.90348  0.46758  0.88460  1.0000
  H   H1173     1.0  0.97637  0.46826  0.15839  1.0000
  C   C980      1.0  0.85641  0.49717  0.71527  1.0000
  H   H1174     1.0  0.98481  0.49021  0.95671  1.0000
  N   N63       1.0  0.91914  0.48945  0.90912  1.0000
  H   H1175     1.0  0.98330  0.48214  0.44970  1.0000
  H   H1176     1.0  0.79601  0.30218  0.36303  1.0000
  H   H1177     1.0  0.87056  0.46605  0.79584  1.0000
  C   C981      1.0  0.98166  0.40985  0.56539  1.0000
  H   H1178     1.0  0.94447  0.48855  0.49835  1.0000
  C   C982      1.0  0.96508  0.43166  0.48525  1.0000
  H   H1179     1.0  0.93501  0.48540  0.95432  1.0000
  C   C983      1.0  0.95882  0.40266  0.62461  1.0000
  C   C984      1.0  0.98027  0.44197  0.49693  1.0000
  C   C985      1.0  0.76207  0.45624  0.27040  1.0000
  H   H1180     1.0  0.77312  0.45289  0.27443  1.0000
  H   H1181     1.0  0.76123  0.28948  0.41312  1.0000
  C   C986      1.0  0.89474  0.47528  0.73004  1.0000
  C   C987      1.0  0.97068  0.48075  0.46618  1.0000
  H   H1182     1.0  0.77216  0.44832  0.34526  1.0000
  N   N64       1.0  0.97177  0.49031  0.13086  1.0000
  H   H1183     1.0  0.82774  0.50227  0.24449  1.0000
  C   C988      1.0  0.91167  0.48089  0.87380  1.0000
  C   C989      1.0  0.98339  0.49366  0.52421  1.0000
  C   C990      1.0  0.78831  0.28858  0.36616  1.0000
  H   H1184     1.0  0.90274  0.46844  0.74283  1.0000
  H   H1185     1.0  0.88527  0.44248  0.72100  1.0000
  H   H1186     1.0  0.92152  0.48034  0.84898  1.0000
  H   H1187     1.0  0.95377  0.46668  0.12034  1.0000
  C   C991      1.0  0.98029  0.44837  0.53558  1.0000
  H   H1188     1.0  0.84842  0.47967  0.62551  1.0000
  C   C992      1.0  0.77189  0.28976  0.43083  1.0000
  C   C993      1.0  0.96465  0.40240  0.58169  1.0000
  S   S269      1.0  0.99908  0.46068  0.55251  1.0000
  C   C994      1.0  0.86094  0.47112  0.67337  1.0000
  C   C995      1.0  0.86468  0.48695  0.73297  1.0000
  H   H1189     1.0  0.77890  0.30333  0.43214  1.0000
  H   H1190     1.0  0.76648  0.28374  0.46362  1.0000
  H   H1191     1.0  0.92165  0.40365  0.67358  1.0000
  C   C996      1.0  0.93540  0.40834  0.66220  1.0000
  H   H1192     1.0  0.86528  0.44077  0.70486  1.0000
  N   N65       1.0  0.78287  0.28122  0.41099  1.0000
  H   H1193     1.0  0.94558  0.38513  0.70244  1.0000
  H   H1194     1.0  0.85631  0.44852  0.77588  1.0000
  H   H1195     1.0  0.95068  0.47684  0.53820  1.0000
  C   C997      1.0  0.84397  0.49993  0.50508  1.0000
  H   H1196     1.0  0.92221  0.46662  0.93678  1.0000
  H   H1197     1.0  0.93223  0.37838  0.59703  1.0000
  H   H1198     1.0  0.95631  0.39695  0.55957  1.0000
  N   N66       1.0  0.94085  0.39536  0.64281  1.0000
  N   N67       1.0  0.97134  0.49396  0.49401  1.0000
  C   C998      1.0  0.85741  0.49773  0.52432  1.0000
  H   H1199     1.0  0.90130  0.49656  0.08064  1.0000
  H   H1200     1.0  0.99559  0.49351  0.50849  1.0000
  C   C999      1.0  0.92952  0.38889  0.61124  1.0000
  H   H1201     1.0  0.89738  0.49565  0.93122  1.0000
  H   H1202     1.0  0.90066  0.48122  0.69734  1.0000
  C   C1000     1.0  0.92962  0.48018  0.92640  1.0000
  C   C1001     1.0  0.95442  0.48943  0.51889  1.0000
  H   H1203     1.0  0.90935  0.49245  0.97178  1.0000
  H   H1204     1.0  0.94031  0.48078  0.90256  1.0000
  H   H1205     1.0  0.96772  0.41100  0.68302  1.0000
  H   H1206     1.0  0.91610  0.38373  0.62563  1.0000
  N   N68       1.0  0.87724  0.46386  0.73024  1.0000
  H   H1207     1.0  0.93817  0.41984  0.63925  1.0000
  C   C1002     1.0  0.87805  0.44983  0.70637  1.0000
  H   H1208     1.0  0.80734  0.27963  0.41785  1.0000
  H   H1209     1.0  0.99056  0.48758  0.16914  1.0000
  H   H1210     1.0  0.96575  0.46790  0.48426  1.0000
  C   C1003     1.0  0.98260  0.49171  0.09067  1.0000
  H   H1211     1.0  0.95411  0.49868  0.54127  1.0000
  H   H1212     1.0  0.79503  0.28057  0.46661  1.0000
  H   H1213     1.0  0.75766  0.45644  0.37223  1.0000
  H   H1214     1.0  0.98578  0.40999  0.53228  1.0000
  S   S270      1.0  0.75585  0.48237  0.41771  1.0000
  H   H1215     1.0  0.96181  0.49999  0.98436  1.0000
  C   C1004     1.0  0.85063  0.49456  0.67659  1.0000
  H   H1216     1.0  0.75866  0.43622  0.39121  1.0000
  S   S271      1.0  0.93603  0.50281  0.04955  1.0000
  H   H1217     1.0  0.99610  0.49794  0.09291  1.0000
  C   C1005     1.0  0.98766  0.50284  0.96545  1.0000
  H   H1218     1.0  0.76231  0.42524  0.30297  1.0000
  H   H1219     1.0  0.84479  0.50291  0.66219  1.0000
  S   S272      1.0  0.91720  0.54656  0.59296  1.0000
  Fe  Fe136     1.0  0.90676  0.53486  0.71539  1.0000
  S   S273      1.0  0.89928  0.55484  0.67978  1.0000
  S   S274      1.0  0.89934  0.52339  0.78458  1.0000
  Fe  Fe137     1.0  0.89167  0.53686  0.63158  1.0000
  Fe  Fe138     1.0  0.92542  0.56290  0.64364  1.0000
  S   S275      1.0  0.94032  0.59026  0.62042  1.0000
  S   S276      1.0  0.93345  0.54426  0.68259  1.0000
  H   H1220     1.0  0.84671  0.53166  0.06536  1.0000
  C   C1006     1.0  0.86389  0.52466  0.99940  1.0000
  Fe  Fe139     1.0  0.93302  0.55710  0.09099  1.0000
  S   S277      1.0  0.91081  0.56172  0.06572  1.0000
  S   S278      1.0  0.94941  0.57147  0.13590  1.0000
  Fe  Fe140     1.0  0.89688  0.53423  0.08881  1.0000
  H   H1221     1.0  0.82801  0.55276  0.89960  1.0000
  Fe  Fe141     1.0  0.91951  0.55261  0.00639  1.0000
  S   S279      1.0  0.92050  0.56434  0.93935  1.0000
  S   S280      1.0  0.91827  0.53030  0.11839  1.0000
  S   S281      1.0  0.94291  0.55055  0.03008  1.0000
  C   C1007     1.0  0.94315  0.53221  0.84335  1.0000
  H   H1222     1.0  0.96044  0.62178  0.57512  1.0000
  C   C1008     1.0  0.99072  0.56812  0.53276  1.0000
  C   C1009     1.0  0.00010  0.59649  0.49285  1.0000
  H   H1223     1.0  0.83895  0.53360  0.43400  1.0000
  H   H1224     1.0  0.98087  0.55372  0.63754  1.0000
  C   C1010     1.0  0.97853  0.58594  0.07918  1.0000
  C   C1011     1.0  0.97121  0.58199  0.12139  1.0000
  C   C1012     1.0  0.98141  0.58665  0.15310  1.0000
  S   S282      1.0  0.89716  0.51630  0.66998  1.0000
  C   C1013     1.0  0.87413  0.56366  0.44475  1.0000
  H   H1225     1.0  0.97072  0.58272  0.05453  1.0000
  H   H1226     1.0  0.97579  0.58381  0.18579  1.0000
  C   C1014     1.0  0.85744  0.54664  0.95916  1.0000
  C   C1015     1.0  0.90496  0.53518  0.82705  1.0000
  C   C1016     1.0  0.91411  0.55247  0.82060  1.0000
  C   C1017     1.0  0.91875  0.56121  0.85527  1.0000
  C   C1018     1.0  0.91463  0.55273  0.89660  1.0000
  C   C1019     1.0  0.90546  0.53544  0.90299  1.0000
  C   C1020     1.0  0.90042  0.52680  0.86845  1.0000
  H   H1227     1.0  0.91762  0.55911  0.78892  1.0000
  H   H1228     1.0  0.92573  0.57461  0.84995  1.0000
  H   H1229     1.0  0.90220  0.52874  0.93449  1.0000
  C   C1021     1.0  0.86119  0.52310  0.16848  1.0000
  C   C1022     1.0  0.85988  0.53980  0.22578  1.0000
  C   C1023     1.0  0.96220  0.60114  0.61630  1.0000
  C   C1024     1.0  0.97309  0.59495  0.63737  1.0000
  C   C1025     1.0  0.99050  0.60437  0.63238  1.0000
  C   C1026     1.0  0.88834  0.54248  0.48631  1.0000
  C   C1027     1.0  0.98596  0.62613  0.58635  1.0000
  C   C1028     1.0  0.96875  0.61678  0.59104  1.0000
  H   H1230     1.0  0.96806  0.58310  0.65788  1.0000
  H   H1231     1.0  0.84061  0.53315  0.55374  1.0000
  H   H1232     1.0  0.96797  0.52794  0.00635  1.0000
  H   H1233     1.0  0.88031  0.56170  0.86092  1.0000
  C   C1029     1.0  0.97704  0.54053  0.15991  1.0000
  S   S283      1.0  0.86761  0.53445  0.60224  1.0000
  H   H1234     1.0  0.87587  0.52703  0.97850  1.0000
  C   C1030     1.0  0.87972  0.53734  0.45232  1.0000
  Fe  Fe142     1.0  0.92660  0.52428  0.05574  1.0000
  C   C1031     1.0  0.99072  0.53489  0.15836  1.0000
  C   C1032     1.0  0.96656  0.52083  0.46490  1.0000
  C   C1033     1.0  0.84009  0.55258  0.90726  1.0000
  Fe  Fe143     1.0  0.92317  0.52735  0.63470  1.0000
  C   C1034     1.0  0.88255  0.56854  0.47918  1.0000
  H   H1235     1.0  0.84472  0.55507  0.41031  1.0000
  C   C1035     1.0  0.88957  0.55793  0.50003  1.0000
  H   H1236     1.0  0.87900  0.54774  0.17106  1.0000
  H   H1237     1.0  0.89568  0.56151  0.52750  1.0000
  H   H1238     1.0  0.86883  0.57231  0.42978  1.0000
  C   C1036     1.0  0.99877  0.53274  0.41893  1.0000
  C   C1037     1.0  0.84539  0.54251  0.40503  1.0000
  S   S284      1.0  0.90405  0.52571  0.02747  1.0000
  N   N69       1.0  0.86290  0.54281  0.39464  1.0000
  C   C1038     1.0  0.00092  0.56364  0.50134  1.0000
  C   C1039     1.0  0.87102  0.55514  0.35648  1.0000
  C   C1040     1.0  0.99083  0.58501  0.52772  1.0000
  H   H1239     1.0  0.83047  0.54299  0.97111  1.0000
  C   C1041     1.0  0.99697  0.61994  0.60650  1.0000
  H   H1240     1.0  0.85531  0.51581  0.41049  1.0000
  H   H1241     1.0  0.98996  0.57485  0.61138  1.0000
  C   C1042     1.0  0.98830  0.54236  0.41651  1.0000
  C   C1043     1.0  0.84442  0.53609  0.03350  1.0000
  S   S285      1.0  0.86964  0.52075  0.11765  1.0000
  C   C1044     1.0  0.87230  0.54783  0.43045  1.0000
  C   C1045     1.0  0.99592  0.59468  0.06889  1.0000
  H   H1242     1.0  0.87069  0.56794  0.36032  1.0000
  H   H1243     1.0  0.85494  0.52256  0.35661  1.0000
  N   N70       1.0  0.99879  0.55227  0.00578  1.0000
  H   H1244     1.0  0.97619  0.55613  0.98879  1.0000
  C   C1046     1.0  0.87125  0.55220  0.92636  1.0000
  Fe  Fe144     1.0  0.81704  0.50722  0.33629  1.0000
  C   C1047     1.0  0.86200  0.52586  0.38379  1.0000
  H   H1245     1.0  0.87871  0.52493  0.44457  1.0000
  C   C1048     1.0  0.86792  0.53776  0.18708  1.0000
  H   H1246     1.0  0.83371  0.52566  0.02543  1.0000
  H   H1247     1.0  0.95112  0.53474  0.15191  1.0000
  N   N71       1.0  0.98082  0.55624  0.57017  1.0000
  C   C1049     1.0  0.97695  0.51066  0.46801  1.0000
  C   C1050     1.0  0.84533  0.52705  0.24671  1.0000
  C   C1051     1.0  0.98009  0.53857  0.56792  1.0000
  H   H1248     1.0  0.99888  0.59981  0.64923  1.0000
  H   H1249     1.0  0.87468  0.54907  0.05081  1.0000
  H   H1250     1.0  0.89356  0.53417  0.50331  1.0000
  H   H1251     1.0  0.83785  0.53849  0.37904  1.0000
  S   S286      1.0  0.93622  0.51054  0.60832  1.0000
  C   C1052     1.0  0.98848  0.56159  0.60816  1.0000
  H   H1252     1.0  0.94526  0.53805  0.81091  1.0000
  H   H1253     1.0  0.95620  0.55538  0.86635  1.0000
  C   C1053     1.0  0.94934  0.54200  0.87453  1.0000
  C   C1054     1.0  0.85883  0.52109  0.56463  1.0000
  H   H1254     1.0  0.88355  0.55228  0.93212  1.0000
  S   S287      1.0  0.83503  0.53030  0.29429  1.0000
  H   H1255     1.0  0.95519  0.54650  0.60138  1.0000
  C   C1055     1.0  0.84539  0.52330  0.54543  1.0000
  C   C1056     1.0  0.84171  0.54699  0.94841  1.0000
  H   H1256     1.0  0.85391  0.51484  0.98691  1.0000
  C   C1057     1.0  0.97228  0.53647  0.43959  1.0000
  H   H1257     1.0  0.85264  0.56210  0.84394  1.0000
  H   H1258     1.0  0.88345  0.58050  0.49027  1.0000
  C   C1058     1.0  0.99322  0.51712  0.44423  1.0000
  H   H1259     1.0  0.95742  0.55361  0.54621  1.0000
  H   H1260     1.0  0.86488  0.55137  0.23930  1.0000
  C   C1059     1.0  0.95965  0.51377  0.14165  1.0000
  H   H1261     1.0  0.88601  0.55520  0.99915  1.0000
  H   H1262     1.0  0.97869  0.54394  0.05849  1.0000
  H   H1263     1.0  0.95401  0.51705  0.48189  1.0000
  C   C1060     1.0  0.93657  0.51765  0.92734  1.0000
  C   C1061     1.0  0.99525  0.53559  0.99056  1.0000
  N   N72       1.0  0.85963  0.54024  0.00178  1.0000
  C   C1062     1.0  0.87353  0.55302  0.01760  1.0000
  H   H1264     1.0  0.87149  0.56538  0.01655  1.0000
  H   H1265     1.0  0.99270  0.57493  0.99328  1.0000
  H   H1266     1.0  0.84056  0.54732  0.03696  1.0000
  C   C1063     1.0  0.85394  0.55786  0.87582  1.0000
  H   H1267     1.0  0.99269  0.55448  0.39689  1.0000
  H   H1268     1.0  0.87472  0.52523  0.37444  1.0000
  C   C1064     1.0  0.99003  0.56219  0.98306  1.0000
  H   H1269     1.0  0.99397  0.56387  0.94843  1.0000
  H   H1270     1.0  0.86457  0.55138  0.32852  1.0000
  C   C1065     1.0  0.99260  0.54976  0.05149  1.0000
  H   H1271     1.0  0.99074  0.63828  0.56704  1.0000
  C   C1066     1.0  0.99886  0.59490  0.14285  1.0000
  H   H1272     1.0  0.89319  0.51350  0.87364  1.0000
  C   C1067     1.0  0.96161  0.53007  0.15126  1.0000
  C   C1068     1.0  0.98895  0.51867  0.14862  1.0000
  H   H1273     1.0  0.97842  0.55311  0.16734  1.0000
  S   S288      1.0  0.80647  0.50791  0.40327  1.0000
  C   C1069     1.0  0.97842  0.52445  0.99342  1.0000
  C   C1070     1.0  0.96324  0.55623  0.57546  1.0000
  H   H1274     1.0  0.96226  0.56836  0.58391  1.0000
  H   H1275     1.0  0.97211  0.52993  0.59593  1.0000
  H   H1276     1.0  0.88440  0.55619  0.34847  1.0000
  H   H1277     1.0  0.95062  0.54249  0.94063  1.0000
  H   H1278     1.0  0.00008  0.51509  0.14659  1.0000
  H   H1279     1.0  0.86541  0.51919  0.03093  1.0000
  H   H1280     1.0  0.97463  0.53383  0.53966  1.0000
  H   H1281     1.0  0.96423  0.54409  0.43778  1.0000
  C   C1071     1.0  0.93347  0.51514  0.85390  1.0000
  C   C1072     1.0  0.83803  0.51285  0.51569  1.0000
  C   C1073     1.0  0.97474  0.50836  0.98093  1.0000
  C   C1074     1.0  0.94613  0.53472  0.91641  1.0000
  C   C1075     1.0  0.86950  0.55766  0.88538  1.0000
  H   H1282     1.0  0.98402  0.58964  0.55112  1.0000
  H   H1283     1.0  0.99603  0.56185  0.06526  1.0000
  H   H1284     1.0  0.99814  0.54142  0.06902  1.0000
  H   H1285     1.0  0.99273  0.53734  0.56770  1.0000
  C   C1076     1.0  0.83895  0.51217  0.22877  1.0000
  C   C1077     1.0  0.84670  0.51033  0.18955  1.0000
  H   H1286     1.0  0.93438  0.51264  0.96030  1.0000
  H   H1287     1.0  0.82754  0.51454  0.50181  1.0000
  C   C1078     1.0  0.97327  0.50747  0.14073  1.0000
  H   H1288     1.0  0.87521  0.50660  0.56807  1.0000
  C   C1079     1.0  0.86484  0.50830  0.55369  1.0000
  H   H1289     1.0  0.85510  0.50763  0.73079  1.0000
  H   H1290     1.0  0.92864  0.50855  0.82817  1.0000
  H   H1291     1.0  0.90323  0.50645  0.58706  1.0000
  C   C1080     1.0  0.92965  0.50739  0.89651  1.0000
  H   H1292     1.0  0.94739  0.50643  0.13475  1.0000
  H   H1293     1.0  0.00132  0.56086  0.60660  1.0000
  H   H1294     1.0  0.98598  0.50472  0.54199  1.0000
  H   H1295     1.0  0.00015  0.60939  0.49021  1.0000
  H   H1296     1.0  0.00148  0.59822  0.03624  1.0000
