data_image0
_chemical_formula_structural       H6C2HNH5CSCHC2H4C2H3C2HNHFeSHFeSFeSFeS2FeS2C2NCS2CHC6H7FeH2CHCHCH3CH3CHCHC2HC3H2SNHCHSHC4SCHCH2CFeC3H5FeHC2HFeCHFeS2HCNHS2H4SCHSCFeSHFeNFeSCSC2H2CSCSFeSFeC2HC2HCH3C2H2C2HC2H2SCHCHFeH2CH2CH4CH2CHFeCHSC2HFeH3C2SHFeCHC3H2CHNC2HCNC2SHCSCHFeCHCHSHCH2CH3C3H3CH2CHCH2FeCSCH2CHCSCH2SH2CH2NC9HCH5SCH4CH6CHCH4CH3CH3FeC2HC2HC2H3CH2SHFeS2FeSCFeS2CHC2FeSHSFeS2FeS2FeHFeS3H2FeS2FeS2FeSFeS3HC3NC2H2CHC6H4C5H3C6H5C8H5C2HC2FeHC6H5C2HCH2NC3H5CH3CNC4HC2H11CFeCHNC4HCH8CH3C4HC2H3CH3CH2CH6SH2CH2SC2SFeSC3H4CH2SHSHCH4C3H5CNHCH2CHSCH3CH3C2HCH2NC2H2C2HC3H3CH2C3HCH3SH2C2HC2H2FeH2C2H3CNHC2HSC4HCNH2C3HSNHC2H3CH3SHFeS2FeS2FeSFeS3NCFeHS2H2CHCSHCH3CFeH2CNC7HCH2C6H3FeHC7H7CHCHC2NC4SC2HCH2CH2C2H3SHCSH2C2H2FeCH2SH2CH3CHC2HCFeH2CHNSCSHC3H2CHCNCHSH4CH2CHFeHCH2NHCSCH2C2H7CH5C2HCHCH3C3HCHCHC2HSHCSCH3CNHSC2H3CH5FeSCFeSCFeSFeS3CHSHSFeSCH2C7H4C2HC3H2NH6CH3C2H3C2HC3HC6H2NC3HSC4H3CHS2HCH3CH2CH2CHC2H3CNH3CH9C3H4NCHC2HCHSH3C2HC2SHCHC4H3CH2C4H3CHCFeS2FeSFeSFeCS2FeSCFeS2FeS2FeS2FeSFeS4H3CFeS2FeS2FeSFeS3C2H2C3H2CHC6H4C6H4C6HCH2CHCHC2H4C6H5CSH8C6H5C3HCNCH2CH2C2HCHC2H5CNH2NC8H10C3SC2HC3H2CH2SCHC2H3C2SHFeC2H2CH2CH2CHC2SC2H2CHC2HSHCH4C2HFeCHC2HCH2SHC3H2NFeC3SH4CH6CNC2FeHCSH2C2HCN2C2HCNHC2H4SH3SH5SCH2C4HC2HCHC2H2CH4NC5HCH6CH2CH4CH2FeHC2HC3FeS2FeSCFeCFeS3FeS2FeS3CFeS3FeSHFeS2Fe2CS2FeSFeS2FeS2C6H4CSCH4C6SH4CHCH4C3H5CH2CHCH3FeH3C2H5C2HCHCH2C2HC4HNC9H14NC8SHCH9CHCFeH3NC2HC2H4C4SCH2NC2H2SHCH3C2H5CHCNHC3H3CH2C3NHCHC2H2CHC2HCHC2H2C3NCHCHSNH5CH3C3H4CHC2H2CSC2H3CH2SCHC4H3SC2HCH2CHCH5C2H3SHCHC5SCHCH2CHCHCH2C2H6C2HCHFe2S2HFeS2CFeSCFeSFeHCSC3H2C4H3CNC3H3C6HNHC2H3C2HCHSC2HC2HFeSH3SHC3H2S2HSCH3CHCH6CHCHFeHCH3SH4C
_chemical_formula_sum              "H864 C720 N48 S192 Fe96"
_cell_length_a       58.7627
_cell_length_b       61.1323
_cell_length_c       60.265
_cell_angle_alpha    78.809
_cell_angle_beta     74.1953
_cell_angle_gamma    76.7757

_space_group_name_H-M_alt    "P 1"
_space_group_IT_number       1

loop_
  _space_group_symop_operation_xyz
  'x, y, z'

loop_
  _atom_site_type_symbol
  _atom_site_label
  _atom_site_symmetry_multiplicity
  _atom_site_fract_x
  _atom_site_fract_y
  _atom_site_fract_z
  _atom_site_occupancy
  H   H1        1.0  0.47403  0.11411  0.45241  1.0000
  H   H2        1.0  0.46502  0.02059  0.45581  1.0000
  H   H3        1.0  0.48021  0.12628  0.32858  1.0000
  H   H4        1.0  0.46747  0.07295  0.47517  1.0000
  H   H5        1.0  0.44827  0.18224  0.46990  1.0000
  H   H6        1.0  0.47883  0.20428  0.45952  1.0000
  C   C1        1.0  0.46951  0.03778  0.45338  1.0000
  C   C2        1.0  0.48050  0.23656  0.46602  1.0000
  H   H7        1.0  0.46250  0.13777  0.35463  1.0000
  N   N1        1.0  0.48522  0.03899  0.46843  1.0000
  H   H8        1.0  0.47254  0.09273  0.38734  1.0000
  H   H9        1.0  0.41319  0.01826  0.45522  1.0000
  H   H10       1.0  0.45239  0.05016  0.45682  1.0000
  H   H11       1.0  0.47347  0.12012  0.39321  1.0000
  H   H12       1.0  0.47832  0.04163  0.43465  1.0000
  C   C3        1.0  0.48427  0.10547  0.38417  1.0000
  S   S1        1.0  0.48733  0.01594  0.39373  1.0000
  C   C4        1.0  0.47356  0.12203  0.34777  1.0000
  H   H13       1.0  0.46103  0.11003  0.35084  1.0000
  C   C5        1.0  0.48598  0.11959  0.46015  1.0000
  C   C6        1.0  0.41247  0.02185  0.47231  1.0000
  H   H14       1.0  0.48003  0.07366  0.35516  1.0000
  H   H15       1.0  0.40713  0.05819  0.46214  1.0000
  H   H16       1.0  0.49061  0.24111  0.44839  1.0000
  H   H17       1.0  0.47950  0.26851  0.47662  1.0000
  C   C7        1.0  0.47347  0.21539  0.47270  1.0000
  C   C8        1.0  0.49203  0.31520  0.46113  1.0000
  H   H18       1.0  0.49145  0.07180  0.44968  1.0000
  H   H19       1.0  0.38099  0.98987  0.41234  1.0000
  H   H20       1.0  0.48284  0.30728  0.45247  1.0000
  C   C9        1.0  0.48570  0.06329  0.46783  1.0000
  C   C10       1.0  0.40895  0.04451  0.47630  1.0000
  H   H21       1.0  0.47663  0.16835  0.47694  1.0000
  N   N2        1.0  0.49396  0.11258  0.35901  1.0000
  H   H22       1.0  0.34771  0.98619  0.44426  1.0000
  Fe  Fe1       1.0  0.43603  0.07201  0.57548  1.0000
  S   S2        1.0  0.39957  0.08859  0.56873  1.0000
  H   H23       1.0  0.38250  0.26469  0.59636  1.0000
  Fe  Fe2       1.0  0.46139  0.10464  0.53879  1.0000
  S   S3        1.0  0.42794  0.12283  0.52773  1.0000
  Fe  Fe3       1.0  0.41208  0.12193  0.56606  1.0000
  S   S4        1.0  0.39346  0.15714  0.57577  1.0000
  Fe  Fe4       1.0  0.41916  0.08815  0.53093  1.0000
  S   S5        1.0  0.44625  0.10484  0.57672  1.0000
  S   S6        1.0  0.45471  0.07046  0.53799  1.0000
  Fe  Fe5       1.0  0.44208  0.26743  0.57926  1.0000
  S   S7        1.0  0.41712  0.28292  0.55597  1.0000
  S   S8        1.0  0.45321  0.22886  0.58518  1.0000
  C   C11       1.0  0.36392  0.26110  0.60119  1.0000
  C   C12       1.0  0.37303  0.23074  0.63121  1.0000
  N   N3        1.0  0.35669  0.25250  0.62628  1.0000
  C   C13       1.0  0.44948  0.01655  0.56316  1.0000
  S   S9        1.0  0.42422  0.29110  0.60621  1.0000
  S   S10       1.0  0.46999  0.28909  0.56097  1.0000
  C   C14       1.0  0.35811  0.26983  0.63989  1.0000
  H   H24       1.0  0.35570  0.26305  0.65874  1.0000
  C   C15       1.0  0.41060  0.17694  0.57771  1.0000
  C   C16       1.0  0.43353  0.16992  0.58217  1.0000
  C   C17       1.0  0.44635  0.18600  0.58428  1.0000
  C   C18       1.0  0.43669  0.20934  0.58148  1.0000
  C   C19       1.0  0.41404  0.21643  0.57642  1.0000
  C   C20       1.0  0.40087  0.20031  0.57502  1.0000
  H   H25       1.0  0.44121  0.15205  0.58453  1.0000
  H   H26       1.0  0.46382  0.18027  0.58827  1.0000
  H   H27       1.0  0.40660  0.23430  0.57387  1.0000
  H   H28       1.0  0.38317  0.20596  0.57158  1.0000
  H   H29       1.0  0.41837  0.17468  0.51870  1.0000
  H   H30       1.0  0.31878  0.26687  0.63027  1.0000
  H   H31       1.0  0.36356  0.24855  0.59020  1.0000
  Fe  Fe6       1.0  0.40141  0.30818  0.58110  1.0000
  H   H32       1.0  0.41973  0.19948  0.52882  1.0000
  H   H33       1.0  0.44487  0.22148  0.52937  1.0000
  C   C21       1.0  0.41240  0.20994  0.63734  1.0000
  H   H34       1.0  0.43144  0.02599  0.56354  1.0000
  C   C22       1.0  0.45447  0.22517  0.51145  1.0000
  H   H35       1.0  0.41026  0.03535  0.53333  1.0000
  C   C23       1.0  0.46073  0.00187  0.54656  1.0000
  H   H36       1.0  0.40338  0.24577  0.63155  1.0000
  H   H37       1.0  0.45738  0.15736  0.52855  1.0000
  H   H38       1.0  0.46960  0.10631  0.49504  1.0000
  C   C24       1.0  0.33104  0.25009  0.63191  1.0000
  H   H39       1.0  0.32541  0.24153  0.65006  1.0000
  H   H40       1.0  0.45122  0.99978  0.53435  1.0000
  H   H41       1.0  0.37543  0.27607  0.63370  1.0000
  C   C25       1.0  0.36695  0.20937  0.63171  1.0000
  H   H42       1.0  0.35187  0.27722  0.59630  1.0000
  C   C26       1.0  0.41299  0.00911  0.51268  1.0000
  H   H43       1.0  0.45691  0.25837  0.51681  1.0000
  C   C27       1.0  0.39653  0.23037  0.63354  1.0000
  C   C28       1.0  0.40570  0.18932  0.63819  1.0000
  H   H44       1.0  0.34429  0.28551  0.63806  1.0000
  C   C29       1.0  0.48482  0.00674  0.57881  1.0000
  C   C30       1.0  0.42523  0.19095  0.51307  1.0000
  C   C31       1.0  0.48349  0.11522  0.48424  1.0000
  H   H45       1.0  0.32755  0.24044  0.61969  1.0000
  H   H46       1.0  0.35013  0.20786  0.62875  1.0000
  S   S11       1.0  0.44856  0.03991  0.59777  1.0000
  N   N4        1.0  0.45167  0.18714  0.50329  1.0000
  H   H47       1.0  0.41843  0.17357  0.64017  1.0000
  C   C32       1.0  0.41467  0.00398  0.49048  1.0000
  H   H48       1.0  0.37843  0.17296  0.63479  1.0000
  S   S12       1.0  0.40844  0.07804  0.50115  1.0000
  H   H49       1.0  0.43050  0.21015  0.63838  1.0000
  C   C33       1.0  0.38310  0.18904  0.63523  1.0000
  C   C34       1.0  0.46157  0.01923  0.57915  1.0000
  C   C35       1.0  0.46145  0.24630  0.50452  1.0000
  C   C36       1.0  0.41080  0.03170  0.51634  1.0000
  S   S13       1.0  0.45543  0.30847  0.49955  1.0000
  C   C37       1.0  0.48438  0.99031  0.54530  1.0000
  H   H50       1.0  0.45766  0.04142  0.50052  1.0000
  C   C38       1.0  0.40915  0.04952  0.49804  1.0000
  H   H51       1.0  0.46026  0.18286  0.53672  1.0000
  H   H52       1.0  0.41387  0.99555  0.52704  1.0000
  C   C39       1.0  0.45694  0.17320  0.48424  1.0000
  Fe  Fe7       1.0  0.44408  0.30558  0.53878  1.0000
  C   C40       1.0  0.45986  0.20918  0.49563  1.0000
  C   C41       1.0  0.46374  0.17374  0.52158  1.0000
  C   C42       1.0  0.47445  0.03001  0.49282  1.0000
  H   H53       1.0  0.46917  0.01334  0.49433  1.0000
  H   H54       1.0  0.48720  0.02774  0.50409  1.0000
  H   H55       1.0  0.48359  0.16958  0.51473  1.0000
  H   H56       1.0  0.45016  0.15697  0.49052  1.0000
  H   H57       1.0  0.41548  0.20160  0.50011  1.0000
  Fe  Fe8       1.0  0.44917  0.31467  0.58539  1.0000
  H   H58       1.0  0.49419  0.00873  0.59124  1.0000
  C   C43       1.0  0.47434  0.25201  0.48185  1.0000
  C   C44       1.0  0.48219  0.31835  0.48453  1.0000
  H   H59       1.0  0.19716  0.57049  0.45437  1.0000
  Fe  Fe9       1.0  0.42431  0.62137  0.05834  1.0000
  C   C45       1.0  0.24745  0.53826  0.45418  1.0000
  H   H60       1.0  0.43615  0.50881  0.05380  1.0000
  Fe  Fe10      1.0  0.44026  0.58317  0.02787  1.0000
  S   S14       1.0  0.46809  0.60081  0.00247  1.0000
  S   S15       1.0  0.43873  0.54803  0.02195  1.0000
  H   H61       1.0  0.46932  0.60379  0.15142  1.0000
  C   C46       1.0  0.16444  0.64053  0.37329  1.0000
  N   N5        1.0  0.20417  0.49610  0.47362  1.0000
  H   H62       1.0  0.04694  0.45245  0.37529  1.0000
  S   S16       1.0  0.45193  0.58929  0.05838  1.0000
  S   S17       1.0  0.41052  0.61364  0.02945  1.0000
  H   H63       1.0  0.03954  0.49416  0.37294  1.0000
  H   H64       1.0  0.39827  0.56645  0.32331  1.0000
  H   H65       1.0  0.02720  0.56028  0.44912  1.0000
  H   H66       1.0  0.46156  0.56924  0.19638  1.0000
  S   S18       1.0  0.05905  0.64973  0.41999  1.0000
  C   C47       1.0  0.02307  0.59405  0.34509  1.0000
  H   H67       1.0  0.48956  0.59803  0.25510  1.0000
  S   S19       1.0  0.05401  0.62120  0.38078  1.0000
  C   C48       1.0  0.25699  0.53507  0.47359  1.0000
  Fe  Fe11      1.0  0.06124  0.61661  0.44346  1.0000
  S   S20       1.0  0.08769  0.59602  0.41725  1.0000
  H   H68       1.0  0.22433  0.58293  0.47336  1.0000
  Fe  Fe12      1.0  0.08413  0.62878  0.39309  1.0000
  N   N6        1.0  0.49152  0.58373  0.17418  1.0000
  Fe  Fe13      1.0  0.05563  0.59020  0.40750  1.0000
  S   S21       1.0  0.04989  0.55642  0.40240  1.0000
  C   C49       1.0  0.47320  0.60908  0.30741  1.0000
  S   S22       1.0  0.02978  0.60703  0.43649  1.0000
  C   C50       1.0  0.40626  0.57005  0.10902  1.0000
  C   C51       1.0  0.43553  0.52194  0.99119  1.0000
  H   H69       1.0  0.42303  0.49357  0.08149  1.0000
  H   H70       1.0  0.25389  0.55009  0.43904  1.0000
  C   C52       1.0  0.99766  0.59695  0.34913  1.0000
  S   S23       1.0  0.40226  0.62957  0.09420  1.0000
  C   C53       1.0  0.04957  0.42605  0.44206  1.0000
  S   S24       1.0  0.25832  0.60760  0.42193  1.0000
  Fe  Fe14      1.0  0.27059  0.62349  0.44601  1.0000
  S   S25       1.0  0.41005  0.62269  0.22970  1.0000
  Fe  Fe15      1.0  0.43810  0.61112  0.25063  1.0000
  C   C54       1.0  0.35510  0.62167  0.30260  1.0000
  C   C55       1.0  0.34546  0.60864  0.32357  1.0000
  H   H71       1.0  0.06289  0.41053  0.44187  1.0000
  C   C56       1.0  0.44969  0.41611  0.98963  1.0000
  C   C57       1.0  0.44004  0.49826  0.07003  1.0000
  H   H72       1.0  0.03594  0.47782  0.46007  1.0000
  C   C58       1.0  0.01294  0.44786  0.43143  1.0000
  H   H73       1.0  0.39510  0.58528  0.11558  1.0000
  H   H74       1.0  0.06455  0.51244  0.38714  1.0000
  H   H75       1.0  0.45204  0.48239  0.06424  1.0000
  C   C59       1.0  0.03442  0.46391  0.45225  1.0000
  C   C60       1.0  0.11782  0.54845  0.47199  1.0000
  H   H76       1.0  0.46829  0.53039  0.05148  1.0000
  H   H77       1.0  0.48780  0.40831  0.98686  1.0000
  C   C61       1.0  0.41235  0.57718  0.31787  1.0000
  C   C62       1.0  0.49110  0.54115  0.26373  1.0000
  H   H78       1.0  0.09358  0.51068  0.43827  1.0000
  C   C63       1.0  0.01912  0.55613  0.40597  1.0000
  C   C64       1.0  0.01130  0.53556  0.40849  1.0000
  H   H79       1.0  0.48697  0.52357  0.00620  1.0000
  H   H80       1.0  0.31054  0.58356  0.46042  1.0000
  S   S26       1.0  0.19443  0.64553  0.42538  1.0000
  C   C65       1.0  0.35677  0.64212  0.37714  1.0000
  H   H81       1.0  0.02389  0.51969  0.40912  1.0000
  C   C66       1.0  0.30376  0.57314  0.47652  1.0000
  H   H82       1.0  0.40715  0.53373  0.07310  1.0000
  Fe  Fe16      1.0  0.02939  0.63847  0.41062  1.0000
  H   H83       1.0  0.08010  0.42882  0.39189  1.0000
  H   H84       1.0  0.04971  0.54765  0.46497  1.0000
  C   C67       1.0  0.12371  0.56863  0.45866  1.0000
  H   H85       1.0  0.43428  0.57004  0.12551  1.0000
  H   H86       1.0  0.21368  0.61218  0.46473  1.0000
  C   C68       1.0  0.47323  0.51680  0.06540  1.0000
  H   H87       1.0  0.11213  0.60478  0.45194  1.0000
  H   H88       1.0  0.13901  0.56821  0.44380  1.0000
  H   H89       1.0  0.39389  0.60073  0.36776  1.0000
  H   H90       1.0  0.46245  0.57751  0.31055  1.0000
  C   C69       1.0  0.42829  0.56128  0.11477  1.0000
  H   H91       1.0  0.20996  0.49739  0.43642  1.0000
  H   H92       1.0  0.13165  0.48585  0.42434  1.0000
  C   C70       1.0  0.15080  0.64074  0.42136  1.0000
  H   H93       1.0  0.46981  0.47705  0.09504  1.0000
  Fe  Fe17      1.0  0.28758  0.62174  0.39393  1.0000
  C   C71       1.0  0.45935  0.49325  0.10135  1.0000
  H   H94       1.0  0.29813  0.64817  0.34571  1.0000
  S   S27       1.0  0.31485  0.60230  0.36671  1.0000
  C   C72       1.0  0.01486  0.46590  0.44186  1.0000
  C   C73       1.0  0.34388  0.64413  0.29715  1.0000
  H   H95       1.0  0.44353  0.48925  0.11543  1.0000
  Fe  Fe18      1.0  0.43912  0.63165  0.00479  1.0000
  H   H96       1.0  0.42883  0.56663  0.30840  1.0000
  H   H97       1.0  0.03187  0.60837  0.34239  1.0000
  H   H98       1.0  0.10469  0.44574  0.40748  1.0000
  C   C74       1.0  0.39244  0.59544  0.35163  1.0000
  C   C75       1.0  0.10852  0.58929  0.46330  1.0000
  S   S28       1.0  0.42013  0.63496  0.27691  1.0000
  H   H99       1.0  0.03439  0.53017  0.45519  1.0000
  Fe  Fe19      1.0  0.39434  0.64887  0.25411  1.0000
  C   C76       1.0  0.42659  0.56545  0.35306  1.0000
  H   H100      1.0  0.37087  0.61426  0.29041  1.0000
  C   C77       1.0  0.45675  0.59435  0.31554  1.0000
  C   C78       1.0  0.44293  0.54187  0.10599  1.0000
  C   C79       1.0  0.39902  0.55978  0.09407  1.0000
  H   H101      1.0  0.48994  0.50649  0.98437  1.0000
  H   H102      1.0  0.47318  0.57388  0.15218  1.0000
  C   C80       1.0  0.03038  0.42804  0.43178  1.0000
  H   H103      1.0  0.14523  0.64114  0.43995  1.0000
  N   N7        1.0  0.41634  0.58529  0.33794  1.0000
  C   C81       1.0  0.32517  0.61827  0.33954  1.0000
  C   C82       1.0  0.41583  0.63480  0.11523  1.0000
  H   H104      1.0  0.46108  0.46620  0.01077  1.0000
  C   C83       1.0  0.41348  0.54033  0.08522  1.0000
  N   N8        1.0  0.45160  0.51003  0.08217  1.0000
  C   C84       1.0  0.20970  0.59750  0.47842  1.0000
  C   C85       1.0  0.42671  0.54266  0.00004  1.0000
  S   S29       1.0  0.11906  0.63807  0.37014  1.0000
  H   H105      1.0  0.41025  0.63093  0.34521  1.0000
  C   C86       1.0  0.17462  0.64219  0.40937  1.0000
  S   S30       1.0  0.46253  0.63425  0.22863  1.0000
  C   C87       1.0  0.36605  0.64420  0.39540  1.0000
  H   H106      1.0  0.44546  0.42108  0.00683  1.0000
  Fe  Fe20      1.0  0.43346  0.64755  0.20903  1.0000
  C   C88       1.0  0.46685  0.63117  0.31270  1.0000
  H   H107      1.0  0.40663  0.59164  0.30497  1.0000
  C   C89       1.0  0.23010  0.52600  0.45399  1.0000
  H   H108      1.0  0.48450  0.56886  0.10774  1.0000
  S   S31       1.0  0.13406  0.52256  0.46364  1.0000
  H   H109      1.0  0.36509  0.63136  0.41065  1.0000
  C   C90       1.0  0.21558  0.47176  0.47621  1.0000
  H   H110      1.0  0.44943  0.63975  0.09124  1.0000
  H   H111      1.0  0.38369  0.61039  0.34110  1.0000
  C   C91       1.0  0.47814  0.46310  0.99819  1.0000
  H   H112      1.0  0.16970  0.64055  0.35463  1.0000
  H   H113      1.0  0.23123  0.46801  0.46130  1.0000
  H   H114      1.0  0.38233  0.56731  0.08887  1.0000
  C   C92       1.0  0.22174  0.51012  0.47350  1.0000
  C   C93       1.0  0.43571  0.53047  0.09137  1.0000
  C   C94       1.0  0.18153  0.64186  0.38529  1.0000
  H   H115      1.0  0.46028  0.53625  0.11018  1.0000
  H   H116      1.0  0.06889  0.51434  0.42506  1.0000
  H   H117      1.0  0.00811  0.59230  0.40474  1.0000
  C   C95       1.0  0.44410  0.63861  0.32635  1.0000
  H   H118      1.0  0.35383  0.59113  0.32752  1.0000
  H   H119      1.0  0.37974  0.58325  0.35730  1.0000
  C   C96       1.0  0.00279  0.55555  0.35158  1.0000
  H   H120      1.0  0.18596  0.51910  0.44919  1.0000
  C   C97       1.0  0.43550  0.64524  0.14923  1.0000
  H   H121      1.0  0.48499  0.60438  0.07992  1.0000
  H   H122      1.0  0.02915  0.41403  0.42386  1.0000
  Fe  Fe21      1.0  0.23512  0.64174  0.41560  1.0000
  C   C98       1.0  0.43912  0.63959  0.10912  1.0000
  S   S32       1.0  0.45103  0.57360  0.26009  1.0000
  C   C99       1.0  0.42754  0.62396  0.33483  1.0000
  H   H123      1.0  0.47954  0.52900  0.26614  1.0000
  H   H124      1.0  0.00654  0.63509  0.36129  1.0000
  C   C100      1.0  0.41253  0.63972  0.15553  1.0000
  H   H125      1.0  0.16668  0.58565  0.45724  1.0000
  C   C101      1.0  0.03203  0.54611  0.46254  1.0000
  S   S33       1.0  0.07808  0.43967  0.46323  1.0000
  C   C102      1.0  0.05200  0.44388  0.45216  1.0000
  H   H126      1.0  0.22377  0.52911  0.43824  1.0000
  H   H127      1.0  0.19097  0.60008  0.44323  1.0000
  S   S34       1.0  0.44901  0.64325  0.03361  1.0000
  H   H128      1.0  0.00153  0.48137  0.44166  1.0000
  H   H129      1.0  0.43066  0.57087  0.36794  1.0000
  C   C103      1.0  0.18503  0.58691  0.45794  1.0000
  H   H130      1.0  0.40075  0.57374  0.99911  1.0000
  H   H131      1.0  0.33530  0.54662  0.47251  1.0000
  N   N9        1.0  0.10101  0.49238  0.40908  1.0000
  C   C104      1.0  0.12161  0.47678  0.41695  1.0000
  C   C105      1.0  0.11068  0.51122  0.39228  1.0000
  C   C106      1.0  0.08440  0.50183  0.42971  1.0000
  C   C107      1.0  0.08759  0.48117  0.39842  1.0000
  C   C108      1.0  0.09149  0.45721  0.39925  1.0000
  C   C109      1.0  0.06885  0.49421  0.38807  1.0000
  C   C110      1.0  0.07735  0.44716  0.39039  1.0000
  C   C111      1.0  0.05448  0.48393  0.37974  1.0000
  C   C112      1.0  0.05866  0.46044  0.38098  1.0000
  H   H132      1.0  0.13459  0.46864  0.40232  1.0000
  C   C113      1.0  0.14056  0.63914  0.38536  1.0000
  H   H133      1.0  0.11545  0.46325  0.43116  1.0000
  H   H134      1.0  0.12170  0.50519  0.37568  1.0000
  H   H135      1.0  0.12210  0.51898  0.39942  1.0000
  H   H136      1.0  0.09625  0.52548  0.38808  1.0000
  H   H137      1.0  0.07687  0.48814  0.44274  1.0000
  S   S35       1.0  0.30235  0.63429  0.41884  1.0000
  C   C114      1.0  0.43337  0.60131  0.32950  1.0000
  H   H138      1.0  0.46655  0.64921  0.12084  1.0000
  H   H139      1.0  0.19985  0.64292  0.37589  1.0000
  H   H140      1.0  0.49092  0.60340  0.29670  1.0000
  H   H141      1.0  0.27078  0.54426  0.47345  1.0000
  C   C115      1.0  0.48257  0.58760  0.15265  1.0000
  H   H142      1.0  0.44363  0.55570  0.34344  1.0000
  H   H143      1.0  0.11558  0.63810  0.41891  1.0000
  H   H144      1.0  0.41398  0.55329  0.36030  1.0000
  H   H145      1.0  0.48421  0.52367  0.07379  1.0000
  H   H146      1.0  0.40206  0.63985  0.17332  1.0000
  H   H147      1.0  0.03891  0.53663  0.34855  1.0000
  C   C116      1.0  0.47025  0.58413  0.19429  1.0000
  H   H148      1.0  0.17286  0.62865  0.47235  1.0000
  C   C117      1.0  0.19520  0.50108  0.45204  1.0000
  H   H149      1.0  0.49125  0.61961  0.17043  1.0000
  H   H150      1.0  0.48489  0.50223  0.05689  1.0000
  H   H151      1.0  0.00708  0.63542  0.32033  1.0000
  H   H152      1.0  0.18162  0.49059  0.45303  1.0000
  C   C118      1.0  0.44877  0.64501  0.12597  1.0000
  H   H153      1.0  0.45640  0.59978  0.19228  1.0000
  H   H154      1.0  0.41287  0.42363  0.98716  1.0000
  H   H155      1.0  0.99487  0.54050  0.35474  1.0000
  C   C119      1.0  0.40269  0.63477  0.13856  1.0000
  H   H156      1.0  0.05694  0.57070  0.34273  1.0000
  H   H157      1.0  0.47149  0.49927  0.10915  1.0000
  H   H158      1.0  0.44895  0.50948  0.99823  1.0000
  Fe  Fe22      1.0  0.47592  0.61104  0.03269  1.0000
  C   C120      1.0  0.48167  0.56446  0.26036  1.0000
  C   C121      1.0  0.40828  0.55809  0.99178  1.0000
  H   H159      1.0  0.34855  0.62763  0.37816  1.0000
  C   C122      1.0  0.03770  0.57253  0.34487  1.0000
  C   C123      1.0  0.31389  0.64065  0.33384  1.0000
  H   H160      1.0  0.47949  0.64270  0.30591  1.0000
  C   C124      1.0  0.00231  0.57642  0.40629  1.0000
  C   C125      1.0  0.02758  0.55331  0.34815  1.0000
  H   H161      1.0  0.47493  0.58392  0.21100  1.0000
  H   H162      1.0  0.38465  0.63115  0.14347  1.0000
  H   H163      1.0  0.49234  0.50270  0.16458  1.0000
  C   C126      1.0  0.13391  0.63903  0.40947  1.0000
  H   H164      1.0  0.47395  0.55880  0.97893  1.0000
  H   H165      1.0  0.49350  0.46339  0.23873  1.0000
  S   S36       1.0  0.12923  0.46107  0.47838  1.0000
  H   H166      1.0  0.20261  0.46056  0.47736  1.0000
  Fe  Fe23      1.0  0.46073  0.51010  0.87343  1.0000
  S   S37       1.0  0.42214  0.50737  0.88047  1.0000
  S   S38       1.0  0.36233  0.32052  0.59693  1.0000
  Fe  Fe24      1.0  0.43635  0.46980  0.88319  1.0000
  S   S39       1.0  0.43148  0.44483  0.86186  1.0000
  C   C127      1.0  0.99529  0.43864  0.49770  1.0000
  Fe  Fe25      1.0  0.07688  0.48166  0.52863  1.0000
  S   S40       1.0  0.08984  0.44477  0.52411  1.0000
  S   S41       1.0  0.04342  0.48926  0.55723  1.0000
  C   C128      1.0  0.19536  0.56047  0.51253  1.0000
  H   H167      1.0  0.20427  0.43412  0.60505  1.0000
  C   C129      1.0  0.48131  0.56616  0.63650  1.0000
  C   C130      1.0  0.48893  0.52066  0.71008  1.0000
  Fe  Fe26      1.0  0.12715  0.45261  0.51668  1.0000
  S   S42       1.0  0.16185  0.43242  0.52549  1.0000
  H   H168      1.0  0.48709  0.49443  0.81958  1.0000
  S   S43       1.0  0.11401  0.48831  0.52453  1.0000
  Fe  Fe27      1.0  0.41468  0.46734  0.67596  1.0000
  S   S44       1.0  0.44921  0.44366  0.66361  1.0000
  S   S45       1.0  0.39708  0.48577  0.64655  1.0000
  Fe  Fe28      1.0  0.42032  0.45736  0.72700  1.0000
  S   S46       1.0  0.45431  0.43172  0.71785  1.0000
  S   S47       1.0  0.40682  0.47217  0.76152  1.0000
  Fe  Fe29      1.0  0.46444  0.45782  0.68697  1.0000
  H   H169      1.0  0.40751  0.42161  0.66043  1.0000
  Fe  Fe30      1.0  0.43569  0.41992  0.69518  1.0000
  S   S48       1.0  0.43633  0.38318  0.69189  1.0000
  S   S49       1.0  0.43123  0.48385  0.69639  1.0000
  S   S50       1.0  0.40034  0.44325  0.70720  1.0000
  H   H170      1.0  0.47013  0.49435  0.70982  1.0000
  H   H171      1.0  0.47022  0.63398  0.82671  1.0000
  Fe  Fe31      1.0  0.26176  0.47168  0.56248  1.0000
  S   S51       1.0  0.28706  0.46766  0.52765  1.0000
  S   S52       1.0  0.22157  0.48303  0.56595  1.0000
  Fe  Fe32      1.0  0.30304  0.46096  0.58769  1.0000
  S   S53       1.0  0.33135  0.45634  0.55468  1.0000
  S   S54       1.0  0.31195  0.45330  0.62310  1.0000
  Fe  Fe33      1.0  0.30899  0.48718  0.53875  1.0000
  S   S55       1.0  0.32753  0.51339  0.51309  1.0000
  Fe  Fe34      1.0  0.30679  0.43735  0.54686  1.0000
  S   S56       1.0  0.32169  0.40522  0.53104  1.0000
  S   S57       1.0  0.28238  0.49360  0.57249  1.0000
  S   S58       1.0  0.27971  0.43959  0.58097  1.0000
  H   H172      1.0  0.35454  0.53090  0.64426  1.0000
  C   C131      1.0  0.30907  0.53872  0.50425  1.0000
  C   C132      1.0  0.28637  0.54606  0.51828  1.0000
  C   C133      1.0  0.27270  0.56721  0.51175  1.0000
  N   N10       1.0  0.18546  0.59263  0.48062  1.0000
  C   C134      1.0  0.45710  0.57449  0.63468  1.0000
  C   C135      1.0  0.00177  0.62529  0.50447  1.0000
  H   H173      1.0  0.27957  0.53573  0.53440  1.0000
  H   H174      1.0  0.02621  0.51144  0.49596  1.0000
  C   C136      1.0  0.02147  0.52830  0.50202  1.0000
  H   H175      1.0  0.46467  0.55989  0.91515  1.0000
  C   C137      1.0  0.35097  0.34406  0.57871  1.0000
  C   C138      1.0  0.36026  0.34594  0.55462  1.0000
  C   C139      1.0  0.35107  0.36476  0.54008  1.0000
  C   C140      1.0  0.33330  0.38217  0.54965  1.0000
  C   C141      1.0  0.32449  0.38062  0.57383  1.0000
  C   C142      1.0  0.33295  0.36132  0.58833  1.0000
  H   H176      1.0  0.37430  0.33272  0.54710  1.0000
  H   H177      1.0  0.35802  0.36597  0.52138  1.0000
  H   H178      1.0  0.31095  0.39410  0.58134  1.0000
  H   H179      1.0  0.32590  0.36000  0.60700  1.0000
  C   C143      1.0  0.44128  0.37272  0.66501  1.0000
  C   C144      1.0  0.43524  0.35171  0.66509  1.0000
  C   C145      1.0  0.43056  0.59893  0.90909  1.0000
  C   C146      1.0  0.45898  0.37400  0.62332  1.0000
  C   C147      1.0  0.45259  0.38409  0.64385  1.0000
  H   H180      1.0  0.27211  0.38375  0.58066  1.0000
  H   H181      1.0  0.47480  0.61308  0.63674  1.0000
  H   H182      1.0  0.45722  0.40026  0.64345  1.0000
  C   C148      1.0  0.37511  0.47420  0.63987  1.0000
  C   C149      1.0  0.37337  0.47685  0.61665  1.0000
  C   C150      1.0  0.35462  0.46974  0.61115  1.0000
  C   C151      1.0  0.33716  0.46039  0.62889  1.0000
  C   C152      1.0  0.33927  0.45721  0.65200  1.0000
  C   C153      1.0  0.35818  0.46403  0.65748  1.0000
  H   H183      1.0  0.38639  0.48473  0.60296  1.0000
  H   H184      1.0  0.35332  0.47186  0.59331  1.0000
  H   H185      1.0  0.32594  0.44986  0.66582  1.0000
  H   H186      1.0  0.35923  0.46204  0.67543  1.0000
  H   H187      1.0  0.16934  0.48955  0.49407  1.0000
  C   C154      1.0  0.08739  0.58962  0.48100  1.0000
  C   C155      1.0  0.39457  0.41364  0.65665  1.0000
  C   C156      1.0  0.17834  0.44686  0.53645  1.0000
  C   C157      1.0  0.20352  0.44059  0.53188  1.0000
  C   C158      1.0  0.21707  0.45170  0.54061  1.0000
  C   C159      1.0  0.20541  0.46876  0.55448  1.0000
  C   C160      1.0  0.18024  0.47484  0.55925  1.0000
  C   C161      1.0  0.16676  0.46407  0.55015  1.0000
  H   H188      1.0  0.21249  0.42720  0.52142  1.0000
  H   H189      1.0  0.23646  0.44702  0.53680  1.0000
  H   H190      1.0  0.17108  0.48766  0.57040  1.0000
  H   H191      1.0  0.14734  0.46856  0.55444  1.0000
  H   H192      1.0  0.00746  0.46704  0.54971  1.0000
  C   C162      1.0  0.36093  0.39345  0.64716  1.0000
  C   C163      1.0  0.39733  0.40927  0.63406  1.0000
  H   H193      1.0  0.36793  0.36266  0.61750  1.0000
  C   C164      1.0  0.99898  0.56115  0.55671  1.0000
  C   C165      1.0  0.02720  0.51721  0.55832  1.0000
  Fe  Fe35      1.0  0.42318  0.50404  0.91823  1.0000
  H   H194      1.0  0.46230  0.52427  0.76942  1.0000
  C   C166      1.0  0.42578  0.45291  0.83346  1.0000
  C   C167      1.0  0.41480  0.47499  0.82611  1.0000
  C   C168      1.0  0.40910  0.48044  0.80414  1.0000
  C   C169      1.0  0.41492  0.46416  0.78885  1.0000
  C   C170      1.0  0.42661  0.44225  0.79588  1.0000
  C   C171      1.0  0.43171  0.43662  0.81816  1.0000
  H   H195      1.0  0.40986  0.48768  0.83769  1.0000
  H   H196      1.0  0.39991  0.49738  0.79900  1.0000
  H   H197      1.0  0.43108  0.42948  0.78444  1.0000
  H   H198      1.0  0.44007  0.41946  0.82364  1.0000
  H   H199      1.0  0.31914  0.51293  0.66274  1.0000
  C   C172      1.0  0.44103  0.34188  0.64441  1.0000
  C   C173      1.0  0.44774  0.53665  0.64592  1.0000
  H   H200      1.0  0.44545  0.50875  0.79458  1.0000
  C   C174      1.0  0.48401  0.59908  0.79985  1.0000
  H   H201      1.0  0.45836  0.60554  0.86461  1.0000
  H   H202      1.0  0.49229  0.41664  0.63467  1.0000
  N   N11       1.0  0.44277  0.58206  0.89295  1.0000
  C   C175      1.0  0.42740  0.56501  0.89634  1.0000
  C   C176      1.0  0.44733  0.59215  0.86803  1.0000
  C   C177      1.0  0.46640  0.57026  0.89770  1.0000
  H   H203      1.0  0.40904  0.57313  0.89403  1.0000
  H   H204      1.0  0.16686  0.39892  0.57575  1.0000
  H   H205      1.0  0.42505  0.55533  0.91416  1.0000
  H   H206      1.0  0.46174  0.46437  0.96976  1.0000
  H   H207      1.0  0.01314  0.61340  0.51545  1.0000
  C   C178      1.0  0.24901  0.51986  0.49306  1.0000
  H   H208      1.0  0.43406  0.50116  0.96661  1.0000
  H   H209      1.0  0.45746  0.57920  0.85649  1.0000
  H   H210      1.0  0.41265  0.60271  0.96769  1.0000
  C   C179      1.0  0.23163  0.50758  0.49312  1.0000
  N   N12       1.0  0.25152  0.38117  0.55668  1.0000
  C   C180      1.0  0.24972  0.36281  0.54465  1.0000
  C   C181      1.0  0.26336  0.39802  0.53879  1.0000
  C   C182      1.0  0.26730  0.37085  0.57295  1.0000
  C   C183      1.0  0.22788  0.39275  0.56939  1.0000
  H   H211      1.0  0.25850  0.35902  0.58751  1.0000
  C   C184      1.0  0.20558  0.38916  0.56709  1.0000
  C   C185      1.0  0.18362  0.40123  0.57847  1.0000
  H   H212      1.0  0.24004  0.36963  0.53052  1.0000
  H   H213      1.0  0.48826  0.56547  0.75942  1.0000
  H   H214      1.0  0.02699  0.56997  0.49796  1.0000
  H   H215      1.0  0.26784  0.35384  0.53608  1.0000
  H   H216      1.0  0.24038  0.34982  0.55712  1.0000
  H   H217      1.0  0.45034  0.59225  0.62986  1.0000
  H   H218      1.0  0.16613  0.42701  0.60048  1.0000
  H   H219      1.0  0.49168  0.46287  0.77082  1.0000
  H   H220      1.0  0.47640  0.55827  0.88500  1.0000
  H   H221      1.0  0.28488  0.36129  0.56396  1.0000
  H   H222      1.0  0.03253  0.57275  0.54149  1.0000
  C   C186      1.0  0.46310  0.51425  0.78682  1.0000
  Fe  Fe36      1.0  0.09047  0.45746  0.48635  1.0000
  C   C187      1.0  0.46759  0.62367  0.94278  1.0000
  H   H223      1.0  0.03802  0.53098  0.50586  1.0000
  N   N13       1.0  0.46775  0.39896  0.91983  1.0000
  C   C188      1.0  0.48469  0.41337  0.90454  1.0000
  C   C189      1.0  0.47974  0.37482  0.91985  1.0000
  C   C190      1.0  0.44684  0.40242  0.90929  1.0000
  C   C191      1.0  0.46111  0.40464  0.94388  1.0000
  H   H224      1.0  0.26733  0.41136  0.54662  1.0000
  C   C192      1.0  0.47924  0.40312  0.95590  1.0000
  H   H225      1.0  0.49043  0.58549  0.66822  1.0000
  H   H226      1.0  0.47715  0.59905  0.81837  1.0000
  H   H227      1.0  0.47108  0.56839  0.80139  1.0000
  H   H228      1.0  0.49235  0.56322  0.94983  1.0000
  H   H229      1.0  0.48859  0.41112  0.88589  1.0000
  H   H230      1.0  0.47707  0.43157  0.90579  1.0000
  H   H231      1.0  0.46783  0.36347  0.93173  1.0000
  H   H232      1.0  0.48450  0.36979  0.90211  1.0000
  C   C193      1.0  0.48484  0.48291  0.80846  1.0000
  H   H233      1.0  0.43724  0.42041  0.90830  1.0000
  H   H234      1.0  0.45242  0.39863  0.89100  1.0000
  H   H235      1.0  0.43380  0.39129  0.91914  1.0000
  C   C194      1.0  0.40841  0.53241  0.96522  1.0000
  C   C195      1.0  0.49391  0.32905  0.49546  1.0000
  C   C196      1.0  0.49010  0.60517  0.62350  1.0000
  C   C197      1.0  0.15588  0.56810  0.50441  1.0000
  H   H236      1.0  0.17371  0.51800  0.49194  1.0000
  C   C198      1.0  0.35845  0.39779  0.66972  1.0000
  C   C199      1.0  0.37540  0.40766  0.67449  1.0000
  H   H237      1.0  0.34327  0.39361  0.68356  1.0000
  H   H238      1.0  0.14942  0.61286  0.48412  1.0000
  H   H239      1.0  0.37361  0.41091  0.69199  1.0000
  C   C200      1.0  0.40797  0.63686  0.91711  1.0000
  H   H240      1.0  0.13126  0.54676  0.52577  1.0000
  H   H241      1.0  0.28090  0.38994  0.52825  1.0000
  H   H242      1.0  0.46453  0.52586  0.79827  1.0000
  C   C201      1.0  0.22667  0.40916  0.58362  1.0000
  H   H243      1.0  0.20111  0.53299  0.54021  1.0000
  H   H244      1.0  0.24275  0.41352  0.58550  1.0000
  C   C202      1.0  0.16539  0.53820  0.53505  1.0000
  H   H245      1.0  0.18766  0.49528  0.51055  1.0000
  H   H246      1.0  0.99574  0.44196  0.56520  1.0000
  H   H247      1.0  0.22626  0.49585  0.50864  1.0000
  H   H248      1.0  0.47662  0.50996  0.65326  1.0000
  H   H249      1.0  0.46789  0.61164  0.95818  1.0000
  H   H250      1.0  0.46882  0.38245  0.60732  1.0000
  S   S59       1.0  0.47586  0.53513  0.84391  1.0000
  H   H251      1.0  0.47807  0.58262  0.89648  1.0000
  H   H252      1.0  0.20448  0.37764  0.55610  1.0000
  C   C203      1.0  0.00231  0.52047  0.56783  1.0000
  H   H253      1.0  0.43692  0.32540  0.64490  1.0000
  H   H254      1.0  0.47586  0.54027  0.95896  1.0000
  S   S60       1.0  0.07611  0.49372  0.49114  1.0000
  C   C204      1.0  0.32331  0.51846  0.64411  1.0000
  C   C205      1.0  0.42697  0.59239  0.93353  1.0000
  S   S61       1.0  0.42538  0.33270  0.56135  1.0000
  Fe  Fe37      1.0  0.47117  0.47232  0.91266  1.0000
  S   S62       1.0  0.46088  0.51002  0.91055  1.0000
  C   C206      1.0  0.36223  0.40576  0.59600  1.0000
  C   C207      1.0  0.41458  0.60777  0.94913  1.0000
  C   C208      1.0  0.42695  0.51711  0.97341  1.0000
  H   H255      1.0  0.48202  0.40060  0.67828  1.0000
  H   H256      1.0  0.35877  0.51693  0.54028  1.0000
  H   H257      1.0  0.34720  0.38598  0.64426  1.0000
  H   H258      1.0  0.42648  0.34275  0.68134  1.0000
  C   C209      1.0  0.45351  0.35273  0.62350  1.0000
  H   H259      1.0  0.38684  0.36362  0.58899  1.0000
  H   H260      1.0  0.49205  0.36114  0.67912  1.0000
  S   S63       1.0  0.46531  0.33924  0.59803  1.0000
  H   H261      1.0  0.29468  0.50535  0.63857  1.0000
  S   S64       1.0  0.43334  0.46585  0.92220  1.0000
  H   H262      1.0  0.36382  0.40261  0.57798  1.0000
  C   C210      1.0  0.38070  0.39868  0.62869  1.0000
  H   H263      1.0  0.41275  0.41421  0.62124  1.0000
  H   H264      1.0  0.09326  0.53339  0.50140  1.0000
  H   H265      1.0  0.43495  0.52533  0.64962  1.0000
  H   H266      1.0  0.05749  0.53376  0.54207  1.0000
  C   C211      1.0  0.18316  0.41716  0.59235  1.0000
  C   C212      1.0  0.20464  0.42109  0.59495  1.0000
  C   C213      1.0  0.42063  0.62174  0.90130  1.0000
  H   H267      1.0  0.42254  0.62842  0.88312  1.0000
  H   H268      1.0  0.36810  0.50444  0.56671  1.0000
  H   H269      1.0  0.25192  0.40669  0.52653  1.0000
  H   H270      1.0  0.34505  0.40092  0.60679  1.0000
  H   H271      1.0  0.06611  0.56985  0.50897  1.0000
  C   C214      1.0  0.47845  0.46225  0.97490  1.0000
  N   N14       1.0  0.38331  0.39315  0.60516  1.0000
  H   H272      1.0  0.43026  0.59935  0.86246  1.0000
  C   C215      1.0  0.35252  0.51414  0.55963  1.0000
  H   H273      1.0  0.33886  0.50306  0.56385  1.0000
  H   H274      1.0  0.36019  0.42438  0.59566  1.0000
  C   C216      1.0  0.43687  0.41186  0.95598  1.0000
  H   H275      1.0  0.25657  0.51734  0.50813  1.0000
  S   S65       1.0  0.47506  0.47294  0.87433  1.0000
  C   C217      1.0  0.47754  0.47845  0.77249  1.0000
  H   H276      1.0  0.42195  0.38955  0.59364  1.0000
  H   H277      1.0  0.39997  0.35838  0.61366  1.0000
  H   H278      1.0  0.32640  0.55294  0.54066  1.0000
  C   C218      1.0  0.38453  0.36844  0.60646  1.0000
  H   H279      1.0  0.40526  0.41751  0.58531  1.0000
  H   H280      1.0  0.40693  0.39423  0.57063  1.0000
  H   H281      1.0  0.47429  0.52898  0.72268  1.0000
  C   C219      1.0  0.48650  0.50105  0.70271  1.0000
  C   C220      1.0  0.40535  0.39895  0.58802  1.0000
  H   H282      1.0  0.22241  0.46649  0.49223  1.0000
  C   C221      1.0  0.02410  0.55811  0.54860  1.0000
  H   H283      1.0  0.36483  0.55501  0.54115  1.0000
  H   H284      1.0  0.30808  0.53640  0.56216  1.0000
  N   N15       1.0  0.34257  0.53583  0.56923  1.0000
  C   C222      1.0  0.32130  0.54754  0.55985  1.0000
  C   C223      1.0  0.34944  0.53483  0.60944  1.0000
  H   H285      1.0  0.16008  0.52477  0.54887  1.0000
  H   H286      1.0  0.01043  0.44363  0.52395  1.0000
  C   C224      1.0  0.30951  0.51429  0.63048  1.0000
  C   C225      1.0  0.36107  0.55046  0.56046  1.0000
  H   H287      1.0  0.37865  0.54166  0.56432  1.0000
  C   C226      1.0  0.17906  0.57380  0.49926  1.0000
  C   C227      1.0  0.14916  0.55066  0.52212  1.0000
  C   C228      1.0  0.47994  0.63198  0.90070  1.0000
  H   H288      1.0  0.36554  0.54195  0.60253  1.0000
  H   H289      1.0  0.31182  0.56287  0.56828  1.0000
  H   H290      1.0  0.00754  0.52765  0.51870  1.0000
  C   C229      1.0  0.34322  0.52869  0.63362  1.0000
  H   H291      1.0  0.42183  0.41375  0.94829  1.0000
  H   H292      1.0  0.16633  0.61787  0.50287  1.0000
  C   C230      1.0  0.33566  0.53089  0.59499  1.0000
  C   C231      1.0  0.49043  0.57949  0.76681  1.0000
  C   C232      1.0  0.40496  0.62988  0.94096  1.0000
  H   H293      1.0  0.21132  0.60204  0.49489  1.0000
  C   C233      1.0  0.31563  0.52024  0.60631  1.0000
  H   H294      1.0  0.35505  0.56661  0.56809  1.0000
  H   H295      1.0  0.30507  0.51552  0.59655  1.0000
  H   H296      1.0  0.46368  0.65148  0.80058  1.0000
  S   S66       1.0  0.39670  0.52608  0.94357  1.0000
  H   H297      1.0  0.46048  0.47262  0.78212  1.0000
  H   H298      1.0  0.43524  0.55245  0.88389  1.0000
  C   C234      1.0  0.03820  0.53611  0.54901  1.0000
  C   C235      1.0  0.48070  0.58125  0.79033  1.0000
  H   H299      1.0  0.25539  0.57311  0.52291  1.0000
  C   C236      1.0  0.47752  0.64544  0.81096  1.0000
  C   C237      1.0  0.47125  0.52801  0.64795  1.0000
  H   H300      1.0  0.43348  0.57526  0.94083  1.0000
  H   H301      1.0  0.39581  0.64184  0.95316  1.0000
  Fe  Fe38      1.0  0.11462  0.49617  0.48661  1.0000
  H   H302      1.0  0.02648  0.64649  0.52404  1.0000
  H   H303      1.0  0.42225  0.56648  0.63805  1.0000
  C   C238      1.0  0.44067  0.55985  0.63936  1.0000
  C   C239      1.0  0.18848  0.54294  0.53015  1.0000
  H   H304      1.0  0.46817  0.47615  0.81791  1.0000
  H   H305      1.0  0.48905  0.32814  0.66446  1.0000
  H   H306      1.0  0.21348  0.56330  0.50974  1.0000
  C   C240      1.0  0.28139  0.58078  0.49089  1.0000
  N   N16       1.0  0.48338  0.49457  0.78473  1.0000
  H   H307      1.0  0.47495  0.48645  0.75488  1.0000
  C   C241      1.0  0.48661  0.55000  0.96457  1.0000
  C   C242      1.0  0.47354  0.40879  0.97840  1.0000
  H   H308      1.0  0.38429  0.56460  0.96869  1.0000
  S   S67       1.0  0.06426  0.61309  0.48025  1.0000
  C   C243      1.0  0.08254  0.56961  0.49546  1.0000
  C   C244      1.0  0.16772  0.61382  0.48526  1.0000
  C   C245      1.0  0.48778  0.54248  0.64348  1.0000
  C   C246      1.0  0.39887  0.55280  0.97469  1.0000
  H   H309      1.0  0.48635  0.33168  0.51345  1.0000
  C   C247      1.0  0.45292  0.64519  0.94398  1.0000
  N   N17       1.0  0.99476  0.64819  0.51158  1.0000
  H   H310      1.0  0.01237  0.62570  0.48608  1.0000
  H   H311      1.0  0.48453  0.60678  0.60695  1.0000
  C   C248      1.0  0.18292  0.49992  0.49342  1.0000
  C   C249      1.0  0.48170  0.61737  0.92134  1.0000
  C   C250      1.0  0.09779  0.54896  0.49094  1.0000
  H   H312      1.0  0.14266  0.57718  0.49481  1.0000
  S   S68       1.0  0.26408  0.60735  0.48360  1.0000
  N   N18       1.0  0.01312  0.54668  0.48447  1.0000
  H   H313      1.0  0.01210  0.42896  0.48886  1.0000
  C   C251      1.0  0.31773  0.55227  0.48339  1.0000
  C   C252      1.0  0.01040  0.56847  0.49324  1.0000
  H   H314      1.0  0.00690  0.58350  0.48022  1.0000
  H   H315      1.0  0.49335  0.60091  0.92073  1.0000
  H   H316      1.0  0.99530  0.57011  0.50899  1.0000
  C   C253      1.0  0.43140  0.41759  0.97847  1.0000
  H   H317      1.0  0.18996  0.70748  0.41983  1.0000
  H   H318      1.0  0.31282  0.73868  0.38192  1.0000
  H   H319      1.0  0.47203  0.69618  0.30503  1.0000
  S   S69       1.0  0.43275  0.92875  0.38431  1.0000
  H   H320      1.0  0.26624  0.67431  0.31252  1.0000
  Fe  Fe39      1.0  0.39435  0.75396  0.40272  1.0000
  S   S70       1.0  0.42787  0.74095  0.37696  1.0000
  S   S71       1.0  0.37447  0.72709  0.42654  1.0000
  Fe  Fe40      1.0  0.40346  0.80371  0.38941  1.0000
  S   S72       1.0  0.43667  0.79388  0.36149  1.0000
  S   S73       1.0  0.39166  0.83723  0.40471  1.0000
  Fe  Fe41      1.0  0.41563  0.77125  0.35261  1.0000
  S   S74       1.0  0.41136  0.76600  0.31759  1.0000
  Fe  Fe42      1.0  0.44541  0.76443  0.38852  1.0000
  S   S75       1.0  0.48676  0.94770  0.39438  1.0000
  S   S76       1.0  0.38123  0.78382  0.37826  1.0000
  S   S77       1.0  0.41297  0.77467  0.41648  1.0000
  N   N19       1.0  0.43101  0.71575  0.46359  1.0000
  C   C254      1.0  0.43328  0.75980  0.22757  1.0000
  Fe  Fe43      1.0  0.27709  0.66675  0.41101  1.0000
  H   H321      1.0  0.36584  0.98181  0.39394  1.0000
  S   S78       1.0  0.28793  0.70127  0.39854  1.0000
  S   S79       1.0  0.48142  0.96604  0.44383  1.0000
  H   H322      1.0  0.33194  0.69170  0.33081  1.0000
  H   H323      1.0  0.47131  0.82748  0.41556  1.0000
  C   C255      1.0  0.35522  0.89952  0.40403  1.0000
  H   H324      1.0  0.17817  0.72398  0.37150  1.0000
  C   C256      1.0  0.49067  0.68565  0.47804  1.0000
  S   S80       1.0  0.46193  0.67779  0.26911  1.0000
  H   H325      1.0  0.39338  0.71321  0.33864  1.0000
  C   C257      1.0  0.49333  0.87616  0.39570  1.0000
  H   H326      1.0  0.40236  0.94103  0.43075  1.0000
  H   H327      1.0  0.44993  0.70203  0.43143  1.0000
  H   H328      1.0  0.21070  0.73812  0.40949  1.0000
  C   C258      1.0  0.38517  0.95045  0.44046  1.0000
  Fe  Fe44      1.0  0.48767  0.93255  0.43107  1.0000
  H   H329      1.0  0.45520  0.87389  0.43013  1.0000
  H   H330      1.0  0.39595  0.96742  0.39574  1.0000
  C   C259      1.0  0.46525  0.77687  0.43544  1.0000
  N   N20       1.0  0.47217  0.71212  0.19335  1.0000
  C   C260      1.0  0.44097  0.74425  0.21157  1.0000
  C   C261      1.0  0.42471  0.74052  0.30554  1.0000
  C   C262      1.0  0.44490  0.72614  0.31174  1.0000
  C   C263      1.0  0.45593  0.70676  0.30070  1.0000
  C   C264      1.0  0.44650  0.70124  0.28387  1.0000
  C   C265      1.0  0.42582  0.71516  0.27826  1.0000
  C   C266      1.0  0.41519  0.73488  0.28882  1.0000
  H   H331      1.0  0.45251  0.73037  0.32445  1.0000
  C   C267      1.0  0.46598  0.78131  0.45719  1.0000
  H   H332      1.0  0.41862  0.71129  0.26506  1.0000
  H   H333      1.0  0.39972  0.74601  0.28375  1.0000
  C   C268      1.0  0.35052  0.71996  0.41852  1.0000
  C   C269      1.0  0.34155  0.70027  0.43002  1.0000
  C   C270      1.0  0.32266  0.69409  0.42382  1.0000
  C   C271      1.0  0.31221  0.70790  0.40643  1.0000
  C   C272      1.0  0.32099  0.72773  0.39516  1.0000
  C   C273      1.0  0.34023  0.73361  0.40098  1.0000
  H   H334      1.0  0.34930  0.68968  0.44371  1.0000
  H   H335      1.0  0.31595  0.67885  0.43273  1.0000
  H   H336      1.0  0.34678  0.74895  0.39219  1.0000
  Fe  Fe45      1.0  0.44227  0.96452  0.45197  1.0000
  H   H337      1.0  0.21556  0.68668  0.40907  1.0000
  C   C274      1.0  0.37609  0.68035  0.37526  1.0000
  C   C275      1.0  0.42524  0.90119  0.39076  1.0000
  C   C276      1.0  0.41560  0.89171  0.41354  1.0000
  C   C277      1.0  0.40672  0.87133  0.41767  1.0000
  C   C278      1.0  0.40774  0.85990  0.39917  1.0000
  C   C279      1.0  0.41847  0.86878  0.37650  1.0000
  C   C280      1.0  0.42690  0.88942  0.37232  1.0000
  H   H338      1.0  0.41385  0.90060  0.42793  1.0000
  H   H339      1.0  0.39807  0.86486  0.43522  1.0000
  H   H340      1.0  0.41901  0.86044  0.36203  1.0000
  H   H341      1.0  0.43408  0.89664  0.35460  1.0000
  H   H342      1.0  0.40054  0.70108  0.46482  1.0000
  H   H343      1.0  0.39835  0.68245  0.31507  1.0000
  H   H344      1.0  0.45036  0.72800  0.16875  1.0000
  C   C281      1.0  0.41693  0.69724  0.47192  1.0000
  H   H345      1.0  0.46143  0.69843  0.16795  1.0000
  C   C282      1.0  0.22278  0.73007  0.39436  1.0000
  H   H346      1.0  0.23817  0.71884  0.40081  1.0000
  C   C283      1.0  0.44732  0.76028  0.24268  1.0000
  C   C284      1.0  0.47702  0.72963  0.22594  1.0000
  N   N21       1.0  0.36482  0.69730  0.33666  1.0000
  C   C285      1.0  0.33934  0.70504  0.33521  1.0000
  C   C286      1.0  0.37395  0.71747  0.33851  1.0000
  C   C287      1.0  0.37909  0.68866  0.31466  1.0000
  C   C288      1.0  0.36631  0.67894  0.35654  1.0000
  S   S81       1.0  0.48183  0.75390  0.39726  1.0000
  C   C289      1.0  0.23124  0.68026  0.33596  1.0000
  C   C290      1.0  0.35257  0.92157  0.43424  1.0000
  H   H347      1.0  0.19851  0.68848  0.36110  1.0000
  C   C291      1.0  0.36563  0.91585  0.38733  1.0000
  H   H348      1.0  0.32767  0.70992  0.35213  1.0000
  H   H349      1.0  0.33719  0.71994  0.32151  1.0000
  C   C292      1.0  0.47028  0.69091  0.46889  1.0000
  H   H350      1.0  0.36367  0.72514  0.35447  1.0000
  H   H351      1.0  0.37226  0.73118  0.32358  1.0000
  C   C293      1.0  0.36963  0.93511  0.39391  1.0000
  C   C294      1.0  0.21680  0.69136  0.35460  1.0000
  H   H352      1.0  0.37849  0.70210  0.29932  1.0000
  H   H353      1.0  0.47970  0.87328  0.44275  1.0000
  H   H354      1.0  0.38329  0.69488  0.37603  1.0000
  S   S82       1.0  0.44831  0.65270  0.16968  1.0000
  H   H355      1.0  0.37229  0.67449  0.31101  1.0000
  C   C295      1.0  0.26436  0.69724  0.33621  1.0000
  S   S83       1.0  0.44909  0.92894  0.44322  1.0000
  H   H356      1.0  0.18851  0.69089  0.39928  1.0000
  H   H357      1.0  0.48264  0.67568  0.19388  1.0000
  C   C296      1.0  0.43906  0.71793  0.43784  1.0000
  C   C297      1.0  0.25499  0.68317  0.32679  1.0000
  H   H358      1.0  0.17775  0.74222  0.39147  1.0000
  H   H359      1.0  0.25885  0.71842  0.36173  1.0000
  Fe  Fe46      1.0  0.47689  0.98133  0.40802  1.0000
  C   C298      1.0  0.32303  0.65342  0.31259  1.0000
  H   H360      1.0  0.47959  0.74514  0.25422  1.0000
  H   H361      1.0  0.28292  0.69926  0.32924  1.0000
  S   S84       1.0  0.41536  0.67501  0.23172  1.0000
  H   H362      1.0  0.22966  0.74400  0.38121  1.0000
  H   H363      1.0  0.49401  0.68651  0.21328  1.0000
  C   C299      1.0  0.18969  0.73290  0.37715  1.0000
  H   H364      1.0  0.43747  0.70722  0.19166  1.0000
  H   H365      1.0  0.45086  0.78611  0.42749  1.0000
  H   H366      1.0  0.41615  0.77138  0.22856  1.0000
  C   C300      1.0  0.25014  0.70831  0.35496  1.0000
  H   H367      1.0  0.45022  0.73125  0.43103  1.0000
  C   C301      1.0  0.45222  0.71037  0.47387  1.0000
  C   C302      1.0  0.22586  0.70559  0.36484  1.0000
  H   H368      1.0  0.19618  0.74565  0.36220  1.0000
  C   C303      1.0  0.47189  0.86309  0.43425  1.0000
  Fe  Fe47      1.0  0.44761  0.94514  0.40693  1.0000
  H   H369      1.0  0.45177  0.79354  0.46610  1.0000
  H   H370      1.0  0.22403  0.66917  0.32872  1.0000
  C   C304      1.0  0.36321  0.93856  0.41768  1.0000
  H   H371      1.0  0.37866  0.94652  0.38009  1.0000
  N   N22       1.0  0.36781  0.95837  0.42546  1.0000
  S   S85       1.0  0.43708  0.98076  0.41655  1.0000
  C   C305      1.0  0.45453  0.71157  0.17992  1.0000
  S   S86       1.0  0.35572  0.66123  0.27152  1.0000
  H   H372      1.0  0.46649  0.84847  0.44725  1.0000
  C   C306      1.0  0.41449  0.73726  0.46952  1.0000
  C   C307      1.0  0.20064  0.69984  0.40396  1.0000
  C   C308      1.0  0.46316  0.72858  0.21032  1.0000
  H   H373      1.0  0.37155  0.91308  0.36923  1.0000
  H   H374      1.0  0.44101  0.77196  0.25549  1.0000
  C   C309      1.0  0.37801  0.97506  0.40597  1.0000
  H   H375      1.0  0.35306  0.88418  0.39890  1.0000
  C   C310      1.0  0.34865  0.90239  0.42743  1.0000
  N   N23       1.0  0.21020  0.71698  0.38472  1.0000
  C   C311      1.0  0.48518  0.77027  0.46727  1.0000
  H   H376      1.0  0.01145  0.67082  0.46739  1.0000
  S   S87       1.0  0.26307  0.65452  0.38533  1.0000
  H   H377      1.0  0.42909  0.74473  0.20056  1.0000
  H   H378      1.0  0.42746  0.68083  0.46640  1.0000
  H   H379      1.0  0.31417  0.67065  0.30820  1.0000
  H   H380      1.0  0.42358  0.72267  0.42948  1.0000
  C   C312      1.0  0.48335  0.76089  0.42385  1.0000
  H   H381      1.0  0.46279  0.85157  0.39597  1.0000
  H   H382      1.0  0.38281  0.66496  0.40872  1.0000
  C   C313      1.0  0.35721  0.65902  0.35785  1.0000
  H   H383      1.0  0.46296  0.68485  0.22023  1.0000
  Fe  Fe48      1.0  0.44221  0.65940  0.25324  1.0000
  H   H384      1.0  0.46894  0.67978  0.45760  1.0000
  C   C314      1.0  0.37599  0.66311  0.39430  1.0000
  H   H385      1.0  0.47657  0.88519  0.39018  1.0000
  H   H386      1.0  0.39897  0.74100  0.46116  1.0000
  N   N24       1.0  0.48933  0.85562  0.41302  1.0000
  H   H387      1.0  0.43926  0.65597  0.33005  1.0000
  C   C315      1.0  0.46909  0.74517  0.24192  1.0000
  S   S88       1.0  0.24669  0.65735  0.44051  1.0000
  C   C316      1.0  0.47828  0.68884  0.20563  1.0000
  H   H388      1.0  0.33109  0.97573  0.42878  1.0000
  H   H389      1.0  0.34973  0.65669  0.34419  1.0000
  C   C317      1.0  0.34504  0.97058  0.43908  1.0000
  C   C318      1.0  0.47846  0.84148  0.40276  1.0000
  H   H390      1.0  0.42390  0.75201  0.46327  1.0000
  H   H391      1.0  0.38944  0.96483  0.44653  1.0000
  H   H392      1.0  0.33752  0.96011  0.45556  1.0000
  H   H393      1.0  0.34111  0.88930  0.44036  1.0000
  H   H394      1.0  0.34768  0.92272  0.45265  1.0000
  H   H395      1.0  0.37837  0.93889  0.45635  1.0000
  H   H396      1.0  0.49043  0.73562  0.16710  1.0000
  C   C319      1.0  0.49417  0.71809  0.17646  1.0000
  H   H397      1.0  0.49106  0.66176  0.97964  1.0000
  H   H398      1.0  0.49183  0.83373  0.38806  1.0000
  H   H399      1.0  0.49396  0.71818  0.22624  1.0000
  H   H400      1.0  0.01287  0.67463  0.51305  1.0000
  H   H401      1.0  0.48527  0.83789  0.48551  1.0000
  C   C320      1.0  0.47592  0.71829  0.49831  1.0000
  C   C321      1.0  0.42515  0.96457  0.57386  1.0000
  H   H402      1.0  0.03070  0.65437  0.49385  1.0000
  C   C322      1.0  0.49179  0.83418  0.50177  1.0000
  H   H403      1.0  0.47446  0.88855  0.59078  1.0000
  C   C323      1.0  0.48772  0.89761  0.59342  1.0000
  H   H404      1.0  0.40665  0.73654  0.48860  1.0000
  H   H405      1.0  0.40887  0.97713  0.57340  1.0000
  H   H406      1.0  0.46358  0.93872  0.49315  1.0000
  C   C324      1.0  0.49351  0.69935  0.49267  1.0000
  C   C325      1.0  0.43619  0.95252  0.55515  1.0000
  C   C326      1.0  0.45563  0.72392  0.48900  1.0000
  H   H407      1.0  0.44011  0.67651  0.92390  1.0000
  C   C327      1.0  0.46957  0.88112  0.50124  1.0000
  H   H408      1.0  0.42705  0.97069  0.60715  1.0000
  C   C328      1.0  0.45770  0.93695  0.55524  1.0000
  H   H409      1.0  0.42843  0.95571  0.54015  1.0000
  C   C329      1.0  0.45681  0.94517  0.59320  1.0000
  C   C330      1.0  0.47210  0.92095  0.49529  1.0000
  H   H410      1.0  0.49292  0.66441  0.94217  1.0000
  S   S89       1.0  0.41858  0.97526  0.48615  1.0000
  H   H411      1.0  0.46557  0.92878  0.53993  1.0000
  C   C331      1.0  0.45856  0.90406  0.49900  1.0000
  S   S90       1.0  0.48557  0.77650  0.49448  1.0000
  C   C332      1.0  0.45158  0.65994  0.92325  1.0000
  H   H412      1.0  0.44322  0.73926  0.49358  1.0000
  H   H413      1.0  0.47619  0.83407  0.51714  1.0000
  H   H414      1.0  0.46406  0.94298  0.60831  1.0000
  C   C333      1.0  0.46884  0.93294  0.57421  1.0000
  N   N25       1.0  0.49189  0.91689  0.57464  1.0000
  H   H415      1.0  0.49209  0.89721  0.54839  1.0000
  S   S91       1.0  0.43593  0.65425  0.97082  1.0000
  C   C334      1.0  0.43543  0.96090  0.59285  1.0000
  C   C335      1.0  0.01701  0.65646  0.51053  1.0000
  H   H416      1.0  0.45808  0.86895  0.50374  1.0000
  H   H417      1.0  0.43945  0.90889  0.49972  1.0000
  H   H418      1.0  0.46309  0.66450  0.88573  1.0000
  C   C336      1.0  0.46463  0.65317  0.90166  1.0000
  H   H419      1.0  0.40092  0.65428  0.91089  1.0000
  H   H420      1.0  0.47837  0.72910  0.50946  1.0000
  H   H421      1.0  0.47981  0.66027  0.81783  1.0000
  H   H422      1.0  0.48064  0.90325  0.61089  1.0000
  H   H423      1.0  0.41096  0.69470  0.49127  1.0000
  Fe  Fe49      1.0  0.59675  0.09564  0.42535  1.0000
  S   S92       1.0  0.61889  0.09257  0.38900  1.0000
  C   C337      1.0  0.53780  0.05295  0.33011  1.0000
  Fe  Fe50      1.0  0.55144  0.11736  0.40797  1.0000
  S   S93       1.0  0.57036  0.11536  0.37082  1.0000
  C   C338      1.0  0.51191  0.00134  0.46162  1.0000
  Fe  Fe51      1.0  0.58716  0.08029  0.38463  1.0000
  S   S94       1.0  0.58826  0.04689  0.37297  1.0000
  Fe  Fe52      1.0  0.59920  0.12824  0.38005  1.0000
  S   S95       1.0  0.61310  0.15978  0.35918  1.0000
  S   S96       1.0  0.56630  0.08167  0.42148  1.0000
  S   S97       1.0  0.57912  0.13181  0.41674  1.0000
  C   C339      1.0  0.68827  0.27072  0.36950  1.0000
  H   H424      1.0  0.55910  0.29095  0.47073  1.0000
  S   S98       1.0  0.60898  0.30226  0.41837  1.0000
  H   H425      1.0  0.66402  0.26840  0.41302  1.0000
  S   S99       1.0  0.62129  0.29702  0.36359  1.0000
  Fe  Fe53      1.0  0.59983  0.28070  0.39688  1.0000
  S   S100      1.0  0.60285  0.24347  0.41245  1.0000
  C   C340      1.0  0.54345  0.26203  0.45356  1.0000
  H   H426      1.0  0.62711  0.00325  0.45839  1.0000
  H   H427      1.0  0.56787  0.06948  0.32429  1.0000
  C   C341      1.0  0.66089  0.25594  0.40342  1.0000
  C   C342      1.0  0.60880  0.18327  0.37422  1.0000
  C   C343      1.0  0.60883  0.18001  0.39785  1.0000
  C   C344      1.0  0.60672  0.19866  0.40924  1.0000
  C   C345      1.0  0.60465  0.22084  0.39718  1.0000
  C   C346      1.0  0.60454  0.22424  0.37356  1.0000
  C   C347      1.0  0.60665  0.20550  0.36213  1.0000
  H   H428      1.0  0.61127  0.16303  0.40722  1.0000
  H   H429      1.0  0.60705  0.19579  0.42744  1.0000
  H   H430      1.0  0.60303  0.24123  0.36403  1.0000
  H   H431      1.0  0.60679  0.20822  0.34382  1.0000
  C   C348      1.0  0.56044  0.03729  0.38101  1.0000
  C   C349      1.0  0.55968  0.01488  0.37919  1.0000
  H   H432      1.0  0.67292  0.28112  0.36248  1.0000
  C   C350      1.0  0.51586  0.02261  0.39130  1.0000
  C   C351      1.0  0.51679  0.04477  0.39364  1.0000
  C   C352      1.0  0.53889  0.05203  0.38878  1.0000
  H   H433      1.0  0.57626  0.00330  0.37331  1.0000
  H   H434      1.0  0.52940  0.05298  0.44620  1.0000
  N   N26       1.0  0.63167  0.00583  0.42139  1.0000
  H   H435      1.0  0.53920  0.06931  0.39016  1.0000
  H   H436      1.0  0.64478  0.26381  0.39648  1.0000
  H   H437      1.0  0.58818  0.25827  0.45997  1.0000
  H   H438      1.0  0.71853  0.23163  0.38059  1.0000
  H   H439      1.0  0.55360  0.27424  0.44070  1.0000
  H   H440      1.0  0.49708  0.99271  0.47025  1.0000
  C   C353      1.0  0.53368  0.98816  0.45163  1.0000
  H   H441      1.0  0.67052  0.20713  0.40116  1.0000
  H   H442      1.0  0.67770  0.25585  0.33768  1.0000
  H   H443      1.0  0.66803  0.22920  0.31823  1.0000
  C   C354      1.0  0.67485  0.23963  0.34770  1.0000
  C   C355      1.0  0.62074  0.99872  0.40509  1.0000
  H   H444      1.0  0.52162  0.12579  0.36654  1.0000
  H   H445      1.0  0.63684  0.03740  0.39904  1.0000
  H   H446      1.0  0.54409  0.10376  0.33903  1.0000
  C   C356      1.0  0.54846  0.07105  0.33023  1.0000
  C   C357      1.0  0.66933  0.22442  0.33620  1.0000
  H   H447      1.0  0.66139  0.18102  0.38033  1.0000
  C   C358      1.0  0.66493  0.20323  0.34786  1.0000
  C   C359      1.0  0.67646  0.00676  0.41229  1.0000
  C   C360      1.0  0.66571  0.19723  0.37115  1.0000
  H   H448      1.0  0.69860  0.22319  0.40777  1.0000
  C   C361      1.0  0.52977  0.03498  0.44852  1.0000
  C   C362      1.0  0.52035  0.13690  0.45599  1.0000
  C   C363      1.0  0.59431  0.04775  0.47456  1.0000
  C   C364      1.0  0.49892  0.07390  0.34770  1.0000
  C   C365      1.0  0.50917  0.02519  0.46004  1.0000
  C   C366      1.0  0.61294  0.05912  0.47310  1.0000
  H   H449      1.0  0.70411  0.26715  0.35473  1.0000
  H   H450      1.0  0.69281  0.28195  0.37957  1.0000
  N   N27       1.0  0.68194  0.24946  0.38426  1.0000
  C   C367      1.0  0.50919  0.09263  0.34827  1.0000
  C   C368      1.0  0.67610  0.23390  0.37144  1.0000
  C   C369      1.0  0.67100  0.21234  0.38289  1.0000
  H   H451      1.0  0.65597  0.24113  0.41639  1.0000
  S   S101      1.0  0.51171  0.13021  0.41612  1.0000
  C   C370      1.0  0.57658  0.24660  0.47182  1.0000
  C   C371      1.0  0.65725  0.99455  0.41808  1.0000
  C   C372      1.0  0.53448  0.09068  0.33905  1.0000
  C   C373      1.0  0.53747  0.00747  0.38455  1.0000
  H   H452      1.0  0.70832  0.24956  0.40316  1.0000
  H   H453      1.0  0.53448  0.14544  0.44510  1.0000
  H   H454      1.0  0.66009  0.19165  0.33909  1.0000
  C   C374      1.0  0.70272  0.23794  0.39436  1.0000
  H   H455      1.0  0.56672  0.02956  0.42936  1.0000
  S   S102      1.0  0.56471  0.30363  0.39366  1.0000
  S   S103      1.0  0.61690  0.08421  0.45366  1.0000
  H   H456      1.0  0.67348  0.02508  0.40985  1.0000
  C   C375      1.0  0.55151  0.02162  0.43871  1.0000
  H   H457      1.0  0.58187  0.05436  0.46353  1.0000
  H   H458      1.0  0.50025  0.05663  0.39849  1.0000
  H   H459      1.0  0.63482  0.03779  0.42962  1.0000
  C   C376      1.0  0.55337  0.99832  0.43996  1.0000
  H   H460      1.0  0.54806  0.21400  0.47202  1.0000
  H   H461      1.0  0.60183  0.00765  0.40622  1.0000
  C   C377      1.0  0.62802  0.03104  0.41724  1.0000
  H   H462      1.0  0.54886  0.03745  0.32409  1.0000
  H   H463      1.0  0.60862  0.03892  0.41971  1.0000
  C   C378      1.0  0.50488  0.12980  0.44604  1.0000
  H   H464      1.0  0.59948  0.00766  0.44928  1.0000
  C   C379      1.0  0.51306  0.05443  0.33869  1.0000
  C   C380      1.0  0.70040  0.99543  0.40965  1.0000
  H   H465      1.0  0.71477  0.00506  0.40533  1.0000
  H   H466      1.0  0.52396  0.26953  0.45601  1.0000
  H   H467      1.0  0.54710  0.24655  0.44510  1.0000
  C   C381      1.0  0.50711  0.13123  0.35695  1.0000
  N   N28       1.0  0.55072  0.25731  0.47600  1.0000
  H   H468      1.0  0.51510  0.13740  0.33845  1.0000
  H   H469      1.0  0.53704  0.99038  0.38252  1.0000
  H   H470      1.0  0.63078  0.00264  0.38669  1.0000
  C   C382      1.0  0.61865  0.99905  0.44567  1.0000
  H   H471      1.0  0.57010  0.98805  0.43200  1.0000
  H   H472      1.0  0.49918  0.09782  0.39304  1.0000
  H   H473      1.0  0.50497  0.03993  0.33947  1.0000
  H   H474      1.0  0.58066  0.23116  0.46320  1.0000
  H   H475      1.0  0.49518  0.14608  0.36493  1.0000
  H   H476      1.0  0.49787  0.06528  0.47829  1.0000
  H   H477      1.0  0.50179  0.05098  0.57284  1.0000
  H   H478      1.0  0.53258  0.01709  0.55922  1.0000
  H   H479      1.0  0.55793  0.02142  0.53559  1.0000
  C   C383      1.0  0.59129  0.02823  0.49102  1.0000
  C   C384      1.0  0.58415  0.09610  0.51156  1.0000
  C   C385      1.0  0.62561  0.03126  0.50421  1.0000
  H   H480      1.0  0.50701  0.07890  0.55969  1.0000
  H   H481      1.0  0.53828  0.07980  0.49969  1.0000
  H   H482      1.0  0.63780  0.02499  0.51560  1.0000
  H   H483      1.0  0.50658  0.06614  0.52300  1.0000
  N   N29       1.0  0.53266  0.05196  0.54350  1.0000
  C   C386      1.0  0.55063  0.08021  0.50989  1.0000
  H   H484      1.0  0.49953  0.19904  0.53776  1.0000
  C   C387      1.0  0.49940  0.12178  0.49411  1.0000
  C   C388      1.0  0.60723  0.01965  0.50563  1.0000
  H   H485      1.0  0.51838  0.26442  0.51955  1.0000
  C   C389      1.0  0.56731  0.06960  0.54387  1.0000
  H   H486      1.0  0.56784  0.06061  0.56106  1.0000
  S   S104      1.0  0.49618  0.11639  0.52400  1.0000
  H   H487      1.0  0.52924  0.04264  0.51203  1.0000
  H   H488      1.0  0.59745  0.08483  0.54246  1.0000
  H   H489      1.0  0.57633  0.02024  0.49264  1.0000
  C   C390      1.0  0.55026  0.06709  0.53220  1.0000
  C   C391      1.0  0.51616  0.06116  0.56437  1.0000
  H   H490      1.0  0.64272  0.05971  0.48717  1.0000
  C   C392      1.0  0.56724  0.09456  0.49992  1.0000
  C   C393      1.0  0.58415  0.08369  0.53352  1.0000
  S   S105      1.0  0.60457  0.99491  0.52621  1.0000
  H   H491      1.0  0.56756  0.10402  0.48267  1.0000
  C   C394      1.0  0.53609  0.24181  0.49292  1.0000
  H   H492      1.0  0.52579  0.06145  0.57779  1.0000
  C   C395      1.0  0.54533  0.02883  0.55080  1.0000
  C   C396      1.0  0.52401  0.20447  0.50415  1.0000
  C   C397      1.0  0.51778  0.04958  0.52806  1.0000
  C   C398      1.0  0.52079  0.24788  0.51445  1.0000
  H   H493      1.0  0.50503  0.03782  0.53688  1.0000
  H   H494      1.0  0.55428  0.27737  0.50029  1.0000
  H   H495      1.0  0.55596  0.02840  0.56357  1.0000
  C   C399      1.0  0.53705  0.21970  0.48815  1.0000
  H   H496      1.0  0.52972  0.13822  0.48780  1.0000
  H   H497      1.0  0.52522  0.18761  0.50020  1.0000
  C   C400      1.0  0.62845  0.05086  0.48804  1.0000
  C   C401      1.0  0.50958  0.21082  0.52526  1.0000
  C   C402      1.0  0.51760  0.13293  0.48009  1.0000
  C   C403      1.0  0.50788  0.23249  0.53033  1.0000
  H   H498      1.0  0.58251  0.24167  0.48842  1.0000
  H   H499      1.0  0.59756  0.10659  0.50324  1.0000
  H   H500      1.0  0.49634  0.23743  0.54669  1.0000
  C   C404      1.0  0.54822  0.27947  0.48393  1.0000
  H   H501      1.0  0.52927  0.28870  0.48684  1.0000
  C   C405      1.0  0.49639  0.99260  0.56161  1.0000
  Fe  Fe54      1.0  0.57297  0.49095  0.03334  1.0000
  S   S106      1.0  0.56863  0.45437  0.03989  1.0000
  S   S107      1.0  0.60177  0.50167  0.00225  1.0000
  Fe  Fe55      1.0  0.53343  0.50182  0.07661  1.0000
  S   S108      1.0  0.52547  0.46693  0.08498  1.0000
  Fe  Fe56      1.0  0.56555  0.45640  0.07780  1.0000
  S   S109      1.0  0.58244  0.43277  0.10558  1.0000
  Fe  Fe57      1.0  0.52899  0.46934  0.04643  1.0000
  C   C406      1.0  0.94605  0.54141  0.47155  1.0000
  S   S110      1.0  0.57320  0.49149  0.07030  1.0000
  S   S111      1.0  0.53368  0.50575  0.03862  1.0000
  Fe  Fe58      1.0  0.90623  0.48587  0.45446  1.0000
  S   S112      1.0  0.91763  0.46015  0.42982  1.0000
  C   C407      1.0  0.51858  0.55579  0.19678  1.0000
  Fe  Fe59      1.0  0.90582  0.48944  0.40391  1.0000
  S   S113      1.0  0.87893  0.49326  0.38151  1.0000
  S   S114      1.0  0.89309  0.51457  0.42929  1.0000
  Fe  Fe60      1.0  0.71557  0.47477  0.36623  1.0000
  S   S115      1.0  0.68416  0.47119  0.39657  1.0000
  S   S116      1.0  0.70850  0.49130  0.33118  1.0000
  Fe  Fe61      1.0  0.75229  0.45359  0.39488  1.0000
  S   S117      1.0  0.72339  0.44712  0.42733  1.0000
  S   S118      1.0  0.79129  0.44183  0.39796  1.0000
  Fe  Fe62      1.0  0.70449  0.43604  0.40477  1.0000
  S   S119      1.0  0.67936  0.41064  0.41926  1.0000
  Fe  Fe63      1.0  0.70507  0.48251  0.41686  1.0000
  S   S120      1.0  0.68633  0.50290  0.44643  1.0000
  S   S121      1.0  0.73511  0.43890  0.37302  1.0000
  S   S122      1.0  0.73490  0.48979  0.38567  1.0000
  S   S123      1.0  0.59422  0.34660  0.38094  1.0000
  H   H502      1.0  0.54021  0.51631  0.14901  1.0000
  H   H503      1.0  0.66655  0.43635  0.37071  1.0000
  H   H504      1.0  0.49767  0.42547  0.22677  1.0000
  C   C408      1.0  0.54339  0.52174  0.18219  1.0000
  Fe  Fe64      1.0  0.56984  0.45478  0.26901  1.0000
  S   S124      1.0  0.60639  0.44114  0.24811  1.0000
  S   S125      1.0  0.54241  0.43347  0.28899  1.0000
  Fe  Fe65      1.0  0.57778  0.50333  0.25859  1.0000
  S   S126      1.0  0.61554  0.49351  0.23732  1.0000
  S   S127      1.0  0.56109  0.54007  0.26177  1.0000
  Fe  Fe66      1.0  0.59946  0.47181  0.22160  1.0000
  S   S128      1.0  0.60663  0.47627  0.18203  1.0000
  Fe  Fe67      1.0  0.61902  0.46397  0.26582  1.0000
  S   S129      1.0  0.64963  0.44671  0.28325  1.0000
  S   S130      1.0  0.56173  0.48362  0.24132  1.0000
  S   S131      1.0  0.58253  0.47557  0.28835  1.0000
  C   C409      1.0  0.83767  0.44444  0.33932  1.0000
  C   C410      1.0  0.53050  0.54907  0.26124  1.0000
  H   H505      1.0  0.53345  0.53888  0.99018  1.0000
  H   H506      1.0  0.55686  0.50652  0.18415  1.0000
  C   C411      1.0  0.55184  0.44141  0.21554  1.0000
  C   C412      1.0  0.63657  0.62625  0.44945  1.0000
  C   C413      1.0  0.51546  0.53346  0.26414  1.0000
  H   H507      1.0  0.50491  0.55681  0.99770  1.0000
  H   H508      1.0  0.65801  0.40093  0.27072  1.0000
  C   C414      1.0  0.93053  0.63329  0.43746  1.0000
  H   H509      1.0  0.52248  0.51548  0.26713  1.0000
  C   C415      1.0  0.57129  0.35998  0.31591  1.0000
  C   C416      1.0  0.57785  0.36827  0.29212  1.0000
  C   C417      1.0  0.56992  0.39112  0.28392  1.0000
  C   C418      1.0  0.55465  0.40556  0.29938  1.0000
  C   C419      1.0  0.54793  0.39725  0.32314  1.0000
  C   C420      1.0  0.55669  0.37462  0.33151  1.0000
  H   H510      1.0  0.58908  0.35696  0.28001  1.0000
  H   H511      1.0  0.57495  0.39735  0.26553  1.0000
  H   H512      1.0  0.53569  0.40828  0.33504  1.0000
  H   H513      1.0  0.55133  0.36825  0.34984  1.0000
  C   C421      1.0  0.69144  0.47895  0.31855  1.0000
  C   C422      1.0  0.67548  0.49290  0.30574  1.0000
  C   C423      1.0  0.66234  0.48337  0.29490  1.0000
  C   C424      1.0  0.66569  0.45980  0.29620  1.0000
  C   C425      1.0  0.68205  0.44590  0.30857  1.0000
  C   C426      1.0  0.69448  0.45537  0.32013  1.0000
  H   H514      1.0  0.67319  0.51116  0.30424  1.0000
  H   H515      1.0  0.64991  0.49427  0.28527  1.0000
  H   H516      1.0  0.68499  0.42765  0.30938  1.0000
  H   H517      1.0  0.70696  0.44445  0.32965  1.0000
  C   C427      1.0  0.67599  0.38818  0.40655  1.0000
  C   C428      1.0  0.65521  0.37862  0.41592  1.0000
  C   C429      1.0  0.86710  0.46834  0.33333  1.0000
  C   C430      1.0  0.52163  0.45619  0.98876  1.0000
  C   C431      1.0  0.68910  0.36233  0.37759  1.0000
  C   C432      1.0  0.69281  0.38018  0.38711  1.0000
  H   H518      1.0  0.83466  0.61592  0.46400  1.0000
  C   C433      1.0  0.51707  0.54719  0.15966  1.0000
  H   H519      1.0  0.70244  0.35588  0.36291  1.0000
  H   H520      1.0  0.70883  0.38749  0.37971  1.0000
  C   C434      1.0  0.69752  0.52608  0.44972  1.0000
  H   H521      1.0  0.89092  0.55996  0.44396  1.0000
  C   C435      1.0  0.80073  0.57090  0.45109  1.0000
  H   H522      1.0  0.86951  0.43498  0.35288  1.0000
  C   C436      1.0  0.72352  0.55388  0.43493  1.0000
  C   C437      1.0  0.71380  0.53625  0.43141  1.0000
  H   H523      1.0  0.51765  0.45275  0.25289  1.0000
  H   H524      1.0  0.60288  0.39186  0.31309  1.0000
  H   H525      1.0  0.73624  0.56162  0.42073  1.0000
  H   H526      1.0  0.71896  0.53046  0.41457  1.0000
  C   C438      1.0  0.85349  0.47984  0.38885  1.0000
  C   C439      1.0  0.85414  0.45770  0.40066  1.0000
  C   C440      1.0  0.83485  0.44646  0.40343  1.0000
  C   C441      1.0  0.81443  0.45736  0.39495  1.0000
  C   C442      1.0  0.81343  0.47978  0.38381  1.0000
  C   C443      1.0  0.83293  0.49085  0.38063  1.0000
  H   H527      1.0  0.86992  0.44889  0.40685  1.0000
  H   H528      1.0  0.83591  0.42911  0.41201  1.0000
  H   H529      1.0  0.79794  0.48848  0.37715  1.0000
  H   H530      1.0  0.83236  0.50787  0.37124  1.0000
  H   H531      1.0  0.54322  0.53180  0.21451  1.0000
  C   C444      1.0  0.49669  0.58005  0.25742  1.0000
  S   S132      1.0  0.66421  0.33021  0.37490  1.0000
  H   H532      1.0  0.97612  0.64902  0.36751  1.0000
  H   H533      1.0  0.85282  0.61740  0.43469  1.0000
  H   H534      1.0  0.84310  0.51411  0.47104  1.0000
  H   H535      1.0  0.69731  0.60983  0.43469  1.0000
  H   H536      1.0  0.63782  0.40461  0.33504  1.0000
  H   H537      1.0  0.86769  0.56026  0.41779  1.0000
  H   H538      1.0  0.50841  0.60260  0.18998  1.0000
  H   H539      1.0  0.65533  0.42894  0.34877  1.0000
  C   C445      1.0  0.58597  0.44461  0.12890  1.0000
  C   C446      1.0  0.59580  0.43050  0.14670  1.0000
  C   C447      1.0  0.60059  0.43982  0.16427  1.0000
  C   C448      1.0  0.59589  0.46339  0.16397  1.0000
  C   C449      1.0  0.58565  0.47736  0.14647  1.0000
  C   C450      1.0  0.58018  0.46804  0.12943  1.0000
  H   H540      1.0  0.60039  0.41235  0.14650  1.0000
  H   H541      1.0  0.60917  0.42888  0.17725  1.0000
  H   H542      1.0  0.58260  0.49559  0.14564  1.0000
  H   H543      1.0  0.57199  0.47916  0.11644  1.0000
  H   H544      1.0  0.55114  0.53847  0.06491  1.0000
  C   C451      1.0  0.60682  0.52304  0.09191  1.0000
  C   C452      1.0  0.76319  0.49556  0.43613  1.0000
  C   C453      1.0  0.62163  0.39232  0.30270  1.0000
  H   H545      1.0  0.59122  0.55450  0.07392  1.0000
  C   C454      1.0  0.52052  0.45506  0.19447  1.0000
  N   N30       1.0  0.98254  0.61995  0.34951  1.0000
  C   C455      1.0  0.79466  0.43561  0.33229  1.0000
  H   H546      1.0  0.86571  0.61726  0.45866  1.0000
  H   H547      1.0  0.74698  0.49113  0.43314  1.0000
  C   C456      1.0  0.51825  0.59125  0.05676  1.0000
  H   H548      1.0  0.65837  0.43906  0.08418  1.0000
  H   H549      1.0  0.67447  0.59655  0.43189  1.0000
  C   C457      1.0  0.62081  0.50135  0.08979  1.0000
  C   C458      1.0  0.84211  0.57577  0.44716  1.0000
  H   H550      1.0  0.61673  0.35356  0.32940  1.0000
  C   C459      1.0  0.84932  0.56341  0.42787  1.0000
  H   H551      1.0  0.68064  0.35716  0.32999  1.0000
  C   C460      1.0  0.83273  0.55461  0.42097  1.0000
  C   C461      1.0  0.80847  0.55840  0.43253  1.0000
  H   H552      1.0  0.63433  0.63673  0.43261  1.0000
  H   H553      1.0  0.96501  0.59197  0.40881  1.0000
  H   H554      1.0  0.91437  0.63317  0.43220  1.0000
  H   H555      1.0  0.59893  0.52820  0.10902  1.0000
  H   H556      1.0  0.55632  0.43576  0.23285  1.0000
  C   C462      1.0  0.81724  0.57938  0.45838  1.0000
  N   N31       1.0  0.76642  0.48627  0.45988  1.0000
  H   H557      1.0  0.83879  0.54477  0.40655  1.0000
  H   H558      1.0  0.79561  0.55169  0.42710  1.0000
  N   N32       1.0  0.62814  0.44610  0.37466  1.0000
  C   C463      1.0  0.62990  0.46862  0.36024  1.0000
  C   C464      1.0  0.62480  0.44912  0.39934  1.0000
  C   C465      1.0  0.60846  0.43610  0.37199  1.0000
  C   C466      1.0  0.59794  0.44314  0.35248  1.0000
  C   C467      1.0  0.60034  0.41773  0.38838  1.0000
  C   C468      1.0  0.57952  0.43319  0.35038  1.0000
  C   C469      1.0  0.58173  0.40813  0.38626  1.0000
  C   C470      1.0  0.57123  0.41595  0.36739  1.0000
  H   H559      1.0  0.63547  0.46744  0.34128  1.0000
  H   H560      1.0  0.61250  0.48076  0.36390  1.0000
  H   H561      1.0  0.64397  0.47633  0.36346  1.0000
  H   H562      1.0  0.60622  0.45797  0.40661  1.0000
  H   H563      1.0  0.62863  0.43277  0.41078  1.0000
  H   H564      1.0  0.60365  0.45623  0.33853  1.0000
  H   H565      1.0  0.60836  0.41048  0.40295  1.0000
  H   H566      1.0  0.57153  0.43893  0.33548  1.0000
  H   H567      1.0  0.57549  0.39443  0.39930  1.0000
  H   H568      1.0  0.55682  0.40842  0.36585  1.0000
  C   C471      1.0  0.66922  0.47229  0.04956  1.0000
  C   C472      1.0  0.88465  0.57866  0.44241  1.0000
  C   C473      1.0  0.64794  0.45637  0.08695  1.0000
  S   S133      1.0  0.93981  0.55615  0.41153  1.0000
  C   C474      1.0  0.67128  0.39138  0.28004  1.0000
  C   C475      1.0  0.65120  0.36121  0.40604  1.0000
  H   H569      1.0  0.92924  0.54046  0.46803  1.0000
  C   C476      1.0  0.74340  0.49358  0.47668  1.0000
  C   C477      1.0  0.71365  0.38102  0.27981  1.0000
  C   C478      1.0  0.50647  0.47703  0.19002  1.0000
  H   H570      1.0  0.79241  0.43174  0.35154  1.0000
  H   H571      1.0  0.63511  0.35401  0.41349  1.0000
  C   C479      1.0  0.97740  0.56259  0.46708  1.0000
  H   H572      1.0  0.83229  0.42853  0.34771  1.0000
  H   H573      1.0  0.98800  0.63435  0.45642  1.0000
  S   S134      1.0  0.91144  0.60733  0.47751  1.0000
  C   C480      1.0  0.53715  0.55304  0.06873  1.0000
  H   H574      1.0  0.62962  0.46820  0.03637  1.0000
  C   C481      1.0  0.70053  0.55144  0.47503  1.0000
  C   C482      1.0  0.63264  0.45880  0.05340  1.0000
  H   H575      1.0  0.69958  0.40269  0.25207  1.0000
  H   H576      1.0  0.62332  0.41051  0.29896  1.0000
  H   H577      1.0  0.88339  0.47121  0.33661  1.0000
  C   C483      1.0  0.50881  0.56211  0.17683  1.0000
  C   C484      1.0  0.51369  0.32234  0.44880  1.0000
  S   S135      1.0  0.73061  0.58267  0.46060  1.0000
  H   H578      1.0  0.88736  0.58582  0.42365  1.0000
  Fe  Fe68      1.0  0.58694  0.32185  0.36188  1.0000
  C   C485      1.0  0.52532  0.33320  0.45964  1.0000
  C   C486      1.0  0.66831  0.35275  0.38707  1.0000
  H   H579      1.0  0.96886  0.57725  0.35552  1.0000
  H   H580      1.0  0.94598  0.57508  0.45332  1.0000
  C   C487      1.0  0.66751  0.64609  0.45317  1.0000
  H   H581      1.0  0.77877  0.48884  0.42254  1.0000
  H   H582      1.0  0.61564  0.38694  0.34783  1.0000
  C   C488      1.0  0.82758  0.50877  0.46881  1.0000
  H   H583      1.0  0.89719  0.58537  0.44906  1.0000
  H   H584      1.0  0.76117  0.51437  0.43306  1.0000
  C   C489      1.0  0.57829  0.54574  0.99210  1.0000
  H   H585      1.0  0.81416  0.47504  0.43785  1.0000
  C   C490      1.0  0.78714  0.49411  0.46333  1.0000
  C   C491      1.0  0.96948  0.64450  0.42880  1.0000
  S   S136      1.0  0.51395  0.52475  0.10334  1.0000
  C   C492      1.0  0.60252  0.53791  0.07218  1.0000
  C   C493      1.0  0.67843  0.61326  0.43292  1.0000
  H   H586      1.0  0.98118  0.51947  0.41193  1.0000
  H   H587      1.0  0.85936  0.50157  0.31443  1.0000
  C   C494      1.0  0.95441  0.62248  0.46615  1.0000
  H   H588      1.0  0.53837  0.45393  0.99391  1.0000
  C   C495      1.0  0.53565  0.53595  0.19931  1.0000
  C   C496      1.0  0.69530  0.39249  0.26899  1.0000
  H   H589      1.0  0.64207  0.38475  0.43090  1.0000
  S   S137      1.0  0.49837  0.46152  0.03471  1.0000
  H   H590      1.0  0.63233  0.60942  0.44936  1.0000
  C   C497      1.0  0.65122  0.43050  0.36752  1.0000
  H   H591      1.0  0.52109  0.31986  0.43078  1.0000
  H   H592      1.0  0.62274  0.63404  0.46391  1.0000
  H   H593      1.0  0.95043  0.61272  0.34372  1.0000
  H   H594      1.0  0.55151  0.57386  0.03714  1.0000
  C   C498      1.0  0.53409  0.52733  0.16244  1.0000
  C   C499      1.0  0.69052  0.53402  0.47139  1.0000
  H   H595      1.0  0.64590  0.37638  0.34963  1.0000
  Fe  Fe69      1.0  0.57517  0.32621  0.41307  1.0000
  C   C500      1.0  0.52626  0.45147  0.15330  1.0000
  H   H596      1.0  0.65072  0.41316  0.37716  1.0000
  C   C501      1.0  0.93360  0.62212  0.45933  1.0000
  C   C502      1.0  0.51344  0.46036  0.23576  1.0000
  H   H597      1.0  0.61475  0.45624  0.06472  1.0000
  C   C503      1.0  0.70807  0.36828  0.30173  1.0000
  H   H598      1.0  0.53252  0.58451  0.25582  1.0000
  H   H599      1.0  0.51337  0.56632  0.21048  1.0000
  S   S138      1.0  0.58132  0.33120  0.32547  1.0000
  H   H600      1.0  0.53427  0.44176  0.13887  1.0000
  C   C504      1.0  0.95545  0.56110  0.46336  1.0000
  C   C505      1.0  0.83070  0.49357  0.45328  1.0000
  C   C506      1.0  0.71722  0.56122  0.45682  1.0000
  H   H601      1.0  0.62329  0.38614  0.28603  1.0000
  H   H602      1.0  0.64316  0.44165  0.05007  1.0000
  N   N33       1.0  0.66127  0.62410  0.45253  1.0000
  Fe  Fe70      1.0  0.95339  0.47189  0.42049  1.0000
  C   C507      1.0  0.97233  0.63359  0.45085  1.0000
  C   C508      1.0  0.53752  0.57313  0.05309  1.0000
  C   C509      1.0  0.51828  0.54927  0.98287  1.0000
  S   S139      1.0  0.55274  0.34195  0.44482  1.0000
  H   H603      1.0  0.63351  0.50531  0.03043  1.0000
  H   H604      1.0  0.56954  0.54472  0.01045  1.0000
  H   H605      1.0  0.51941  0.47700  0.23114  1.0000
  H   H606      1.0  0.94538  0.63722  0.35765  1.0000
  C   C510      1.0  0.49970  0.46019  0.00522  1.0000
  H   H607      1.0  0.65766  0.46390  0.09617  1.0000
  H   H608      1.0  0.78223  0.49301  0.32876  1.0000
  H   H609      1.0  0.51805  0.61313  0.98510  1.0000
  H   H610      1.0  0.67844  0.48239  0.05667  1.0000
  H   H611      1.0  0.52005  0.41619  0.24365  1.0000
  H   H612      1.0  0.56198  0.42809  0.20449  1.0000
  C   C511      1.0  0.97032  0.55580  0.40982  1.0000
  N   N34       1.0  0.85923  0.58478  0.45544  1.0000
  C   C512      1.0  0.97799  0.57626  0.40823  1.0000
  C   C513      1.0  0.51721  0.42342  0.22589  1.0000
  Fe  Fe71      1.0  0.93086  0.52110  0.41899  1.0000
  H   H613      1.0  0.49846  0.48797  0.20326  1.0000
  C   C514      1.0  0.98799  0.63314  0.32594  1.0000
  S   S140      1.0  0.94258  0.49509  0.44740  1.0000
  H   H614      1.0  0.64711  0.34326  0.33111  1.0000
  H   H615      1.0  0.98493  0.62223  0.38398  1.0000
  C   C515      1.0  0.50269  0.48577  0.16781  1.0000
  C   C516      1.0  0.98698  0.53539  0.41031  1.0000
  H   H616      1.0  0.82165  0.49623  0.30836  1.0000
  C   C517      1.0  0.52100  0.57237  0.25795  1.0000
  N   N35       1.0  0.52553  0.44541  0.21756  1.0000
  N   N36       1.0  0.80018  0.45869  0.32319  1.0000
  C   C518      1.0  0.61249  0.53129  0.05019  1.0000
  C   C519      1.0  0.85924  0.44790  0.34248  1.0000
  H   H617      1.0  0.52705  0.41033  0.21446  1.0000
  C   C520      1.0  0.68409  0.36721  0.31299  1.0000
  N   N37       1.0  0.64488  0.47073  0.06464  1.0000
  H   H618      1.0  0.80903  0.42233  0.32395  1.0000
  C   C521      1.0  0.49972  0.57026  0.09303  1.0000
  C   C522      1.0  0.63564  0.35462  0.32003  1.0000
  H   H619      1.0  0.73786  0.51236  0.47447  1.0000
  H   H620      1.0  0.51999  0.60272  0.15910  1.0000
  H   H621      1.0  0.73221  0.38210  0.27121  1.0000
  H   H622      1.0  0.60883  0.54269  0.03482  1.0000
  S   S141      1.0  0.98999  0.44867  0.41699  1.0000
  H   H623      1.0  0.56134  0.58056  0.98380  1.0000
  H   H624      1.0  0.80156  0.48098  0.29032  1.0000
  H   H625      1.0  0.84867  0.48724  0.44338  1.0000
  S   S142      1.0  0.51354  0.61184  0.03339  1.0000
  H   H626      1.0  0.63928  0.34742  0.30353  1.0000
  H   H627      1.0  0.63751  0.45920  0.40129  1.0000
  H   H628      1.0  0.63023  0.45384  0.09879  1.0000
  H   H629      1.0  0.49741  0.58897  0.13666  1.0000
  H   H630      1.0  0.68082  0.45522  0.04796  1.0000
  S   S143      1.0  0.94307  0.49839  0.39141  1.0000
  C   C523      1.0  0.63085  0.49388  0.06761  1.0000
  H   H631      1.0  0.54172  0.42606  0.17717  1.0000
  H   H632      1.0  0.77743  0.43385  0.32902  1.0000
  C   C524      1.0  0.50333  0.60296  0.17341  1.0000
  C   C525      1.0  0.51778  0.55138  0.08814  1.0000
  C   C526      1.0  0.78031  0.47510  0.33542  1.0000
  C   C527      1.0  0.80044  0.46309  0.29801  1.0000
  H   H633      1.0  0.78364  0.46005  0.29489  1.0000
  C   C528      1.0  0.53035  0.44260  0.17536  1.0000
  C   C529      1.0  0.83187  0.48221  0.31760  1.0000
  H   H634      1.0  0.76242  0.47350  0.33349  1.0000
  C   C530      1.0  0.85344  0.48548  0.32094  1.0000
  H   H635      1.0  0.62309  0.49068  0.10585  1.0000
  C   C531      1.0  0.62660  0.50972  0.04787  1.0000
  C   C532      1.0  0.82335  0.46152  0.32658  1.0000
  H   H636      1.0  0.81600  0.45195  0.28797  1.0000
  H   H637      1.0  0.77973  0.47228  0.35434  1.0000
  C   C533      1.0  0.98795  0.57698  0.35203  1.0000
  H   H638      1.0  0.66857  0.48047  0.03151  1.0000
  H   H639      1.0  0.72233  0.35931  0.31016  1.0000
  H   H640      1.0  0.75485  0.45476  0.46135  1.0000
  H   H641      1.0  0.72822  0.48704  0.47401  1.0000
  N   N38       1.0  0.63962  0.37833  0.31541  1.0000
  C   C534      1.0  0.66489  0.37903  0.30266  1.0000
  C   C535      1.0  0.63462  0.38693  0.33796  1.0000
  C   C536      1.0  0.95627  0.61980  0.35649  1.0000
  C   C537      1.0  0.51264  0.47307  0.14950  1.0000
  C   C538      1.0  0.66286  0.60875  0.47461  1.0000
  H   H642      1.0  0.70322  0.63140  0.45932  1.0000
  C   C539      1.0  0.98781  0.63197  0.36617  1.0000
  H   H643      1.0  0.95118  0.60970  0.37400  1.0000
  H   H644      1.0  0.55923  0.45711  0.20749  1.0000
  H   H645      1.0  0.78575  0.45411  0.44821  1.0000
  H   H646      1.0  0.97665  0.65045  0.32527  1.0000
  H   H647      1.0  0.51093  0.55051  0.14377  1.0000
  H   H648      1.0  0.51505  0.50504  0.99616  1.0000
  C   C540      1.0  0.85281  0.60990  0.45305  1.0000
  H   H649      1.0  0.68132  0.60472  0.47751  1.0000
  H   H650      1.0  0.67794  0.62432  0.41599  1.0000
  C   C541      1.0  0.49994  0.59028  0.07721  1.0000
  H   H651      1.0  0.78178  0.57409  0.45991  1.0000
  H   H652      1.0  0.65801  0.59211  0.47485  1.0000
  H   H653      1.0  0.51005  0.48014  0.13226  1.0000
  H   H654      1.0  0.98427  0.57799  0.45940  1.0000
  C   C542      1.0  0.77085  0.46108  0.46235  1.0000
  H   H655      1.0  0.54680  0.63097  0.99345  1.0000
  H   H656      1.0  0.98480  0.62443  0.31276  1.0000
  Fe  Fe72      1.0  0.62722  0.32077  0.38474  1.0000
  H   H657      1.0  0.97626  0.43603  0.47268  1.0000
  C   C543      1.0  0.81082  0.48649  0.45041  1.0000
  C   C544      1.0  0.59461  0.52697  0.98354  1.0000
  H   H658      1.0  0.81028  0.58901  0.47279  1.0000
  C   C545      1.0  0.49953  0.51686  0.99053  1.0000
  C   C546      1.0  0.94826  0.64471  0.42237  1.0000
  C   C547      1.0  0.69014  0.64675  0.45699  1.0000
  Fe  Fe73      1.0  0.57410  0.59079  0.89862  1.0000
  S   S144      1.0  0.54545  0.57250  0.89732  1.0000
  S   S145      1.0  0.57846  0.59293  0.93435  1.0000
  Fe  Fe74      1.0  0.58419  0.60754  0.84589  1.0000
  S   S146      1.0  0.55621  0.59076  0.84171  1.0000
  C   C548      1.0  0.53295  0.50162  0.92109  1.0000
  Fe  Fe75      1.0  0.53320  0.60392  0.87412  1.0000
  C   C549      1.0  0.51147  0.33614  0.63048  1.0000
  Fe  Fe76      1.0  0.57200  0.56159  0.86486  1.0000
  S   S147      1.0  0.58038  0.52748  0.85312  1.0000
  S   S148      1.0  0.56017  0.62300  0.87707  1.0000
  S   S149      1.0  0.60156  0.57755  0.86767  1.0000
  Fe  Fe77      1.0  0.88974  0.60204  0.56220  1.0000
  S   S150      1.0  0.88562  0.57997  0.53858  1.0000
  S   S151      1.0  0.85372  0.62114  0.57930  1.0000
  Fe  Fe78      1.0  0.94422  0.58685  0.55050  1.0000
  S   S152      1.0  0.94360  0.56415  0.52564  1.0000
  S   S153      1.0  0.98121  0.58841  0.55342  1.0000
  S   S154      1.0  0.60274  0.62705  0.81268  1.0000
  C   C550      1.0  0.97512  0.44258  0.48854  1.0000
  Fe  Fe79      1.0  0.91248  0.55388  0.55362  1.0000
  S   S155      1.0  0.90476  0.51884  0.56640  1.0000
  S   S156      1.0  0.91956  0.61692  0.53612  1.0000
  S   S157      1.0  0.91466  0.57465  0.57941  1.0000
  Fe  Fe80      1.0  0.56507  0.61105  0.70057  1.0000
  S   S158      1.0  0.53377  0.61065  0.68607  1.0000
  H   H659      1.0  0.50904  0.32171  0.62393  1.0000
  Fe  Fe81      1.0  0.59685  0.57273  0.67531  1.0000
  S   S159      1.0  0.56844  0.56846  0.65896  1.0000
  S   S160      1.0  0.63359  0.55062  0.67212  1.0000
  Fe  Fe82      1.0  0.56098  0.60664  0.65230  1.0000
  Fe  Fe83      1.0  0.54329  0.57266  0.69385  1.0000
  C   C551      1.0  0.52476  0.52500  0.95222  1.0000
  S   S161      1.0  0.59168  0.61051  0.66577  1.0000
  S   S162      1.0  0.57231  0.57346  0.71130  1.0000
  Fe  Fe84      1.0  0.70459  0.63048  0.52585  1.0000
  S   S163      1.0  0.69298  0.59775  0.52600  1.0000
  Fe  Fe85      1.0  0.75772  0.60929  0.51897  1.0000
  S   S164      1.0  0.75093  0.57481  0.51870  1.0000
  S   S165      1.0  0.79560  0.61592  0.50797  1.0000
  Fe  Fe86      1.0  0.71921  0.58297  0.54869  1.0000
  S   S166      1.0  0.71677  0.55513  0.57937  1.0000
  S   S167      1.0  0.72839  0.61611  0.55082  1.0000
  C   C552      1.0  0.65581  0.55308  0.64574  1.0000
  C   C553      1.0  0.65133  0.56761  0.62567  1.0000
  C   C554      1.0  0.66997  0.56906  0.60512  1.0000
  C   C555      1.0  0.69287  0.55555  0.60461  1.0000
  C   C556      1.0  0.69703  0.54094  0.62464  1.0000
  C   C557      1.0  0.67872  0.53985  0.64509  1.0000
  H   H660      1.0  0.63345  0.57733  0.62588  1.0000
  H   H661      1.0  0.66648  0.58011  0.58959  1.0000
  H   H662      1.0  0.71455  0.53031  0.62436  1.0000
  H   H663      1.0  0.68229  0.52845  0.66041  1.0000
  C   C558      1.0  0.89691  0.50846  0.54509  1.0000
  S   S168      1.0  0.51216  0.55436  0.71089  1.0000
  C   C559      1.0  0.58483  0.56744  0.95305  1.0000
  H   H664      1.0  0.60991  0.54965  0.92615  1.0000
  H   H665      1.0  0.50369  0.52456  0.79802  1.0000
  H   H666      1.0  0.50424  0.61577  0.61982  1.0000
  H   H667      1.0  0.54546  0.52525  0.67810  1.0000
  C   C560      1.0  0.83546  0.62506  0.55956  1.0000
  C   C561      1.0  0.84617  0.62680  0.53571  1.0000
  C   C562      1.0  0.83319  0.62526  0.51996  1.0000
  C   C563      1.0  0.80928  0.62223  0.52788  1.0000
  C   C564      1.0  0.79788  0.62209  0.55155  1.0000
  C   C565      1.0  0.81101  0.62359  0.56743  1.0000
  S   S169      1.0  0.56293  0.63795  0.72239  1.0000
  H   H668      1.0  0.77930  0.62005  0.55772  1.0000
  H   H669      1.0  0.53367  0.34858  0.59802  1.0000
  H   H670      1.0  0.60496  0.64866  0.61115  1.0000
  H   H671      1.0  0.49880  0.50877  0.94450  1.0000
  C   C566      1.0  0.52895  0.51866  0.68490  1.0000
  H   H672      1.0  0.69242  0.64937  0.58575  1.0000
  C   C567      1.0  0.60616  0.52860  0.95976  1.0000
  H   H673      1.0  0.95991  0.50129  0.56413  1.0000
  H   H674      1.0  0.51365  0.55915  0.81665  1.0000
  H   H675      1.0  0.98567  0.61789  0.50607  1.0000
  H   H676      1.0  0.52486  0.56356  0.97001  1.0000
  C   C568      1.0  0.58322  0.61106  0.78308  1.0000
  C   C569      1.0  0.57518  0.61307  0.76261  1.0000
  C   C570      1.0  0.99031  0.54444  0.47993  1.0000
  H   H677      1.0  0.61895  0.51423  0.95305  1.0000
  H   H678      1.0  0.55499  0.39413  0.63839  1.0000
  H   H679      1.0  0.58291  0.59560  0.79523  1.0000
  H   H680      1.0  0.56822  0.59935  0.75942  1.0000
  H   H681      1.0  0.53471  0.61561  0.80195  1.0000
  C   C571      1.0  0.50633  0.58069  0.65385  1.0000
  H   H682      1.0  0.67779  0.52625  0.48557  1.0000
  H   H683      1.0  0.55301  0.49828  0.72399  1.0000
  C   C572      1.0  0.55409  0.52607  0.84589  1.0000
  H   H684      1.0  0.52415  0.34517  0.49139  1.0000
  C   C573      1.0  0.54482  0.54313  0.82982  1.0000
  H   H685      1.0  0.54746  0.49699  0.87139  1.0000
  H   H686      1.0  0.55589  0.55485  0.81887  1.0000
  H   H687      1.0  0.53428  0.58442  0.60970  1.0000
  Fe  Fe87      1.0  0.91667  0.59327  0.51346  1.0000
  H   H688      1.0  0.51709  0.62533  0.75008  1.0000
  H   H689      1.0  0.93499  0.47346  0.52774  1.0000
  H   H690      1.0  0.93784  0.45821  0.49245  1.0000
  C   C574      1.0  0.55689  0.50431  0.91437  1.0000
  C   C575      1.0  0.78450  0.51011  0.47861  1.0000
  H   H691      1.0  0.87149  0.58153  0.48683  1.0000
  H   H692      1.0  0.65276  0.63858  0.51836  1.0000
  H   H693      1.0  0.50092  0.62696  0.96424  1.0000
  H   H694      1.0  0.80259  0.62250  0.58587  1.0000
  H   H695      1.0  0.56528  0.52610  0.74091  1.0000
  C   C576      1.0  0.52105  0.49533  0.75147  1.0000
  C   C577      1.0  0.62385  0.64976  0.60579  1.0000
  H   H696      1.0  0.59617  0.52258  0.79776  1.0000
  C   C578      1.0  0.95355  0.45513  0.49963  1.0000
  H   H697      1.0  0.49809  0.39822  0.94773  1.0000
  C   C579      1.0  0.67321  0.64964  0.59177  1.0000
  H   H698      1.0  0.54108  0.49068  0.66484  1.0000
  H   H699      1.0  0.50210  0.41643  0.68288  1.0000
  C   C580      1.0  0.97211  0.45976  0.53002  1.0000
  C   C581      1.0  0.79375  0.49985  0.54021  1.0000
  H   H700      1.0  0.95055  0.50105  0.53853  1.0000
  C   C582      1.0  0.57553  0.63314  0.74675  1.0000
  C   C583      1.0  0.50516  0.49026  0.68622  1.0000
  C   C584      1.0  0.50618  0.50258  0.77265  1.0000
  C   C585      1.0  0.50658  0.61367  0.76201  1.0000
  H   H701      1.0  0.50564  0.53495  0.64581  1.0000
  N   N39       1.0  0.81617  0.55090  0.56566  1.0000
  C   C586      1.0  0.79620  0.56588  0.57982  1.0000
  C   C587      1.0  0.83343  0.53984  0.58028  1.0000
  C   C588      1.0  0.82841  0.56553  0.54546  1.0000
  C   C589      1.0  0.80809  0.53350  0.55718  1.0000
  C   C590      1.0  0.82511  0.51778  0.54358  1.0000
  C   C591      1.0  0.78346  0.53185  0.56160  1.0000
  C   C592      1.0  0.81802  0.50117  0.53532  1.0000
  C   C593      1.0  0.77651  0.51525  0.55319  1.0000
  C   C594      1.0  0.52097  0.57287  0.61425  1.0000
  H   H702      1.0  0.80294  0.57853  0.58621  1.0000
  H   H703      1.0  0.78321  0.57582  0.56944  1.0000
  H   H704      1.0  0.78626  0.55600  0.59552  1.0000
  H   H705      1.0  0.82523  0.52805  0.59529  1.0000
  H   H706      1.0  0.83948  0.55256  0.58731  1.0000
  H   H707      1.0  0.85013  0.52993  0.57042  1.0000
  H   H708      1.0  0.81634  0.57339  0.53352  1.0000
  H   H709      1.0  0.83370  0.57956  0.55109  1.0000
  H   H710      1.0  0.84522  0.55608  0.53526  1.0000
  H   H711      1.0  0.84408  0.51828  0.53920  1.0000
  H   H712      1.0  0.76907  0.54322  0.57144  1.0000
  H   H713      1.0  0.50998  0.61150  0.82629  1.0000
  H   H714      1.0  0.95041  0.44260  0.57227  1.0000
  H   H715      1.0  0.94785  0.46619  0.58725  1.0000
  N   N40       1.0  0.64202  0.58113  0.73062  1.0000
  C   C595      1.0  0.64849  0.59936  0.73951  1.0000
  C   C596      1.0  0.66454  0.56811  0.71752  1.0000
  C   C597      1.0  0.62674  0.59236  0.71415  1.0000
  C   C598      1.0  0.62927  0.56541  0.74927  1.0000
  C   C599      1.0  0.62088  0.54769  0.74354  1.0000
  C   C600      1.0  0.62544  0.56664  0.77341  1.0000
  C   C601      1.0  0.60910  0.53244  0.76083  1.0000
  C   C602      1.0  0.61351  0.55137  0.79054  1.0000
  S   S170      1.0  0.73476  0.62625  0.49426  1.0000
  H   H716      1.0  0.63217  0.60991  0.74937  1.0000
  C   C603      1.0  0.66484  0.63061  0.60533  1.0000
  H   H717      1.0  0.65753  0.61121  0.72512  1.0000
  H   H718      1.0  0.67621  0.55862  0.72935  1.0000
  H   H719      1.0  0.67508  0.57940  0.70376  1.0000
  H   H720      1.0  0.66093  0.55554  0.70836  1.0000
  H   H721      1.0  0.60899  0.60116  0.72335  1.0000
  H   H722      1.0  0.63523  0.60516  0.70056  1.0000
  H   H723      1.0  0.62326  0.58020  0.70460  1.0000
  H   H724      1.0  0.62355  0.54539  0.72558  1.0000
  H   H725      1.0  0.63110  0.57945  0.77966  1.0000
  C   C604      1.0  0.56504  0.51709  0.92629  1.0000
  H   H726      1.0  0.61050  0.55276  0.80887  1.0000
  C   C605      1.0  0.60532  0.53436  0.78429  1.0000
  Fe  Fe88      1.0  0.72562  0.59228  0.49620  1.0000
  H   H727      1.0  0.55682  0.53667  0.95358  1.0000
  H   H728      1.0  0.53899  0.45077  0.95322  1.0000
  H   H729      1.0  0.78830  0.48696  0.53379  1.0000
  N   N41       1.0  0.50058  0.63439  0.79665  1.0000
  C   C606      1.0  0.51012  0.41653  0.63778  1.0000
  C   C607      1.0  0.52516  0.35144  0.61585  1.0000
  H   H730      1.0  0.96613  0.63667  0.53962  1.0000
  C   C608      1.0  0.54227  0.50358  0.74044  1.0000
  C   C609      1.0  0.54921  0.51930  0.74994  1.0000
  H   H731      1.0  0.86484  0.62856  0.52942  1.0000
  H   H732      1.0  0.88361  0.48051  0.56896  1.0000
  H   H733      1.0  0.90866  0.53455  0.51741  1.0000
  H   H734      1.0  0.58368  0.51919  0.92093  1.0000
  C   C610      1.0  0.88711  0.48872  0.55108  1.0000
  C   C611      1.0  0.95205  0.46369  0.51996  1.0000
  C   C612      1.0  0.54213  0.39545  0.65565  1.0000
  C   C613      1.0  0.51730  0.62435  0.81194  1.0000
  S   S171      1.0  0.88206  0.47713  0.48935  1.0000
  C   C614      1.0  0.99402  0.44720  0.51803  1.0000
  H   H735      1.0  0.60306  0.51894  0.75603  1.0000
  H   H736      1.0  0.51647  0.48373  0.74269  1.0000
  N   N42       1.0  0.49918  0.58110  0.63202  1.0000
  C   C615      1.0  0.55016  0.63873  0.97481  1.0000
  C   C616      1.0  0.52650  0.49899  0.67752  1.0000
  H   H737      1.0  0.53819  0.38199  0.61189  1.0000
  H   H738      1.0  0.51580  0.56364  0.66003  1.0000
  S   S172      1.0  0.55332  0.62193  0.61731  1.0000
  H   H739      1.0  0.84025  0.58184  0.49178  1.0000
  C   C617      1.0  0.52093  0.54555  0.82854  1.0000
  H   H740      1.0  0.49677  0.37127  0.92571  1.0000
  H   H741      1.0  0.54398  0.41098  0.66165  1.0000
  H   H742      1.0  0.96881  0.54454  0.57312  1.0000
  C   C618      1.0  0.59285  0.64859  0.77131  1.0000
  C   C619      1.0  0.88719  0.48964  0.51071  1.0000
  H   H743      1.0  0.52670  0.49138  0.91201  1.0000
  H   H744      1.0  0.52328  0.41717  0.62062  1.0000
  H   H745      1.0  0.84205  0.62569  0.50167  1.0000
  H   H746      1.0  0.93145  0.46947  0.56590  1.0000
  H   H747      1.0  0.54808  0.38048  0.66795  1.0000
  C   C620      1.0  0.89648  0.50966  0.50477  1.0000
  H   H748      1.0  0.69550  0.55711  0.49193  1.0000
  C   C621      1.0  0.54931  0.52722  0.94502  1.0000
  N   N43       1.0  0.51703  0.39643  0.65455  1.0000
  H   H749      1.0  0.75753  0.51445  0.55687  1.0000
  C   C622      1.0  0.51404  0.51834  0.78201  1.0000
  C   C623      1.0  0.60105  0.54864  0.94449  1.0000
  C   C624      1.0  0.53521  0.52658  0.77077  1.0000
  H   H750      1.0  0.52124  0.63737  0.82028  1.0000
  H   H751      1.0  0.67748  0.61559  0.61004  1.0000
  H   H752      1.0  0.51625  0.57165  0.59792  1.0000
  C   C625      1.0  0.52735  0.37066  0.62390  1.0000
  H   H753      1.0  0.95668  0.61412  0.48314  1.0000
  H   H754      1.0  0.53128  0.61280  0.95456  1.0000
  C   C626      1.0  0.54016  0.51044  0.85934  1.0000
  C   C627      1.0  0.90120  0.51921  0.52202  1.0000
  C   C628      1.0  0.51007  0.52962  0.70113  1.0000
  N   N44       1.0  0.96972  0.46867  0.55190  1.0000
  H   H755      1.0  0.87484  0.46392  0.53847  1.0000
  C   C629      1.0  0.88214  0.47937  0.53389  1.0000
  H   H756      1.0  0.98887  0.46732  0.57831  1.0000
  C   C630      1.0  0.59198  0.62889  0.78756  1.0000
  C   C631      1.0  0.50641  0.53093  0.84340  1.0000
  H   H757      1.0  0.56923  0.49650  0.89987  1.0000
  H   H758      1.0  0.89997  0.51770  0.48686  1.0000
  C   C632      1.0  0.51536  0.37538  0.64682  1.0000
  H   H759      1.0  0.54064  0.53884  0.77813  1.0000
  C   C633      1.0  0.51526  0.33672  0.48293  1.0000
  C   C634      1.0  0.51705  0.51179  0.93971  1.0000
  H   H760      1.0  0.65065  0.61649  0.48985  1.0000
  C   C635      1.0  0.96531  0.49382  0.54758  1.0000
  H   H761      1.0  0.66116  0.59231  0.75102  1.0000
  C   C636      1.0  0.98093  0.64629  0.53633  1.0000
  C   C637      1.0  0.52193  0.45442  0.96569  1.0000
  H   H762      1.0  0.83145  0.48932  0.52499  1.0000
  H   H763      1.0  0.50891  0.43278  0.64420  1.0000
  C   C638      1.0  0.94903  0.46133  0.57003  1.0000
  C   C639      1.0  0.57372  0.56603  0.97697  1.0000
  C   C640      1.0  0.98813  0.54228  0.56640  1.0000
  N   N45       1.0  0.50773  0.53524  0.97219  1.0000
  C   C641      1.0  0.50119  0.40007  0.67788  1.0000
  H   H764      1.0  0.95165  0.50730  0.48911  1.0000
  C   C642      1.0  0.51617  0.51318  0.85850  1.0000
  H   H765      1.0  0.50030  0.46841  0.80774  1.0000
  S   S173      1.0  0.50184  0.46636  0.67570  1.0000
  N   N46       1.0  0.52776  0.64472  0.96624  1.0000
  H   H766      1.0  0.53081  0.55595  0.62037  1.0000
  H   H767      1.0  0.74468  0.48738  0.49499  1.0000
  H   H768      1.0  0.63371  0.61594  0.62290  1.0000
  H   H769      1.0  0.52956  0.64602  0.76954  1.0000
  H   H770      1.0  0.54928  0.65005  0.57433  1.0000
  C   C643      1.0  0.80452  0.51721  0.48124  1.0000
  H   H771      1.0  0.61484  0.64989  0.50450  1.0000
  H   H772      1.0  0.50640  0.38655  0.69182  1.0000
  H   H773      1.0  0.50519  0.50200  0.87029  1.0000
  C   C644      1.0  0.85805  0.57578  0.48037  1.0000
  C   C645      1.0  0.64020  0.63076  0.61245  1.0000
  C   C646      1.0  0.51910  0.62347  0.96763  1.0000
  H   H774      1.0  0.51885  0.59261  0.65147  1.0000
  H   H775      1.0  0.56384  0.62578  0.96525  1.0000
  H   H776      1.0  0.77535  0.45330  0.47928  1.0000
  H   H777      1.0  0.98163  0.50020  0.53674  1.0000
  C   C647      1.0  0.50037  0.45745  0.95864  1.0000
  H   H778      1.0  0.86164  0.55689  0.48318  1.0000
  C   C648      1.0  0.50205  0.35907  0.66150  1.0000
  C   C649      1.0  0.98078  0.52408  0.48715  1.0000
  H   H779      1.0  0.51116  0.59392  0.73453  1.0000
  H   H780      1.0  0.99004  0.50880  0.49555  1.0000
  C   C650      1.0  0.50019  0.33980  0.65331  1.0000
  S   S174      1.0  0.50140  0.45372  0.92989  1.0000
  C   C651      1.0  0.50339  0.59561  0.75275  1.0000
  C   C652      1.0  0.95875  0.52284  0.48330  1.0000
  H   H781      1.0  0.99232  0.63643  0.54832  1.0000
  H   H782      1.0  0.50229  0.40991  0.90930  1.0000
  H   H783      1.0  0.99392  0.50602  0.57595  1.0000
  C   C653      1.0  0.99138  0.46081  0.56161  1.0000
  H   H784      1.0  0.80211  0.52946  0.49290  1.0000
  H   H785      1.0  0.76718  0.51754  0.48862  1.0000
  S   S175      1.0  0.49572  0.62340  0.87360  1.0000
  C   C654      1.0  0.49674  0.61608  0.78594  1.0000
  H   H786      1.0  0.57074  0.65009  0.93236  1.0000
  C   C655      1.0  0.58429  0.65085  0.75128  1.0000
  C   C656      1.0  0.54604  0.65165  0.61049  1.0000
  C   C657      1.0  0.68024  0.68758  0.45541  1.0000
  C   C658      1.0  0.70589  0.97178  0.41270  1.0000
  H   H787      1.0  0.71326  0.66719  0.46206  1.0000
  H   H788      1.0  0.50716  0.87170  0.37970  1.0000
  H   H789      1.0  0.53506  0.86747  0.40418  1.0000
  S   S176      1.0  0.51520  0.90181  0.43787  1.0000
  C   C659      1.0  0.53337  0.85087  0.41392  1.0000
  C   C660      1.0  0.57789  0.90870  0.44768  1.0000
  H   H790      1.0  0.58995  0.89988  0.45865  1.0000
  C   C661      1.0  0.56487  0.94168  0.42145  1.0000
  H   H791      1.0  0.51680  0.73767  0.42497  1.0000
  H   H792      1.0  0.53525  0.96996  0.45297  1.0000
  C   C662      1.0  0.55372  0.83824  0.42135  1.0000
  H   H793      1.0  0.52421  0.85452  0.46538  1.0000
  C   C663      1.0  0.55888  0.89903  0.44665  1.0000
  H   H794      1.0  0.61858  0.98055  0.44970  1.0000
  H   H795      1.0  0.56686  0.95834  0.41199  1.0000
  H   H796      1.0  0.49896  0.88891  0.40295  1.0000
  H   H797      1.0  0.68475  0.70332  0.45707  1.0000
  H   H798      1.0  0.62023  0.98029  0.40860  1.0000
  C   C664      1.0  0.53187  0.80822  0.44063  1.0000
  C   C665      1.0  0.54187  0.91140  0.43447  1.0000
  H   H799      1.0  0.50885  0.71737  0.18513  1.0000
  H   H800      1.0  0.49539  0.81344  0.43914  1.0000
  H   H801      1.0  0.50137  0.70626  0.16318  1.0000
  S   S177      1.0  0.59946  0.94476  0.44230  1.0000
  H   H802      1.0  0.55667  0.88262  0.45640  1.0000
  C   C666      1.0  0.55302  0.81691  0.43458  1.0000
  H   H803      1.0  0.72444  0.96308  0.41075  1.0000
  C   C667      1.0  0.50365  0.75471  0.45548  1.0000
  C   C668      1.0  0.50955  0.65936  0.98226  1.0000
  C   C669      1.0  0.51158  0.84236  0.41960  1.0000
  C   C670      1.0  0.51142  0.82077  0.43348  1.0000
  C   C671      1.0  0.97884  0.68633  0.45774  1.0000
  S   S178      1.0  0.99221  0.65778  0.40896  1.0000
  C   C672      1.0  0.58054  0.93023  0.43549  1.0000
  H   H804      1.0  0.57004  0.84522  0.41709  1.0000
  C   C673      1.0  0.54515  0.93248  0.42138  1.0000
  H   H805      1.0  0.53120  0.79170  0.45107  1.0000
  H   H806      1.0  0.98807  0.69341  0.44059  1.0000
  C   C674      1.0  0.65170  0.66728  0.45002  1.0000
  H   H807      1.0  0.94375  0.69841  0.45087  1.0000
  C   C675      1.0  0.66351  0.97048  0.42109  1.0000
  H   H808      1.0  0.56875  0.80724  0.44051  1.0000
  C   C676      1.0  0.68748  0.95934  0.41841  1.0000
  H   H809      1.0  0.50452  0.67103  0.47356  1.0000
  H   H810      1.0  0.64543  0.70350  0.44949  1.0000
  C   C677      1.0  0.50267  0.74998  0.43386  1.0000
  C   C678      1.0  0.65813  0.68764  0.45108  1.0000
  H   H811      1.0  0.64982  0.96006  0.42575  1.0000
  H   H812      1.0  0.51425  0.67639  0.98010  1.0000
  H   H813      1.0  0.53214  0.94205  0.41176  1.0000
  H   H814      1.0  0.69171  0.94094  0.42095  1.0000
  H   H815      1.0  0.63391  0.66867  0.44747  1.0000
  H   H816      1.0  0.50804  0.65181  0.00085  1.0000
  C   C679      1.0  0.99211  0.67339  0.47342  1.0000
  C   C680      1.0  0.69624  0.66719  0.45829  1.0000
  H   H817      1.0  0.51853  0.74606  0.46314  1.0000
  C   C681      1.0  0.95386  0.68904  0.46344  1.0000
  H   H818      1.0  0.94561  0.65347  0.40562  1.0000
  Fe  Fe89      1.0  0.58687  0.96885  0.51905  1.0000
  Fe  Fe90      1.0  0.57509  0.92090  0.52946  1.0000
  S   S179      1.0  0.55407  0.92882  0.50214  1.0000
  S   S180      1.0  0.57177  0.88730  0.55246  1.0000
  H   H819      1.0  0.63812  0.70463  0.55503  1.0000
  Fe  Fe91      1.0  0.53841  0.96138  0.51681  1.0000
  S   S181      1.0  0.60686  0.93570  0.50652  1.0000
  S   S182      1.0  0.55794  0.95292  0.54529  1.0000
  C   C682      1.0  0.53659  0.67772  0.89502  1.0000
  Fe  Fe92      1.0  0.56570  0.72611  0.50544  1.0000
  S   S183      1.0  0.52787  0.72512  0.52641  1.0000
  C   C683      1.0  0.53586  0.68971  0.62108  1.0000
  Fe  Fe93      1.0  0.56288  0.77502  0.51254  1.0000
  S   S184      1.0  0.58022  0.80583  0.49762  1.0000
  Fe  Fe94      1.0  0.53854  0.74152  0.55128  1.0000
  H   H820      1.0  0.50474  0.88509  0.59405  1.0000
  C   C684      1.0  0.55428  0.65773  0.92694  1.0000
  S   S185      1.0  0.57684  0.74103  0.53115  1.0000
  C   C685      1.0  0.49469  0.87449  0.49995  1.0000
  C   C686      1.0  0.60188  0.68216  0.56932  1.0000
  C   C687      1.0  0.51487  0.84439  0.52417  1.0000
  H   H821      1.0  0.49803  0.68285  0.90200  1.0000
  H   H822      1.0  0.50950  0.69546  0.49948  1.0000
  C   C688      1.0  0.61424  0.68574  0.50101  1.0000
  C   C689      1.0  0.62607  0.70229  0.50327  1.0000
  C   C690      1.0  0.64753  0.69589  0.51072  1.0000
  C   C691      1.0  0.98058  0.66315  0.49567  1.0000
  H   H823      1.0  0.61897  0.72006  0.49875  1.0000
  H   H824      1.0  0.53217  0.70078  0.63413  1.0000
  H   H825      1.0  0.49925  0.84606  0.53947  1.0000
  C   C692      1.0  0.54545  0.66105  0.58748  1.0000
  N   N47       1.0  0.50705  0.85042  0.50202  1.0000
  C   C693      1.0  0.54111  0.66600  0.62736  1.0000
  C   C694      1.0  0.54077  0.68469  0.58112  1.0000
  C   C695      1.0  0.52863  0.84705  0.48243  1.0000
  H   H826      1.0  0.56179  0.84204  0.56847  1.0000
  H   H827      1.0  0.54117  0.69166  0.56318  1.0000
  H   H828      1.0  0.50713  0.92827  0.49117  1.0000
  C   C696      1.0  0.57428  0.86450  0.53737  1.0000
  C   C697      1.0  0.58238  0.86674  0.51313  1.0000
  C   C698      1.0  0.58446  0.84845  0.50131  1.0000
  C   C699      1.0  0.57804  0.82791  0.51353  1.0000
  C   C700      1.0  0.56967  0.82568  0.53779  1.0000
  C   C701      1.0  0.56792  0.84393  0.54969  1.0000
  H   H829      1.0  0.58760  0.88240  0.50348  1.0000
  N   N48       1.0  0.61409  0.68916  0.58458  1.0000
  H   H830      1.0  0.56484  0.80984  0.54738  1.0000
  C   C702      1.0  0.65718  0.67293  0.51618  1.0000
  C   C703      1.0  0.59576  0.69704  0.60519  1.0000
  H   H831      1.0  0.97323  0.66330  0.54191  1.0000
  H   H832      1.0  0.61121  0.72341  0.56625  1.0000
  H   H833      1.0  0.59110  0.85025  0.48256  1.0000
  C   C704      1.0  0.53116  0.65635  0.94193  1.0000
  C   C705      1.0  0.64556  0.65629  0.51371  1.0000
  H   H834      1.0  0.52686  0.88847  0.49614  1.0000
  C   C706      1.0  0.95505  0.66603  0.50077  1.0000
  H   H835      1.0  0.94477  0.65803  0.51669  1.0000
  S   S186      1.0  0.52547  0.77708  0.53513  1.0000
  C   C707      1.0  0.62409  0.66270  0.50604  1.0000
  C   C708      1.0  0.53609  0.69913  0.59784  1.0000
  H   H836      1.0  0.51110  0.94426  0.56655  1.0000
  C   C709      1.0  0.50935  0.92855  0.57919  1.0000
  C   C710      1.0  0.65702  0.66890  0.58526  1.0000
  H   H837      1.0  0.53871  0.68553  0.87701  1.0000
  Fe  Fe95      1.0  0.51872  0.76042  0.50803  1.0000
  S   S187      1.0  0.49848  0.97386  0.52263  1.0000
  H   H838      1.0  0.50714  0.92134  0.53766  1.0000
  H   H839      1.0  0.53672  0.82877  0.48177  1.0000
  H   H840      1.0  0.63438  0.71520  0.58202  1.0000
  S   S188      1.0  0.56589  0.97970  0.49180  1.0000
  H   H841      1.0  0.58514  0.68391  0.61502  1.0000
  C   C711      1.0  0.50775  0.89216  0.49705  1.0000
  C   C712      1.0  0.62502  0.70893  0.57145  1.0000
  C   C713      1.0  0.63175  0.66951  0.59202  1.0000
  H   H842      1.0  0.92258  0.68039  0.48895  1.0000
  H   H843      1.0  0.50197  0.81636  0.50249  1.0000
  S   S189      1.0  0.53161  0.72889  0.58993  1.0000
  S   S190      1.0  0.55553  0.75986  0.48463  1.0000
  H   H844      1.0  0.52107  0.89608  0.55297  1.0000
  S   S191      1.0  0.58726  0.69385  0.49181  1.0000
  C   C714      1.0  0.51373  0.67620  0.90909  1.0000
  H   H845      1.0  0.54139  0.65889  0.64521  1.0000
  H   H846      1.0  0.60430  0.70183  0.61746  1.0000
  H   H847      1.0  0.65668  0.70880  0.51229  1.0000
  C   C715      1.0  0.55681  0.66850  0.90393  1.0000
  H   H848      1.0  0.61509  0.67589  0.55377  1.0000
  C   C716      1.0  0.50341  0.90749  0.55242  1.0000
  H   H849      1.0  0.58238  0.71205  0.60012  1.0000
  H   H850      1.0  0.52495  0.82659  0.52604  1.0000
  H   H851      1.0  0.52723  0.85532  0.52516  1.0000
  H   H852      1.0  0.52763  0.91767  0.57753  1.0000
  H   H853      1.0  0.58854  0.69643  0.56304  1.0000
  H   H854      1.0  0.66489  0.68276  0.57428  1.0000
  C   C717      1.0  0.94200  0.67887  0.48487  1.0000
  H   H855      1.0  0.58442  0.66650  0.73923  1.0000
  C   C718      1.0  0.51107  0.65252  0.77934  1.0000
  H   H856      1.0  0.50404  0.93345  0.59694  1.0000
  Fe  Fe96      1.0  0.58423  0.94608  0.48046  1.0000
  H   H857      1.0  0.54337  0.85471  0.48402  1.0000
  C   C719      1.0  0.51099  0.66565  0.93217  1.0000
  H   H858      1.0  0.59972  0.66239  0.77449  1.0000
  H   H859      1.0  0.51296  0.66647  0.78778  1.0000
  H   H860      1.0  0.57463  0.66903  0.89269  1.0000
  S   S192      1.0  0.68283  0.66578  0.52752  1.0000
  H   H861      1.0  0.55811  0.65395  0.97333  1.0000
  H   H862      1.0  0.59202  0.66823  0.57836  1.0000
  H   H863      1.0  0.51463  0.98378  0.56084  1.0000
  H   H864      1.0  0.49982  0.66015  0.76661  1.0000
  C   C720      1.0  0.49661  0.91502  0.49442  1.0000
