data_image0
_chemical_formula_structural       FeS2FeS2FeSFeS3FeCSFeSFeS2CHSHSC4H2C2H2CHC4H2C6H4C6H6NH4CFeHCNCHCH2C2NCHC2H4SHCHCH2NC9H17NH2SCH2C2H3C4HCH4CSC3H2CH4CHCH2FeCH2C4HCH2SC2H4SCH3CHFeS2FeS2FeCFeS3FeS2FeS2FeSFeS3FeS2FeS2Fe2S3FeS2FeS2FeSFeS2HC6H5C6H4C6H4C6H4C6H4C6H4C6H4C3SC2H3CNSHC2H3NC2H6CH3CHC2HC3HCHCHNC4H3CH4CNC2HCH2CHCHC2HCH6NHCH4CH2CH5CHCHC2H3NC9H14NC9H14NC9H16CHCH3CH5C2HCHC3H3CHFeCH4CH7C2H6CFeS2FeS2FeSFeS3FeS2FeS2FeS2FeSFeCS4HFeS2FeSFeCSFeS2FeS2Fe2S3FeS2FeS2FeSFeS3HFeCS2H2S2CNCHSCH5CHC9H4C2HC6H4C7H4C6H5C4H3C6H6CH2C6H4C6HCH2C6H4SC3HCNHC2HCHCHFeH6CHCNCH4C3HFeH2SC3SHNC9H17CHNH2C3H7CHCHNH6CH2SC6H8CHNHSH3CH2C2HFeH2CH3C3H5CH7CHC2HNC9H15C2HCHCHC2H2C6HCFeCHCH3CFeCH3C2HCH3CHSFeC2HCH3C2NHCHCHCHCH6CH2SHCH2C2HC4HC2SC2SH4CH7CHCHNHFeSFeS2FeSFeS3HCSFeS2FeS2FeSFeS3FeS2FeS2FeSFeS3FeS2FeS2FeNFeS3FeS2FeS2FeSFeS3HCHSHFeSHCHFeS2FeS2FeSFeCS2H3C2HC7H4CHC4FeH6C6H4C6H4C6H4C2HC3H4C6H4C2H3C6H4C6H2CHC4FeCHC6H4C6H5CH2CH2CHC4SH4CH2C4HCH2NSH3C3HNHC2H2CH3C2H2CHCH2C4HNC2NC9H20C2H2CH2CH4CH2CH2FeH2CH4CH2C3HCH6C2H3CNC2H8C2HC4SC3HC3H4NCHC2NCH6SC2HCHC2NCH2C2HCHCHSNH3CHCHCH2NC6H2CH11SH2CH4CHC2H2CHCH3CSH2C3H3CSCHC3H3CH3CHCSCH2CHNHCHC3H3C3HCHCH2CHC3NCH3CHNC2H3CNH5C2HC4H4NH2CHC2SC4H2C2HSCHFeCHC2H2C2H2CH5FeHFeS2FeHFeCS2CSH2SCHFe2HSHNSCFeSFeSHSFeS2FeS2FeSFeS3CSH3CH3C7H5CSCHC6H4C6H4C7H5C2H2CH10NH2CHC2SH2SNH3C2HCHCH2CHCH5CHC2FeHC3HCH2FeNCH2C6SC3SH2CH6NC9H14C2H2C2HSHC2H3C3HSH2C2H2C2FeSH2CHCH3C2HCH2FeS2FeS2FeSFeS3FeS2FeS2FeSFeS3FeS2FeS2FeSFeS3HCSHSH2FeSFeCFeS2FeS2FeSFeS3FeS2FeS2HFeS3HC4NH3C7H4CHCHC7H4C6H4C2HCHCH3C6H4C6H4C6H4C6H4C6H4C6H4CHC2H3C2H3CHCH3NC9H14CH4C5NC2HC3HCH12C3NC9H14NC9H14C2H4SHFeH3CH2CSNHC3H3C3HCHNH2C2H2CHFeH2CN2C2SH11CH5C2H2CHC2HCH3CNC4H2NHCH2CHCHC6H4C2H2CH2CHCHCH2C2HCHCHSHCH8CHCH3CH2CHC3HCH2C2HCH2C2FeS2FeS2FeSFeS3FeS2FeSHFeSFeS3HSHCSC2NHFeS2FeS2Fe2S3FeS2FeSFeSFeS3C7H6CHSC2HC6H4C6H4C6H4C6H4C6H4C6H4CHCH2NH2CH6CH3CH2C2HCH6CH2CH2CH3C2H4C5HN2HC5H4FeH2CH3C3H2CHCH2CH2C2H6C2H3C4SCHCH3C2H2NHSC3H3CHCHCHFeHC3HNH2CH4NCH4C2HFeH2C2H8NCHFeHSFeSCFeS2FeHFeS2C2HS2HSCHFeSHSC6HNHCHSCH3C7H8CHCHCSH4SHSHCHC2H2CFeC2H2C2SC2HCH2C2H2C2HCNC2NCH2C2HCHFeCHSCH2CH3SH2CH3C2HCH2NCH3NHCFeH5C2SCHFeSHCSH2SCHCFeS2FeS2FeSFeS3FeS2FeS2FeSFeS3CHSHSHFeSH2C2FeS2FeS2FeSFeS3CHCH2C6H3CH2C3H4CHC2H3C6H4C6H4C6H4CH2C3H3C6H4C6H5C5HCH6CHCHC2H3C2HC2FeHSCHCH2CHC2HCH2CHC2SCFeH2SH2CHCHCH2NFeHCH3CHCHC3H5CH4NC9H14NC9H14NC9H15C3HC6NH8NC3H7CH3NC9H2SHCHC2HFeNC2H2C2HCHC3HSHSH2C2SH3CFeSFeSFeS2FeSFeS3FeSCFeS2FeSFeS3FeS2FeS2FeSFeS3FeS2FeS2FeSFeS3FeS2FeS2FeSFeS3FeHSFeSCHS2H2C3HC2H3C7H4C6H4C6H7C6H4C6H4C6H4C6H4C6H4C2H3C6H5CHC3H2CH4CH3SCHC3HCH8C2HC2H3CHCH2C2H2FeH4CHCH2CNSHS2H2NCSHCHC2HCH2CNHCHSH3NC9H14NC7H8NC9H13CH2SH6CH3CNC2H4CHCHC3H2CNC2H2NCH2C3HCH2C2H2C2NC2NCH4SH5CHCNCH4C2HCH2FeHCH3C2H2CHC2H3CH2C2H3CNSH3C2H4CHCH2C2HCHC2HCHCH3C2HCH4CHCHCH4CFeHCH3C2H3C2HCH2CSFeS2FeS2FeSFeS3FeS2FeS2FeSFeS3HCFeS2FeS2FeSFeS3FeS2FeS2FeSFeS3FeS2FeS2FeSFeS3H2FeSFeHSFeCHS2H4CNCHC2HSHC2SHC6H4SCHC6H4C5H4C7H4C2HC6H4C6H4CHC4HCH2C6H4C6H5C4H4C6H4NC4H3SCH3CHC2H2C3HC5H7NC9H16CHCH2C2HCH4C2H2CNC9H15CHC2HSH2C2H3C2H3CH2C2HCHC2HC2HCFeC2HC3HCH5NC9H14CHNCH2C2H3CH5NHC2HCHCHNHCH2CHCH8CH3CHCNCH3CH4CH2NCHCH3SHC6HCH2CH5CNH3CHCHCNCHC3HCH2CHCHC2H2CSHFeS2FeS2FeSFeS3FeS2FeS2Fe2S3HFeH2FeHSFeSHSHFeS2FeS2FeSFeS3FeS2FeS2FeSFeS4H2C2H5C6H5SC6H8C2HC2HCH2C6H4C6H5C7H4C6H4CHCHC3H2C6H8CHC2HC2H2C3HCH2NH7CH2C3H2C2HC5H3C5H2CHCH4NC9H16CHNC3H2C2HNH4CHNH5CHC2NC9H16CHC2H4NC5H2CH2CH3C4HNCH4C2HNSC2H7C3H5C2H2SH7SC6SFeSHCHSHFeSFeSFeS2HSC2HC4H3CHC6H4CSHC4HCHCNCHC3HCSHC2H2NH4C2H2C4HC3H4SH3FeHCHCH2FeHCHSH4C2HC2H2SHC2HCH2CH3CH3C4HCHC2FeH5CHCHC3H3NH3NFeS2FeS2FeSFeS3HFeS2FeS2FeSFeHS2H3FeS2CFeS2Fe2HFeS2HNHC3H3C4NHC3HSCH3CHC4SH4C6H4C6H4C6H4C6H3CHC2H3CH2C4H2CH2C2HCH2CH2C3SHCHC2HCHCH5C2HCH3C3H6C2HCHC2H5CHCNCHNC9H14CH2SHSC2H3C2H3CNHC2FeCSH3C2HNCH2NHC3HC2HCHC3H4CHC3H3C3HC2HCH4SHCSH4CHCH4C2HC2HFeSFeS2FeSFeS3FeS2FeS2FeSFeS3FeS2FeS2FeSFeS3FeS2FeS2FeSFeS3FeHSFeCSH3S2FeS2FeS2FeSFeS3H6CH2FeS2FeHSCHCFeS2HCHCHSC3HCHC2H2C3H3C7H2CH4C6H4C6H5SH5CH2C2HCHNHC4HC3H4C6H4C6H4C6H4C6H4C6H4C4H2C6H4C6H4C6H7CH5CH2CNC10H7NH4NC7H11NC6H9NC8H12SH2NC7H12CHCH2CHC2HCSC2H2CH2CHC2H2C6Fe2HCHCHCHNH5NCHC4HCH6CHC2H2C2HCNHC4HC2SH3CHCH5C2HC3H5C4H3C3H3CNHNCHCH6CNCH5CH2C2HCH5CH2SC2HCH3C3H4CH3CHC2H5C2HCH2SNCH3CH2SHSH2Fe2H2FeCHSCFeH2CH3NFeSCH3S3CFeS2FeS2FeSFeS4HSFeS2FeSFeS2CSCHC2HCNCHCHC2HC5FeCH2CHC6H4C5HCH2NC11HCH10NC9H14CHCHSCHCH2CHC2HCNH2CH3CHC2H2C2H7C2HCH3C2H5CH3C2HC3FeH2CH3CH2C2H3CHC2NH2C2HCH5NH6CNC2FeS2FeS2FeSFeS3FeSFeS2FeSFeS3CHSH2CH3SC2FeCSFeSHSHFeS2FeS2FeSFeS3FeSCFeSHFeSFeS4CNCHC7H4C6H4C3HSCH6CHNCHCH2C4H5C6H4C6H4C6H4C4HCH2CHC6H4C2HC3H3C2H2NH2C10SHCH2CH4CHCHC2H2CN2CHC2H3CH2CHCHCH5C7H6C6H8CH4CHCFeH2C2H4C2HCH3C3NCH2CH3C2H4C2HSH2CHCHNC9H14C6H5CNCHC2H2CHC2H3SC4HCNH3CHCH2CH3NH5CHCHCHCHC2H3CH4CH4CH3NC2H2NH3FeS2FeS2FeSFeCS2CFeS2HSHFeSFeS3FeS2FeS2FeSFeS3FeSHSFeS2FeS2FeSFeCSHSHCHSCHCFeSCNSH3C2H4CHC2H6CH5C3HC2HC7H3SC6SH2C2HCH2SH5C2HFeC6H4C6H5C6H2CHC6H4C7H3CHC6H5C3H2NH2CH2SNC9H15SCNC4HCH2C2HCH2CSH3CNC9H14NC6H4CH2NC10HSHCH10CH4CFeCHCH2CH4S2H4NC4H2C2HC3HC2H9SHCH2CNSCH2CHCHSH2C2H3CS2CHSFeHCHFeCH2FeHCH2C2HCNCH2C2HS2C2H2C3HCH3C2SC3HCHCH4CHC3H2C2HCHCFe2H3NHCH2CFeCNHCH3CHCSC3H3CH3CH6C5HCHC2SH2SHC2HFeCHSCHC2FeH2SC2NH7CH2CHCHCHFeS2FeS2CHFeS3FeS2FeS2FeSFeS3FeS2FeS2FeSFeS3FeS3HFeSFeS3FeS2FeS2FeSFeS3CHSHNFeS2FeS2Fe2S2HCFeS2FeHSFeHCHS2FeS2FeS2FeSFeS3C6H4CHC6H4C3H2CH4C4H5CH2NC6H4C6H4C6H4C6HCH2CHC2H3C7H4C6H4C6H5C2HCH2CHSHC4H2NC6H4C6H4CHNHCHCHC8H10CHCH4C3H4C2H2CHCH2CHCHCH5C2HC2HC2H5NC9H17CH3CH2CHCHCH2CHCHFeCHCHSNHC4HCSHC2HCSHNHC2H2CHCH2CH2CHCH5CH4CH2NCNH3C2NCHC2HCNC3H8C4H4SCH4CH4CHCHCH2CHCFeCH2C4HCHCHNC7HCHCH3CFeH3CH2C2H2C2HC2NC9H14CH6CH2CHC2HC2H4C2H3NH5C2H3CH2CHC2HCNFeHCHCH4FeS2FeS2FeSFeS3FeHSFeSCS2C4H2C6H4CH3C8H5SH2CH3CHCHCH4CHCH2CHC2H2CHCHCH2CH2CHCH5C2NH2CHC2HCH4CH5CHC2H2SHC3H2CH6CNH2CHC3S2CHNHCSCH2CHC4HCHC2FeCFeH2CNCH3SCH3C2HN2H2CH3C3HCSH3SHC2H2CHCHC4SHFeS2FeS2FeSFeS3HC2HC2HC6H5CHCHCSHCHC2H2C2HC2H3C3H2CH3SC2HCH2CH2CHCH4CHC2H3CH2NH5CHCFeC5HCHCNC3H2CH6C2H2C2H3C3HC2NHCNHCSH2CHCH2CH2C2FeS2FeS2FeSFeS3FeS2FeS2FeSFeS2CH4CH2SHFeS2HSFeSFeS2HFeS2FeS2FeSFeS3FeS2FeS2FeSFeS3H2C2H2CHCH2CHC6H4C6H4CHNCNHCH2C2HC7H6C3H4C6H4C6H4C7H4C6H4C3HC3H2C6H6C2SC2NH3SCH2C3H2C2H5CH2CH4CHCH2C2H2C2HCH2NH3CFeH2C3H2CHC2HSNH2CH3CHCHCH7CH2CH4C2H2C3H2CNH2CHC9HNC9HC2H3NC2H5CH4C2HCH2CH4CH2NH2CHNC9H18CHCH3C2H3C2H3CH4CH7CHCSCH2CHC2H3SCHC2HC2HSH2SNHFeCSFeS2H2FeCS2H2CHSCHC3FeS2FeSHFeSFeHSHS2CSCFeS2FeS2FeSFeS3HCFeHSHCH2CSFeS2FeS2FeSFeS3N2C8H4C6H2CHC8H4C5H4CH2C6H4C6H4CH4SCFeH3SC9H4C6H3CFeHC2HSC2H2C5HCH8CH2C2H3CHNC6H7NHCN2HC2HSCH2NCH5SHCH6CH3C3H2C2FeH2CH2CHCH2CH4CSHC3HCFeH3CH3C4H2CHC2FeH2SHCH6C2H3C2HCHC4H2CHSHCNCHFeCHCFeH5NC9H15SNC3FeC2H8CHSC2H4CH3C4H2C4HCHCHC2SHCHC2H4C2HC3S2CH2CHCFeH4CH3CNCHC2H2NH4CH2CH2CHC5HCNCH4CH2CSC3H2C2H2CH4CH3SC2H4FeC2NHCFeSFeHSFeCHS2FeSFeS2FeSFeS3HC3FeS2Fe2S2NFeS2FeS2FeSFeS3HFeS2FeS2FeSFeCS2FeS2FeS2FeSCS2FeS2FeSHFeSFeS4NHC6H4C6H4C6H4C6HCH2C7H4CHC4H5CSHNC2H2CHCH5C6H4C6H3C3SC4H2C6H4CHCNCH2CH4NC9H16CH3CH2C3H4S2HCH4NC5H2C3H2CHCHC2HNC9H18NC5H10CH2CHCHC2HC2H4CH5CHC4HNH3CH2CH3CHC2HCH2CHC3H2C2H2CH2C3HCH6CNH2CH3C2H3CSHFeCHSC3SH2CHCH2NCHCHC4H2S2CSH2CH2FeHC2SHC3HC2HC3H2C2H4CH6CHCHCNHC3H3CHCH2SFeHNHC2H3C2H4C2H3CHCHCHCHC2HC2H2NHC3H4C2HFeH5SH6CH2CH2C2S2CFeHSCHS2HC2H2NSCH6FeS2FeS2FeCFeS3FeNSFeHSC2HSFeC6H5C2H2FeC3SC6HC2NCHFeH2SH2FeC3H2C2HC4H4CH2C6H8FeCHS2H12NC8HCHSFeCH3C2H2C2SHCHSC3HC3HCH3C2H2S2CH2C2HC2H4CSH5CNCFeHCHSHCH2SCH4CHSC2H2C3NHC2SH5CHCHCHC2H2CH2CNHCHC2HCHFeHSFeS2FeHFeS2HCFeHSH3SH2FeS2FeS2FeSFeS3FeS2FeS2FeSFeS3FeS2FeS2FeSFeS3FeS2FeS2FeSFeS3FeS2FeS2FeSFeS3H2SC6H4C6H4CH2C2H2FeH4C9H4C6H4C6H4CNHC2HC6H4C6H4C6H4C6H4C2HC6H4C3HC2H3C2HNC2H3CHCH7CSHCHC2H4CHCHCH3C4HCH3C2H2N2HCHCHCNCH2CHFeSH2CH2NH2NC9H14C6H6NC9H17C2HFeH2CH2CHNH4CH2C2NC9H14NC9H14NC9H15CH4CSHCHCHCNHCHC3H2CHC3H2CH2CHC2HSC2SC2H4C2H4C3H2CH2CH2NHCH4CHNC2H2CHC2HNCHC2H3C3H4SC2HC3HC2HC2FeS2FeS2FeSFeS3FeS2FeSFeSFeS3FeS2FeS2FeSFeS3FeS2FeSHFeSFeS3HFeHC2H2FeSHSH2C6H4C6H10CHCSCHC6H4C6H4C6H4C6H3C7H5C4H3C5HNC6HCH13CHCH2C2HCH2NHNC2H5CH2C2H5CHC2HCH4CHSC3HC2HC2H5NC9H11CHCNC9H15CH2C3H4CHNC4HCH2SH2CH5C2HCHCNC2H7S2H2C2H4CNC9H3CHFeCH4C2HNC2H3CHSH3SHCH4CHFeSHCSFeSFeH3S2HC6H4FeC3NH4CH2CH2SNH7CFeH2C3HC2H3SC5H2CSC3HFeHSCHC5H6C2H2C2HC2HC3HSHSC2SHSHCH3CHCFeH2CHCS2CHCH4CHC2NH2C3HCHSCFeS2FeSCFeSFeS3FeS2FeS2FeSFeS3FeS2FeS2FeSFeS3FeS2FeS2FeSFeS3C2HSH2C6H4C6H4C4H3C3HC2H4C6H4C6H5NHC2H2C6H7N2C4HCH2C7H3C2HC3HCH3CH2C4H2CHC2HNFeH4CHCH3C2HCHCH3CHNHC2H2CHCH5CH5CH2CH2CNCH2C2HSHC2HNHC2H3CHCHNH2NC9H15CH4NCHC2HCHC4HC3HCHCHCH2CH3CH2CH7CH3CHNHC5H2CH2CHC2H11CHCHC2H2SCH2C2H2CHCHCH4CHC2HSFeS2HSFeSFeS3CFeS2FeSFeSHSFeS2FeS2FeSFeS3FeS2FeS2FeSFeS3CHFeSCSFeS2FeS2FeSFeS3FeS2FeS2FeSFeS3C6H4C6H4C6H4CH3CH5C6H4C6H4C6H4C6H4C6H4SC3H2C6H6C6H2CSH2NCH2CH2SH2C2HCH2C3H11NC9H14NC9H17NHCH4CH3C8H3C4H3CNHC3HCHC2H2NC8H15CNC9H14SCH6CH4C2HNC2H2NC2H2FeCHC2HC2H2CH2CH3CHCFeCNC5H10CNH2C2HCH3C4HCHC2HFeH3FeC2HC2HCH4C2NH3CH4CH2CH2C2H4SH2CHCHSHC2FeSCFeS2FeSFeS3FeS2FeS2FeSFeS3FeS2FeS2FeSFeS3FeS2FeS2FeSFeS3FeS2FeSFe2SFeS3CFeSCSHC2H2C2HNHC6H4C6H4C7H3C6H4C6H4C6H4C6H5CH3C6H4C3H2CH4CH2C4H3NC4H4C2HC2H6NC9H14NC9H11NC9H14NC9H16CHC5NC3H3CHCH2C2HCH5CH3CH2CHCH4C2H2CNC9H15C2H2SHNHNHCH3CH2C2HCHC2HC3H3CHFeHSHCH2SH3CH2CSC3H7CHCHCHC2H4NH2CHCH5CHC5H12NHCH3NC2HCHSNH2CH3CH2C2H3CHFeS2FeS2FeSFeS3FeS2FeS2FeSFeS3CFeS2FeS2FeSFeS3FeSHFeS2FeSFeS3FeS2FeS2FeSFeS2CHSH3CHC6HCH3CH3CH3CHC7H4C6H4C6H4C6H4C2SC2H2C2HC6H4C6H4C6H4CHC2H2CNCHCHC5H2CHCNH2CHCH4NC5H3C2H12CFeH3CHC3H5CHCHCH2SHC3H6NC2H2C7NC9H13C4H6CH3C2HCH5CHCHC2H2CHCH2NC9H14NC9H9CHCH2NHCH4C2H2SCFeSFeS2FeCHSCSFeHSFeHSH3S3CH3CH3C3H4C6H5C2H2C7H5S2H3C4H3SC3FeH4C3SHFeNSCH2CHCHCNHFeH2CH3CHNHC5H2CH2C4NH5CHCH2SH4CHCSH2CHFeHC2HCH2CHNH2C2HCH3FeSH2SFeSFeSH2FeS2FeSFeSFeS3FeS2FeS2FeSFeS3C2FeS2FeS2FeSFeS3H2CNC7H4C6H4CH2NHC6H4CHC6H5C6H4CH2CFeNC7H3CH8CHCH2C5FeH2C2NC9H16CHCHC4H3CH3SH2C3NHC2H7CHC2H2CH5CH3CHS2HC5H3CHC2SC2HCH5NHCHC4H3CH2NH4C2H6C2H2NHCHC2HCH2CH4CHC4HC2NH3CH2S2NH2SH3C3H2C4HC2FeS2FeS2FeS2FeSFeS2C2FeCSCHS2HFeS2FeS2FeSFeS3FeS2FeS2FeSFeS3FeS2FeS2FeSFeS3H2FeSHFeSFeH2C6H4C6H4C6H4C2HCH2C3HCHCHNCHCHC6H4C7H2SH2CSHC6H4C6H8C6H4C6H4C6H3NC9H14NH2C3H2SCS2C2HC2H7NC9H15CH6CH2CHCSNH2CH3CHCHSCH4NC6H11NC2HSCHCHFeH2CH2SCH2C2HC2HCHNH2CH2CH2CHCHCH8CH4CH2CNC2HCHSCHCH6C2HNC9H13NC6HC2H6CH5C2H7C2NC4H3CFeHCSCHFeC2HCHCFeC2FeS2FeH3S2CSCS2NFeSFeSCSHC2SHSH2CHC2H2C7H4C4H3CH2NHC3H2C6H4CH4C2HCFeCH3CHFeH2C2HCSC3HC2SHC7HC2H3SH2FeH3CHFeSH2NHCSFeCH2SCH2CSH3CHCH2C2H3CHCHC3HCHSH2FeHCNH4C3HSCH2FeS2FeS2FeSFeS3FeS2FeS2FeSFeS3HFeS2FeS2FeSFeS3FeS2FeS2FeSFeS3FeS2HCFeSFeSCSCSH2SH3CHCSCHFeS2H7FeHC2H4CHFeH2NHCHC2H3C6H4C3H2CH2CH3C2HCH5C6H4C6H4C6H4C6H5SC2H2C6H4C6H4C6H4CHC2HNH4CHNC9H14CFeSCHC2HC2HCH3CH2NC9H14CHCH3CH6SCHCH3CH2NCHCHCNCH3C2H2NSHSC2HCH2CH2SC2NH4CH2NHC2H2CHC2FeHC3H2CHC2H6C2HNC2HCH4C2H2CHCH2CHC2H3C3H2CHNCH2CNCHCH4C2SC2HCHC2H3C3SHC3HCHCNHC6H2CH2CSCHCH3CH2CHCS2CHCH3CH2FeSFeHCH2CH2C2FeHCFe2C5SHSFeHSCHC2H2CSHNHSHCSHCSHSHFeS2FeS2FeSFeS3CHSH2FeS2FeS2FeSFeS3C6H4SCFeC6H4C6H4C7H6CH2C3H12CFeC2HCH3C2H2CH2C6H4CHC6H5NCH2CHC2HCH5C2H2CH2CN2C2HC6H6C2NH2CH3CNCHCH2SFeHC2H11NCHC4HCH5CH6S2HCHCH2C4H4C2H2CSCNC9H16SCHFeHCH3C4HSC2H4CH6CHCHC2H3CHC2HCHNC2H2CHC2HC2H6CHSHC2HC2HC2H5CHC4H2NH2CHCH2CH2CSCHCSCNCFeC2HSH2C2H4SH3CSNH2C2HCHC2H3SCHSHC2H2C2HCHC2H5CH3C2SHC5FeSH4SCH2C2HC4HNCS2HCHCHCNCFeH2FeCH2CSFeS2FeS2FeSFeS3C2SHCHC2FeSCSFeS2FeS2FeSFeS3H2FeS2FeSCSNCHSHCNFeS2FeCSFeSH2S2FeS2CSFeSFeS3C6H4FeCH5C2SHC6H4CHCH5C6H5CHC3H4C2FeH4NFeC8H4C6H4C6H4C6HCH5FeHCH2CHNC8H12SCH9SHC5FeC2H2C3H2CH5C2NC9H16CH5C3H2FeHSCH4CHCH3SH2C2H4NC9H11C2HC4HCH2NCHNC9H11CSC2HC2HNH3C3HCH2C2H3FeCFeCH3FeCHSH5CH2N2CFeC3HSFeH4CHCHCHCH3CHCSHCHFeCSH2CSHSFeS2FeSFeSHSFeS2FeS2FeSFeS3HSC3H2C6H4FeC9H2SHC4H4CHC6H4CFeCH3C2HCSH5SHCH3C2FeHCFeC2HFeHSCHCH2CHC3HC2H2C2H3CH4NH2C2H3C2H4CHSH4CNCHC7HCSHCH3SH6NC4H2CSC3HCHCH3SHC2H3CH
_chemical_formula_sum              "Fe768 S1536 C5760 H6912 N384"
_cell_length_a       127.174
_cell_length_b       127.934
_cell_length_c       128.473
_cell_angle_alpha    74.152
_cell_angle_beta     74.1643
_cell_angle_gamma    74.1581

_space_group_name_H-M_alt    "P 1"
_space_group_IT_number       1

loop_
  _space_group_symop_operation_xyz
  'x, y, z'

loop_
  _atom_site_type_symbol
  _atom_site_label
  _atom_site_symmetry_multiplicity
  _atom_site_fract_x
  _atom_site_fract_y
  _atom_site_fract_z
  _atom_site_occupancy
  Fe  Fe1       1.0  0.41048  0.20408  0.12565  1.0000
  S   S1        1.0  0.39604  0.19563  0.13365  1.0000
  S   S2        1.0  0.41174  0.22193  0.11974  1.0000
  Fe  Fe2       1.0  0.42757  0.18261  0.12530  1.0000
  S   S3        1.0  0.41491  0.17195  0.13291  1.0000
  S   S4        1.0  0.44604  0.17584  0.12180  1.0000
  Fe  Fe3       1.0  0.40463  0.18457  0.12149  1.0000
  S   S5        1.0  0.39479  0.17885  0.11283  1.0000
  Fe  Fe4       1.0  0.40742  0.18369  0.14444  1.0000
  S   S6        1.0  0.40347  0.17814  0.16313  1.0000
  S   S7        1.0  0.41814  0.19394  0.11270  1.0000
  S   S8        1.0  0.42098  0.19339  0.13762  1.0000
  Fe  Fe5       1.0  0.39702  0.21399  0.05414  1.0000
  C   C1        1.0  0.43377  0.18215  0.07643  1.0000
  S   S9        1.0  0.38416  0.20517  0.06613  1.0000
  Fe  Fe6       1.0  0.41135  0.21538  0.03084  1.0000
  S   S10       1.0  0.41614  0.20907  0.01494  1.0000
  Fe  Fe7       1.0  0.42031  0.21754  0.04992  1.0000
  S   S11       1.0  0.43405  0.21234  0.05939  1.0000
  S   S12       1.0  0.41368  0.20414  0.04726  1.0000
  C   C2        1.0  0.44152  0.15041  0.16726  1.0000
  H   H1        1.0  0.43241  0.16939  0.14549  1.0000
  S   S13       1.0  0.47427  0.21326  0.10609  1.0000
  H   H2        1.0  0.38622  0.22230  0.07917  1.0000
  S   S14       1.0  0.38253  0.21012  0.98578  1.0000
  C   C3        1.0  0.39194  0.21113  0.99323  1.0000
  C   C4        1.0  0.39502  0.21318  0.01048  1.0000
  C   C5        1.0  0.40661  0.21069  0.00648  1.0000
  C   C6        1.0  0.41080  0.20888  0.99566  1.0000
  H   H3        1.0  0.37100  0.23423  0.12951  1.0000
  H   H4        1.0  0.44200  0.14458  0.14794  1.0000
  C   C7        1.0  0.45454  0.18831  0.07379  1.0000
  C   C8        1.0  0.44543  0.22163  0.06844  1.0000
  H   H5        1.0  0.45931  0.16772  0.08690  1.0000
  H   H6        1.0  0.45878  0.16081  0.15473  1.0000
  C   C9        1.0  0.41345  0.22448  0.14456  1.0000
  H   H7        1.0  0.42599  0.15844  0.15435  1.0000
  C   C10       1.0  0.39500  0.23307  0.08960  1.0000
  C   C11       1.0  0.40454  0.16381  0.16897  1.0000
  C   C12       1.0  0.40340  0.15655  0.16314  1.0000
  C   C13       1.0  0.40401  0.14522  0.16813  1.0000
  H   H8        1.0  0.40187  0.15970  0.15485  1.0000
  H   H9        1.0  0.40302  0.13967  0.16361  1.0000
  C   C14       1.0  0.45351  0.18654  0.11762  1.0000
  C   C15       1.0  0.46513  0.18369  0.11633  1.0000
  C   C16       1.0  0.47133  0.19201  0.11283  1.0000
  C   C17       1.0  0.46601  0.20323  0.11034  1.0000
  C   C18       1.0  0.45437  0.20613  0.11150  1.0000
  C   C19       1.0  0.44809  0.19779  0.11532  1.0000
  H   H10       1.0  0.46937  0.17504  0.11808  1.0000
  H   H11       1.0  0.48033  0.18972  0.11195  1.0000
  H   H12       1.0  0.45022  0.21477  0.10948  1.0000
  H   H13       1.0  0.43909  0.20008  0.11626  1.0000
  C   C20       1.0  0.39198  0.18680  0.09997  1.0000
  C   C21       1.0  0.38251  0.18601  0.09695  1.0000
  C   C22       1.0  0.38015  0.19178  0.08661  1.0000
  C   C23       1.0  0.38745  0.19811  0.07903  1.0000
  C   C24       1.0  0.39711  0.19874  0.08188  1.0000
  C   C25       1.0  0.39923  0.19332  0.09247  1.0000
  H   H14       1.0  0.37691  0.18095  0.10267  1.0000
  H   H15       1.0  0.37270  0.19122  0.08445  1.0000
  H   H16       1.0  0.40294  0.20335  0.07590  1.0000
  H   H17       1.0  0.40667  0.19383  0.09466  1.0000
  H   H18       1.0  0.41137  0.16998  0.08808  1.0000
  H   H19       1.0  0.39163  0.21478  0.01869  1.0000
  N   N1        1.0  0.44864  0.18408  0.08525  1.0000
  H   H20       1.0  0.45120  0.17001  0.14471  1.0000
  H   H21       1.0  0.46470  0.17799  0.08991  1.0000
  H   H22       1.0  0.38876  0.22003  0.12922  1.0000
  H   H23       1.0  0.41916  0.16633  0.10462  1.0000
  C   C26       1.0  0.43174  0.16380  0.15385  1.0000
  Fe  Fe8       1.0  0.46724  0.23105  0.09855  1.0000
  H   H24       1.0  0.45382  0.17240  0.09968  1.0000
  C   C27       1.0  0.43384  0.13544  0.18129  1.0000
  N   N2        1.0  0.44284  0.15724  0.15581  1.0000
  C   C28       1.0  0.44767  0.14993  0.14770  1.0000
  H   H25       1.0  0.43583  0.23428  0.14731  1.0000
  C   C29       1.0  0.42412  0.17846  0.07728  1.0000
  H   H26       1.0  0.45699  0.18189  0.06871  1.0000
  H   H27       1.0  0.43703  0.18701  0.06846  1.0000
  C   C30       1.0  0.40410  0.22466  0.08599  1.0000
  C   C31       1.0  0.49644  0.22886  0.10834  1.0000
  N   N3        1.0  0.38333  0.23173  0.09175  1.0000
  C   C32       1.0  0.37893  0.23672  0.12591  1.0000
  H   H28       1.0  0.44670  0.21373  0.07416  1.0000
  C   C33       1.0  0.43946  0.22328  0.06022  1.0000
  C   C34       1.0  0.45023  0.16520  0.15347  1.0000
  H   H29       1.0  0.46226  0.19091  0.07364  1.0000
  H   H30       1.0  0.45576  0.14440  0.14927  1.0000
  H   H31       1.0  0.49487  0.22055  0.09222  1.0000
  H   H32       1.0  0.43592  0.17267  0.10353  1.0000
  S   S15       1.0  0.40369  0.22667  0.05795  1.0000
  H   H33       1.0  0.38384  0.22251  0.10840  1.0000
  C   C35       1.0  0.42348  0.17045  0.09668  1.0000
  H   H34       1.0  0.44668  0.17149  0.15873  1.0000
  C   C36       1.0  0.41520  0.22554  0.08418  1.0000
  H   H35       1.0  0.44931  0.19585  0.06954  1.0000
  H   H36       1.0  0.44391  0.23125  0.11837  1.0000
  N   N4        1.0  0.39812  0.18362  0.03611  1.0000
  C   C37       1.0  0.39288  0.19451  0.03922  1.0000
  C   C38       1.0  0.39288  0.17494  0.04454  1.0000
  C   C39       1.0  0.41012  0.18108  0.03662  1.0000
  C   C40       1.0  0.39635  0.18404  0.02506  1.0000
  C   C41       1.0  0.38534  0.18581  0.02339  1.0000
  C   C42       1.0  0.40530  0.18281  0.01570  1.0000
  C   C43       1.0  0.38345  0.18616  0.01306  1.0000
  C   C44       1.0  0.40330  0.18310  0.00543  1.0000
  C   C45       1.0  0.39241  0.18474  0.00413  1.0000
  H   H37       1.0  0.38379  0.19705  0.03930  1.0000
  H   H38       1.0  0.39373  0.19441  0.04765  1.0000
  H   H39       1.0  0.39692  0.20116  0.03332  1.0000
  H   H40       1.0  0.38362  0.17692  0.04568  1.0000
  H   H41       1.0  0.39454  0.17403  0.05286  1.0000
  H   H42       1.0  0.39611  0.16671  0.04217  1.0000
  H   H43       1.0  0.41116  0.18070  0.04506  1.0000
  H   H44       1.0  0.41459  0.17293  0.03444  1.0000
  H   H45       1.0  0.41444  0.18767  0.03093  1.0000
  H   H46       1.0  0.37809  0.18716  0.02999  1.0000
  H   H47       1.0  0.41391  0.18195  0.01595  1.0000
  H   H48       1.0  0.37499  0.18785  0.01184  1.0000
  H   H49       1.0  0.41019  0.18249  0.99831  1.0000
  H   H50       1.0  0.39088  0.18539  0.99604  1.0000
  H   H51       1.0  0.38266  0.23715  0.07450  1.0000
  H   H52       1.0  0.43836  0.19998  0.08771  1.0000
  H   H53       1.0  0.40268  0.21724  0.08468  1.0000
  N   N5        1.0  0.43230  0.22929  0.13414  1.0000
  H   H54       1.0  0.42196  0.21896  0.08141  1.0000
  H   H55       1.0  0.42034  0.18051  0.07016  1.0000
  S   S16       1.0  0.39403  0.22415  0.03755  1.0000
  C   C46       1.0  0.40349  0.20924  0.98900  1.0000
  H   H56       1.0  0.43344  0.21216  0.13414  1.0000
  H   H57       1.0  0.44631  0.21518  0.13405  1.0000
  C   C47       1.0  0.41906  0.17253  0.08735  1.0000
  C   C48       1.0  0.45694  0.17514  0.09064  1.0000
  H   H58       1.0  0.44922  0.15487  0.13902  1.0000
  H   H59       1.0  0.37881  0.21468  0.00727  1.0000
  H   H60       1.0  0.42758  0.16907  0.16007  1.0000
  C   C49       1.0  0.38774  0.21321  0.00396  1.0000
  C   C50       1.0  0.42008  0.23241  0.13850  1.0000
  C   C51       1.0  0.43870  0.17990  0.08573  1.0000
  C   C52       1.0  0.43312  0.17410  0.09594  1.0000
  H   H61       1.0  0.45202  0.19708  0.09083  1.0000
  C   C53       1.0  0.44496  0.19330  0.09120  1.0000
  H   H62       1.0  0.44131  0.19041  0.10010  1.0000
  H   H63       1.0  0.40733  0.23216  0.00932  1.0000
  H   H64       1.0  0.43350  0.23483  0.04632  1.0000
  H   H65       1.0  0.48866  0.22582  0.10971  1.0000
  C   C54       1.0  0.38104  0.23011  0.08163  1.0000
  S   S17       1.0  0.41979  0.22788  0.03278  1.0000
  C   C55       1.0  0.38895  0.22868  0.12571  1.0000
  C   C56       1.0  0.43476  0.23224  0.12187  1.0000
  C   C57       1.0  0.39916  0.23186  0.12080  1.0000
  H   H66       1.0  0.39689  0.22153  0.15234  1.0000
  H   H67       1.0  0.43163  0.22693  0.11838  1.0000
  C   C58       1.0  0.41761  0.23474  0.08610  1.0000
  H   H68       1.0  0.45430  0.22890  0.07574  1.0000
  H   H69       1.0  0.38712  0.21398  0.09850  1.0000
  H   H70       1.0  0.37296  0.22070  0.10298  1.0000
  H   H71       1.0  0.43572  0.21440  0.14663  1.0000
  C   C59       1.0  0.40185  0.22775  0.14813  1.0000
  H   H72       1.0  0.41692  0.21566  0.14628  1.0000
  C   C60       1.0  0.43712  0.21721  0.13746  1.0000
  H   H73       1.0  0.41974  0.20702  0.99246  1.0000
  H   H74       1.0  0.38644  0.23608  0.01406  1.0000
  Fe  Fe9       1.0  0.40249  0.23591  0.04066  1.0000
  C   C61       1.0  0.44973  0.23024  0.06936  1.0000
  H   H75       1.0  0.37220  0.22951  0.08283  1.0000
  H   H76       1.0  0.43107  0.14056  0.16491  1.0000
  C   C62       1.0  0.43797  0.23354  0.05277  1.0000
  C   C63       1.0  0.38175  0.22181  0.10078  1.0000
  C   C64       1.0  0.40571  0.14109  0.17899  1.0000
  C   C65       1.0  0.44616  0.15199  0.17549  1.0000
  H   H77       1.0  0.45093  0.15827  0.17387  1.0000
  C   C66       1.0  0.43521  0.14201  0.17055  1.0000
  H   H78       1.0  0.42624  0.23527  0.08492  1.0000
  H   H79       1.0  0.49469  0.23787  0.10446  1.0000
  S   S18       1.0  0.47649  0.23818  0.08171  1.0000
  C   C67       1.0  0.43823  0.23544  0.13814  1.0000
  C   C68       1.0  0.40645  0.15963  0.17973  1.0000
  H   H80       1.0  0.44749  0.23269  0.13572  1.0000
  H   H81       1.0  0.38195  0.23867  0.99713  1.0000
  H   H82       1.0  0.49516  0.09816  0.29463  1.0000
  H   H83       1.0  0.33556  0.09812  0.34355  1.0000
  S   S19       1.0  0.30353  0.08065  0.36018  1.0000
  C   C69       1.0  0.42049  0.05908  0.30334  1.0000
  H   H84       1.0  0.48431  0.03494  0.24034  1.0000
  H   H85       1.0  0.42688  0.06398  0.29847  1.0000
  H   H86       1.0  0.38601  0.17663  0.20615  1.0000
  C   C70       1.0  0.43313  0.04646  0.31442  1.0000
  H   H87       1.0  0.42791  0.02150  0.20267  1.0000
  Fe  Fe10      1.0  0.39613  0.11779  0.22706  1.0000
  S   S20       1.0  0.39876  0.10763  0.21445  1.0000
  S   S21       1.0  0.37913  0.12307  0.23758  1.0000
  Fe  Fe11      1.0  0.42005  0.12086  0.22017  1.0000
  S   S22       1.0  0.42469  0.11110  0.20696  1.0000
  S   S23       1.0  0.43325  0.12806  0.22245  1.0000
  Fe  Fe12      1.0  0.40813  0.12045  0.20286  1.0000
  C   C71       1.0  0.37904  0.16085  0.19268  1.0000
  Fe  Fe13      1.0  0.41503  0.09935  0.21969  1.0000
  S   S24       1.0  0.42345  0.08134  0.22382  1.0000
  S   S25       1.0  0.40423  0.13126  0.21511  1.0000
  S   S26       1.0  0.41159  0.10849  0.23329  1.0000
  Fe  Fe14      1.0  0.38277  0.08768  0.30902  1.0000
  S   S27       1.0  0.38608  0.08177  0.29333  1.0000
  S   S28       1.0  0.39039  0.10069  0.31100  1.0000
  Fe  Fe15      1.0  0.36479  0.07426  0.32133  1.0000
  S   S29       1.0  0.36640  0.06727  0.30652  1.0000
  S   S30       1.0  0.35560  0.06844  0.33894  1.0000
  Fe  Fe16      1.0  0.38491  0.06505  0.30448  1.0000
  S   S31       1.0  0.39834  0.05036  0.30010  1.0000
  Fe  Fe17      1.0  0.36747  0.08458  0.29653  1.0000
  S   S32       1.0  0.35833  0.09340  0.28278  1.0000
  S   S33       1.0  0.38341  0.07073  0.31993  1.0000
  S   S34       1.0  0.36408  0.09180  0.31151  1.0000
  Fe  Fe18      1.0  0.42592  0.02301  0.24745  1.0000
  S   S35       1.0  0.42571  0.01811  0.23200  1.0000
  S   S36       1.0  0.44118  0.02930  0.24654  1.0000
  Fe  Fe19      1.0  0.40187  0.02086  0.25774  1.0000
  S   S37       1.0  0.39944  0.01640  0.24299  1.0000
  S   S38       1.0  0.38725  0.02298  0.27199  1.0000
  Fe  Fe20      1.0  0.41640  0.00520  0.24326  1.0000
  Fe  Fe21      1.0  0.40889  0.02963  0.23309  1.0000
  S   S39       1.0  0.40423  0.04298  0.21864  1.0000
  S   S40       1.0  0.41832  0.00887  0.25877  1.0000
  S   S41       1.0  0.40955  0.03526  0.24786  1.0000
  Fe  Fe22      1.0  0.46500  0.08328  0.26202  1.0000
  S   S42       1.0  0.46974  0.08892  0.27480  1.0000
  S   S43       1.0  0.47047  0.09179  0.24431  1.0000
  Fe  Fe23      1.0  0.45462  0.06513  0.27884  1.0000
  S   S44       1.0  0.45878  0.06910  0.29308  1.0000
  S   S45       1.0  0.44382  0.05252  0.28320  1.0000
  Fe  Fe24      1.0  0.45276  0.08680  0.28489  1.0000
  S   S46       1.0  0.44204  0.09984  0.29413  1.0000
  Fe  Fe25      1.0  0.47544  0.07080  0.28172  1.0000
  S   S47       1.0  0.44745  0.08285  0.27145  1.0000
  S   S48       1.0  0.47186  0.06515  0.26814  1.0000
  H   H88       1.0  0.09072  0.20193  0.37835  1.0000
  C   C72       1.0  0.44169  0.03571  0.25685  1.0000
  C   C73       1.0  0.44920  0.04275  0.25433  1.0000
  C   C74       1.0  0.44985  0.04807  0.26229  1.0000
  C   C75       1.0  0.44311  0.04620  0.27291  1.0000
  C   C76       1.0  0.43555  0.03920  0.27545  1.0000
  C   C77       1.0  0.43475  0.03404  0.26741  1.0000
  H   H89       1.0  0.45450  0.04409  0.24617  1.0000
  H   H90       1.0  0.45568  0.05346  0.26027  1.0000
  H   H91       1.0  0.43040  0.03769  0.28370  1.0000
  H   H92       1.0  0.42895  0.02860  0.26944  1.0000
  H   H93       1.0  0.48481  0.08549  0.29205  1.0000
  C   C78       1.0  0.39021  0.02958  0.28082  1.0000
  C   C79       1.0  0.40129  0.02897  0.28102  1.0000
  C   C80       1.0  0.40363  0.03479  0.28761  1.0000
  C   C81       1.0  0.39496  0.04174  0.29352  1.0000
  C   C82       1.0  0.38385  0.04212  0.29357  1.0000
  C   C83       1.0  0.38148  0.03587  0.28738  1.0000
  H   H94       1.0  0.40808  0.02400  0.27611  1.0000
  H   H95       1.0  0.41221  0.03425  0.28778  1.0000
  H   H96       1.0  0.37711  0.04714  0.29843  1.0000
  H   H97       1.0  0.37289  0.03607  0.28750  1.0000
  C   C84       1.0  0.42779  0.09956  0.29876  1.0000
  C   C85       1.0  0.42082  0.10754  0.30458  1.0000
  C   C86       1.0  0.40941  0.10761  0.30844  1.0000
  C   C87       1.0  0.40487  0.09970  0.30651  1.0000
  C   C88       1.0  0.41181  0.09165  0.30068  1.0000
  C   C89       1.0  0.42331  0.09159  0.29680  1.0000
  H   H98       1.0  0.42426  0.11370  0.30613  1.0000
  H   H99       1.0  0.40407  0.11386  0.31292  1.0000
  H   H100      1.0  0.40831  0.08553  0.29917  1.0000
  H   H101      1.0  0.42877  0.08532  0.29248  1.0000
  C   C90       1.0  0.44340  0.11788  0.22870  1.0000
  C   C91       1.0  0.44046  0.10888  0.23709  1.0000
  C   C92       1.0  0.44866  0.10106  0.24225  1.0000
  C   C93       1.0  0.45987  0.10195  0.23871  1.0000
  C   C94       1.0  0.46282  0.11080  0.23016  1.0000
  C   C95       1.0  0.45457  0.11887  0.22533  1.0000
  H   H102      1.0  0.43185  0.10811  0.23982  1.0000
  H   H103      1.0  0.44630  0.09426  0.24883  1.0000
  H   H104      1.0  0.47148  0.11151  0.22736  1.0000
  H   H105      1.0  0.45688  0.12581  0.21886  1.0000
  C   C96       1.0  0.41842  0.07112  0.22105  1.0000
  C   C97       1.0  0.42393  0.06002  0.22391  1.0000
  C   C98       1.0  0.41973  0.05147  0.22277  1.0000
  C   C99       1.0  0.41007  0.05394  0.21860  1.0000
  C   C100      1.0  0.40473  0.06508  0.21534  1.0000
  C   C101      1.0  0.40885  0.07369  0.21666  1.0000
  H   H106      1.0  0.43134  0.05792  0.22728  1.0000
  H   H107      1.0  0.42398  0.04293  0.22522  1.0000
  H   H108      1.0  0.39724  0.06702  0.21211  1.0000
  H   H109      1.0  0.40459  0.08227  0.21439  1.0000
  C   C102      1.0  0.37393  0.11426  0.25002  1.0000
  C   C103      1.0  0.38080  0.10493  0.25537  1.0000
  C   C104      1.0  0.37626  0.09854  0.26565  1.0000
  C   C105      1.0  0.36481  0.10142  0.27043  1.0000
  C   C106      1.0  0.35802  0.11059  0.26492  1.0000
  C   C107      1.0  0.36258  0.11706  0.25488  1.0000
  H   H110      1.0  0.38959  0.10282  0.25167  1.0000
  H   H111      1.0  0.38154  0.09135  0.26977  1.0000
  H   H112      1.0  0.34917  0.11279  0.26849  1.0000
  H   H113      1.0  0.35722  0.12426  0.25082  1.0000
  C   C108      1.0  0.31792  0.07669  0.35416  1.0000
  C   C109      1.0  0.32545  0.06946  0.36044  1.0000
  C   C110      1.0  0.33694  0.06694  0.35559  1.0000
  C   C111      1.0  0.34100  0.07152  0.34441  1.0000
  C   C112      1.0  0.33345  0.07861  0.33806  1.0000
  C   C113      1.0  0.32196  0.08123  0.34295  1.0000
  H   H114      1.0  0.32246  0.06583  0.36903  1.0000
  H   H115      1.0  0.34272  0.06143  0.36054  1.0000
  H   H116      1.0  0.33648  0.08218  0.32944  1.0000
  H   H117      1.0  0.31618  0.08684  0.33804  1.0000
  C   C114      1.0  0.35174  0.09018  0.36257  1.0000
  C   C115      1.0  0.43847  0.13720  0.18915  1.0000
  C   C116      1.0  0.41683  0.99983  0.20286  1.0000
  S   S49       1.0  0.49254  0.06389  0.28596  1.0000
  C   C117      1.0  0.38031  0.16139  0.21389  1.0000
  C   C118      1.0  0.07899  0.21808  0.37536  1.0000
  H   H118      1.0  0.25928  0.04888  0.37222  1.0000
  H   H119      1.0  0.40981  0.02043  0.21701  1.0000
  H   H120      1.0  0.40304  0.08160  0.33552  1.0000
  C   C119      1.0  0.31180  0.09248  0.38048  1.0000
  N   N6        1.0  0.08727  0.22528  0.37066  1.0000
  S   S50       1.0  0.40603  0.12690  0.18512  1.0000
  H   H121      1.0  0.38486  0.17618  0.18737  1.0000
  C   C120      1.0  0.37675  0.15262  0.21232  1.0000
  C   C121      1.0  0.48795  0.10569  0.25786  1.0000
  H   H122      1.0  0.35699  0.13664  0.20479  1.0000
  H   H123      1.0  0.48395  0.12393  0.27424  1.0000
  H   H124      1.0  0.49648  0.09772  0.23868  1.0000
  N   N7        1.0  0.41649  0.01107  0.20420  1.0000
  C   C122      1.0  0.47912  0.04277  0.23709  1.0000
  C   C123      1.0  0.46502  0.06312  0.22897  1.0000
  H   H125      1.0  0.44351  0.06967  0.23826  1.0000
  H   H126      1.0  0.44670  0.08171  0.21352  1.0000
  H   H127      1.0  0.46258  0.05330  0.21851  1.0000
  H   H128      1.0  0.40159  0.02033  0.19810  1.0000
  H   H129      1.0  0.40840  0.14525  0.19306  1.0000
  H   H130      1.0  0.10504  0.22465  0.36519  1.0000
  C   C124      1.0  0.34891  0.09320  0.35226  1.0000
  H   H131      1.0  0.44807  0.14683  0.19249  1.0000
  H   H132      1.0  0.35896  0.14282  0.21485  1.0000
  H   H133      1.0  0.44214  0.08428  0.23220  1.0000
  C   C125      1.0  0.34338  0.08967  0.37226  1.0000
  H   H134      1.0  0.40515  0.99167  0.27633  1.0000
  C   C126      1.0  0.37613  0.15200  0.20163  1.0000
  C   C127      1.0  0.45224  0.07353  0.21623  1.0000
  H   H135      1.0  0.38792  0.13156  0.20220  1.0000
  C   C128      1.0  0.46672  0.05346  0.22474  1.0000
  C   C129      1.0  0.47370  0.04347  0.22877  1.0000
  C   C130      1.0  0.49385  0.08330  0.29065  1.0000
  H   H136      1.0  0.47062  0.08114  0.21379  1.0000
  C   C131      1.0  0.47764  0.05207  0.24139  1.0000
  H   H137      1.0  0.46736  0.08403  0.22728  1.0000
  C   C132      1.0  0.18913  0.12704  0.37699  1.0000
  H   H138      1.0  0.37709  0.13037  0.21448  1.0000
  N   N8        1.0  0.45742  0.07375  0.22521  1.0000
  C   C133      1.0  0.32928  0.09526  0.36123  1.0000
  C   C134      1.0  0.46364  0.08285  0.22094  1.0000
  C   C135      1.0  0.38246  0.16964  0.19438  1.0000
  C   C136      1.0  0.48260  0.11431  0.26347  1.0000
  H   H139      1.0  0.41473  0.00582  0.22189  1.0000
  H   H140      1.0  0.09145  0.23779  0.35596  1.0000
  H   H141      1.0  0.35510  0.15154  0.20233  1.0000
  C   C137      1.0  0.47073  0.06211  0.23741  1.0000
  H   H142      1.0  0.45866  0.07164  0.20877  1.0000
  H   H143      1.0  0.46974  0.06904  0.24115  1.0000
  H   H144      1.0  0.31144  0.08644  0.37586  1.0000
  H   H145      1.0  0.39131  0.99972  0.26580  1.0000
  C   C138      1.0  0.25680  0.05003  0.38091  1.0000
  N   N9        1.0  0.37226  0.14265  0.20021  1.0000
  C   C139      1.0  0.33189  0.09194  0.37191  1.0000
  C   C140      1.0  0.41153  0.06844  0.32675  1.0000
  H   H146      1.0  0.39957  0.99664  0.23389  1.0000
  C   C141      1.0  0.41335  0.04782  0.32079  1.0000
  H   H147      1.0  0.47467  0.03612  0.22563  1.0000
  H   H148      1.0  0.48923  0.08474  0.25478  1.0000
  C   C142      1.0  0.41084  0.07789  0.33058  1.0000
  H   H149      1.0  0.37899  0.16111  0.18422  1.0000
  C   C143      1.0  0.41045  0.01207  0.21559  1.0000
  H   H150      1.0  0.44682  0.06734  0.21904  1.0000
  C   C144      1.0  0.42798  0.01281  0.20247  1.0000
  C   C145      1.0  0.09908  0.21899  0.36894  1.0000
  H   H151      1.0  0.43721  0.13223  0.19754  1.0000
  C   C146      1.0  0.33771  0.09592  0.35160  1.0000
  H   H152      1.0  0.45809  0.09102  0.21824  1.0000
  H   H153      1.0  0.36048  0.08802  0.36302  1.0000
  H   H154      1.0  0.47402  0.11851  0.26309  1.0000
  H   H155      1.0  0.40423  0.00458  0.19265  1.0000
  H   H156      1.0  0.41438  0.04047  0.31723  1.0000
  H   H157      1.0  0.41210  0.06469  0.30318  1.0000
  N   N10       1.0  0.42207  0.05436  0.31480  1.0000
  H   H158      1.0  0.41358  0.04478  0.32972  1.0000
  C   C147      1.0  0.41068  0.02023  0.19641  1.0000
  H   H159      1.0  0.42123  0.05244  0.29892  1.0000
  H   H160      1.0  0.43534  0.04375  0.32269  1.0000
  H   H161      1.0  0.40178  0.01078  0.21726  1.0000
  H   H162      1.0  0.08607  0.22701  0.35385  1.0000
  C   C148      1.0  0.37882  0.13188  0.20530  1.0000
  H   H163      1.0  0.18357  0.12729  0.37153  1.0000
  H   H164      1.0  0.10067  0.21321  0.36333  1.0000
  C   C149      1.0  0.48817  0.11737  0.26975  1.0000
  H   H165      1.0  0.32083  0.09703  0.36003  1.0000
  H   H166      1.0  0.44001  0.05002  0.30829  1.0000
  H   H167      1.0  0.43327  0.03890  0.31161  1.0000
  H   H168      1.0  0.35540  0.09322  0.34475  1.0000
  H   H169      1.0  0.40480  0.05267  0.32000  1.0000
  C   C150      1.0  0.42149  0.06367  0.31986  1.0000
  H   H170      1.0  0.40403  0.06519  0.32908  1.0000
  C   C151      1.0  0.43063  0.06903  0.31703  1.0000
  H   H171      1.0  0.37704  0.12465  0.20337  1.0000
  C   C152      1.0  0.42991  0.07837  0.32104  1.0000
  C   C153      1.0  0.42002  0.08283  0.32775  1.0000
  H   H172      1.0  0.43827  0.06636  0.31134  1.0000
  H   H173      1.0  0.43691  0.08250  0.31848  1.0000
  H   H174      1.0  0.41936  0.09034  0.33047  1.0000
  N   N11       1.0  0.40978  0.06505  0.25773  1.0000
  C   C154      1.0  0.40512  0.05644  0.26683  1.0000
  C   C155      1.0  0.40181  0.06968  0.25019  1.0000
  C   C156      1.0  0.42055  0.05969  0.25144  1.0000
  C   C157      1.0  0.41196  0.07354  0.26225  1.0000
  C   C158      1.0  0.40963  0.08508  0.25735  1.0000
  C   C159      1.0  0.41761  0.07026  0.27114  1.0000
  C   C160      1.0  0.41254  0.09282  0.26134  1.0000
  C   C161      1.0  0.42054  0.07805  0.27496  1.0000
  C   C162      1.0  0.41798  0.08930  0.27013  1.0000
  H   H175      1.0  0.39807  0.06026  0.27291  1.0000
  H   H176      1.0  0.40202  0.05076  0.26374  1.0000
  H   H177      1.0  0.41152  0.05089  0.27142  1.0000
  H   H178      1.0  0.39374  0.07437  0.25434  1.0000
  H   H179      1.0  0.39999  0.06300  0.24735  1.0000
  H   H180      1.0  0.40531  0.07522  0.24244  1.0000
  H   H181      1.0  0.42684  0.05600  0.25667  1.0000
  H   H182      1.0  0.41965  0.05290  0.24809  1.0000
  H   H183      1.0  0.42419  0.06582  0.24439  1.0000
  H   H184      1.0  0.40586  0.08825  0.25024  1.0000
  H   H185      1.0  0.42018  0.06161  0.27499  1.0000
  H   H186      1.0  0.41082  0.10157  0.25743  1.0000
  H   H187      1.0  0.42518  0.07525  0.28147  1.0000
  H   H188      1.0  0.42052  0.09523  0.27303  1.0000
  N   N12       1.0  0.36062  0.06704  0.26952  1.0000
  C   C163      1.0  0.35362  0.05874  0.27566  1.0000
  C   C164      1.0  0.36779  0.06747  0.27666  1.0000
  C   C165      1.0  0.35282  0.07805  0.26748  1.0000
  C   C166      1.0  0.36792  0.06393  0.25920  1.0000
  C   C167      1.0  0.37020  0.07196  0.24921  1.0000
  C   C168      1.0  0.37359  0.05272  0.25908  1.0000
  C   C169      1.0  0.37710  0.06879  0.23957  1.0000
  C   C170      1.0  0.38036  0.04964  0.24938  1.0000
  C   C171      1.0  0.38201  0.05764  0.23962  1.0000
  H   H189      1.0  0.35858  0.05068  0.27943  1.0000
  H   H190      1.0  0.34725  0.06158  0.28279  1.0000
  H   H191      1.0  0.34912  0.05712  0.27015  1.0000
  H   H192      1.0  0.37377  0.05942  0.27854  1.0000
  H   H193      1.0  0.36268  0.06946  0.28468  1.0000
  H   H194      1.0  0.37277  0.07399  0.27264  1.0000
  H   H195      1.0  0.34772  0.07842  0.26155  1.0000
  H   H196      1.0  0.34695  0.07996  0.27527  1.0000
  H   H197      1.0  0.35728  0.08502  0.26431  1.0000
  H   H198      1.0  0.36672  0.08075  0.24861  1.0000
  H   H199      1.0  0.37290  0.04617  0.26645  1.0000
  H   H200      1.0  0.37864  0.07499  0.23197  1.0000
  H   H201      1.0  0.38434  0.04096  0.24944  1.0000
  H   H202      1.0  0.38714  0.05519  0.23209  1.0000
  N   N13       1.0  0.39056  0.12050  0.27724  1.0000
  C   C172      1.0  0.38991  0.10865  0.28125  1.0000
  C   C173      1.0  0.38786  0.12565  0.28699  1.0000
  C   C174      1.0  0.38173  0.12614  0.27078  1.0000
  C   C175      1.0  0.40203  0.12123  0.27076  1.0000
  C   C176      1.0  0.40451  0.12518  0.25906  1.0000
  C   C177      1.0  0.41123  0.11744  0.27608  1.0000
  C   C178      1.0  0.41550  0.12549  0.25320  1.0000
  C   C179      1.0  0.42217  0.11780  0.27015  1.0000
  C   C180      1.0  0.42430  0.12185  0.25873  1.0000
  H   H203      1.0  0.39591  0.10398  0.28664  1.0000
  H   H204      1.0  0.38142  0.10766  0.28625  1.0000
  H   H205      1.0  0.39184  0.10444  0.27423  1.0000
  H   H206      1.0  0.38910  0.13435  0.28443  1.0000
  H   H207      1.0  0.39304  0.12097  0.29318  1.0000
  H   H208      1.0  0.37906  0.12576  0.29166  1.0000
  H   H209      1.0  0.38264  0.12217  0.26381  1.0000
  H   H210      1.0  0.37320  0.12564  0.27594  1.0000
  H   H211      1.0  0.38187  0.13510  0.26741  1.0000
  H   H212      1.0  0.39815  0.12805  0.25419  1.0000
  H   H213      1.0  0.41009  0.11402  0.28487  1.0000
  H   H214      1.0  0.41726  0.12856  0.24428  1.0000
  H   H215      1.0  0.42905  0.11485  0.27446  1.0000
  H   H216      1.0  0.43279  0.12212  0.25414  1.0000
  H   H217      1.0  0.38446  0.99173  0.26148  1.0000
  H   H218      1.0  0.39860  0.99255  0.25480  1.0000
  C   C181      1.0  0.42356  0.99028  0.20840  1.0000
  H   H219      1.0  0.29457  0.02672  0.37793  1.0000
  C   C182      1.0  0.37339  0.14251  0.18841  1.0000
  H   H220      1.0  0.45137  0.07761  0.24148  1.0000
  H   H221      1.0  0.10136  0.21411  0.37693  1.0000
  H   H222      1.0  0.49617  0.07921  0.26607  1.0000
  C   C183      1.0  0.44823  0.07644  0.23470  1.0000
  H   H223      1.0  0.48173  0.05146  0.24799  1.0000
  H   H224      1.0  0.41452  0.01961  0.18765  1.0000
  H   H225      1.0  0.19576  0.11926  0.37685  1.0000
  H   H226      1.0  0.99951  0.22660  0.38088  1.0000
  H   H227      1.0  0.41105  0.02857  0.19728  1.0000
  C   C184      1.0  0.40697  0.14833  0.18475  1.0000
  C   C185      1.0  0.36030  0.14344  0.20578  1.0000
  H   H228      1.0  0.24778  0.03330  0.37965  1.0000
  C   C186      1.0  0.40991  0.99792  0.19683  1.0000
  H   H229      1.0  0.42894  0.12910  0.18360  1.0000
  C   C187      1.0  0.06735  0.22288  0.37703  1.0000
  C   C188      1.0  0.38317  0.16988  0.20493  1.0000
  C   C189      1.0  0.05933  0.21639  0.38193  1.0000
  H   H230      1.0  0.37456  0.14628  0.21956  1.0000
  H   H231      1.0  0.19353  0.13401  0.37317  1.0000
  H   H232      1.0  0.38089  0.16157  0.22210  1.0000
  C   C190      1.0  0.44460  0.14546  0.18626  1.0000
  H   H233      1.0  0.34600  0.08726  0.38006  1.0000
  Fe  Fe26      1.0  0.29621  0.07278  0.37789  1.0000
  C   C191      1.0  0.08210  0.20632  0.37884  1.0000
  H   H234      1.0  0.43317  0.01110  0.19435  1.0000
  H   H235      1.0  0.16995  0.16622  0.38026  1.0000
  H   H236      1.0  0.37085  0.13517  0.18756  1.0000
  H   H237      1.0  0.36803  0.14999  0.18418  1.0000
  C   C192      1.0  0.08597  0.23266  0.37826  1.0000
  H   H238      1.0  0.30889  0.10104  0.37582  1.0000
  H   H239      1.0  0.40745  0.16518  0.18425  1.0000
  H   H240      1.0  0.43240  0.00746  0.20907  1.0000
  H   H241      1.0  0.18471  0.14934  0.38037  1.0000
  H   H242      1.0  0.38225  0.14202  0.18379  1.0000
  H   H243      1.0  0.06434  0.23175  0.37485  1.0000
  H   H244      1.0  0.48321  0.10354  0.25322  1.0000
  C   C193      1.0  0.39262  0.99188  0.26294  1.0000
  C   C194      1.0  0.08537  0.23225  0.35974  1.0000
  H   H245      1.0  0.07698  0.23791  0.36034  1.0000
  H   H246      1.0  0.07745  0.23801  0.37966  1.0000
  H   H247      1.0  0.27790  0.04134  0.37864  1.0000
  H   H248      1.0  0.09187  0.23840  0.37491  1.0000
  H   H249      1.0  0.24881  0.05639  0.38177  1.0000
  H   H250      1.0  0.42848  0.99093  0.21377  1.0000
  C   C195      1.0  0.28646  0.02458  0.38163  1.0000
  Fe  Fe27      1.0  0.12662  0.21188  0.41302  1.0000
  S   S51       1.0  0.12775  0.20248  0.40030  1.0000
  S   S52       1.0  0.13366  0.22702  0.40970  1.0000
  Fe  Fe28      1.0  0.11566  0.19541  0.43174  1.0000
  S   S53       1.0  0.11598  0.18433  0.42069  1.0000
  S   S54       1.0  0.10746  0.19279  0.44980  1.0000
  Fe  Fe29      1.0  0.13342  0.18718  0.41279  1.0000
  S   S55       1.0  0.15005  0.17594  0.40711  1.0000
  Fe  Fe30      1.0  0.11032  0.20055  0.40930  1.0000
  S   S56       1.0  0.09635  0.20506  0.40018  1.0000
  S   S57       1.0  0.13347  0.19685  0.42495  1.0000
  S   S58       1.0  0.10878  0.21136  0.42095  1.0000
  Fe  Fe31      1.0  0.29159  0.07462  0.40205  1.0000
  S   S59       1.0  0.28215  0.06095  0.40849  1.0000
  S   S60       1.0  0.29515  0.08518  0.41164  1.0000
  Fe  Fe32      1.0  0.18403  0.11596  0.42497  1.0000
  S   S61       1.0  0.19786  0.12521  0.42081  1.0000
  S   S62       1.0  0.16608  0.12389  0.42348  1.0000
  Fe  Fe33      1.0  0.19925  0.09337  0.43220  1.0000
  S   S63       1.0  0.21412  0.10095  0.42840  1.0000
  S   S64       1.0  0.20153  0.07518  0.44075  1.0000
  Fe  Fe34      1.0  0.20246  0.11438  0.43654  1.0000
  S   S65       1.0  0.20912  0.12003  0.44810  1.0000
  Fe  Fe35      1.0  0.20817  0.11089  0.41308  1.0000
  C   C196      1.0  0.17357  0.13774  0.38818  1.0000
  S   S66       1.0  0.18778  0.10623  0.44144  1.0000
  S   S67       1.0  0.19410  0.10224  0.41608  1.0000
  S   S68       1.0  0.28695  0.05899  0.38222  1.0000
  S   S69       1.0  0.28915  0.07944  0.57060  1.0000
  H   H251      1.0  0.24527  0.10926  0.51177  1.0000
  Fe  Fe36      1.0  0.26317  0.10238  0.56450  1.0000
  S   S70       1.0  0.28005  0.10172  0.55315  1.0000
  S   S71       1.0  0.24896  0.11546  0.55867  1.0000
  Fe  Fe37      1.0  0.28073  0.08342  0.55619  1.0000
  S   S72       1.0  0.28738  0.07573  0.54100  1.0000
  Fe  Fe38      1.0  0.28661  0.09781  0.56867  1.0000
  C   C197      1.0  0.16208  0.13743  0.39253  1.0000
  S   S73       1.0  0.26340  0.08428  0.56686  1.0000
  Fe  Fe39      1.0  0.25418  0.00584  0.42697  1.0000
  S   S74       1.0  0.24167  0.00615  0.41745  1.0000
  S   S75       1.0  0.27244  0.99951  0.42055  1.0000
  Fe  Fe40      1.0  0.23643  0.01254  0.44660  1.0000
  S   S76       1.0  0.22237  0.01290  0.43895  1.0000
  S   S77       1.0  0.23191  0.01823  0.46270  1.0000
  Fe  Fe41      1.0  0.23287  0.99711  0.43369  1.0000
  Fe  Fe42      1.0  0.23242  0.02181  0.42353  1.0000
  S   S78       1.0  0.22585  0.03811  0.41273  1.0000
  S   S79       1.0  0.24600  0.99599  0.44292  1.0000
  S   S80       1.0  0.24586  0.02228  0.43147  1.0000
  Fe  Fe43      1.0  0.25667  0.06571  0.49909  1.0000
  S   S81       1.0  0.24621  0.05589  0.49565  1.0000
  S   S82       1.0  0.25539  0.06390  0.51751  1.0000
  Fe  Fe44      1.0  0.26389  0.07558  0.47439  1.0000
  S   S83       1.0  0.25393  0.06668  0.46923  1.0000
  S   S84       1.0  0.27412  0.08730  0.46213  1.0000
  Fe  Fe45      1.0  0.24055  0.07140  0.48362  1.0000
  S   S85       1.0  0.22243  0.07592  0.48280  1.0000
  Fe  Fe46      1.0  0.26051  0.05206  0.48164  1.0000
  S   S86       1.0  0.26712  0.03542  0.47686  1.0000
  S   S87       1.0  0.24986  0.08161  0.48794  1.0000
  S   S88       1.0  0.27157  0.06059  0.48592  1.0000
  H   H252      1.0  0.15606  0.16535  0.45888  1.0000
  Fe  Fe47      1.0  0.03475  0.21336  0.42534  1.0000
  C   C198      1.0  0.14558  0.23338  0.56958  1.0000
  S   S89       1.0  0.04866  0.19861  0.42936  1.0000
  S   S90       1.0  0.30588  0.06508  0.39129  1.0000
  H   H253      1.0  0.26060  0.04370  0.40172  1.0000
  H   H254      1.0  0.15019  0.16511  0.38787  1.0000
  S   S91       1.0  0.02369  0.21515  0.41365  1.0000
  S   S92       1.0  0.02046  0.21882  0.43891  1.0000
  C   C199      1.0  0.15988  0.15291  0.44436  1.0000
  N   N14       1.0  0.25348  0.10240  0.41604  1.0000
  C   C200      1.0  0.24904  0.09085  0.38915  1.0000
  H   H255      1.0  0.13052  0.22292  0.55494  1.0000
  S   S93       1.0  0.03879  0.23022  0.41821  1.0000
  C   C201      1.0  0.11460  0.21145  0.57949  1.0000
  H   H256      1.0  0.29811  0.03824  0.47557  1.0000
  H   H257      1.0  0.09688  0.20759  0.57484  1.0000
  H   H258      1.0  0.11128  0.22497  0.56532  1.0000
  H   H259      1.0  0.00161  0.20559  0.41526  1.0000
  H   H260      1.0  0.00039  0.22660  0.40429  1.0000
  C   C202      1.0  0.03765  0.22901  0.46519  1.0000
  H   H261      1.0  0.26727  0.09960  0.43090  1.0000
  C   C203      1.0  0.24616  0.08090  0.39569  1.0000
  C   C204      1.0  0.25132  0.10743  0.42572  1.0000
  C   C205      1.0  0.14846  0.16311  0.45814  1.0000
  C   C206      1.0  0.24188  0.02297  0.46638  1.0000
  C   C207      1.0  0.23822  0.02977  0.47413  1.0000
  C   C208      1.0  0.24588  0.03392  0.47710  1.0000
  C   C209      1.0  0.25733  0.03095  0.47261  1.0000
  C   C210      1.0  0.26102  0.02411  0.46487  1.0000
  C   C211      1.0  0.25329  0.02026  0.46162  1.0000
  H   H262      1.0  0.22942  0.03187  0.47781  1.0000
  H   H263      1.0  0.24297  0.03916  0.48308  1.0000
  H   H264      1.0  0.26987  0.02178  0.46137  1.0000
  H   H265      1.0  0.25619  0.01502  0.45563  1.0000
  C   C212      1.0  0.23643  0.11686  0.56864  1.0000
  C   C213      1.0  0.22629  0.11914  0.56532  1.0000
  H   H266      1.0  0.22627  0.11999  0.55671  1.0000
  C   C214      1.0  0.27858  0.07202  0.53466  1.0000
  C   C215      1.0  0.26801  0.07011  0.54046  1.0000
  C   C216      1.0  0.26103  0.06764  0.53505  1.0000
  C   C217      1.0  0.26447  0.06719  0.52379  1.0000
  C   C218      1.0  0.27511  0.06893  0.51802  1.0000
  C   C219      1.0  0.28218  0.07121  0.52349  1.0000
  H   H267      1.0  0.26522  0.07055  0.54910  1.0000
  H   H268      1.0  0.25287  0.06615  0.53960  1.0000
  H   H269      1.0  0.27787  0.06853  0.50937  1.0000
  H   H270      1.0  0.29038  0.07261  0.51898  1.0000
  C   C220      1.0  0.29130  0.04467  0.50481  1.0000
  C   C221      1.0  0.21225  0.10848  0.45873  1.0000
  C   C222      1.0  0.22128  0.10710  0.46362  1.0000
  C   C223      1.0  0.22450  0.09712  0.47112  1.0000
  C   C224      1.0  0.21841  0.08876  0.47400  1.0000
  C   C225      1.0  0.20901  0.09051  0.46959  1.0000
  C   C226      1.0  0.20606  0.10024  0.46188  1.0000
  H   H271      1.0  0.22600  0.11353  0.46134  1.0000
  H   H272      1.0  0.23171  0.09587  0.47459  1.0000
  H   H273      1.0  0.20413  0.08425  0.47184  1.0000
  H   H274      1.0  0.19894  0.10134  0.45840  1.0000
  C   C227      1.0  0.20833  0.06515  0.43266  1.0000
  C   C228      1.0  0.21163  0.05407  0.43805  1.0000
  C   C229      1.0  0.21712  0.04581  0.43197  1.0000
  C   C230      1.0  0.21917  0.04852  0.42040  1.0000
  C   C231      1.0  0.21593  0.05962  0.41496  1.0000
  C   C232      1.0  0.21058  0.06794  0.42108  1.0000
  H   H275      1.0  0.20998  0.05187  0.44697  1.0000
  H   H276      1.0  0.21963  0.03731  0.43626  1.0000
  H   H277      1.0  0.21753  0.06179  0.40600  1.0000
  H   H278      1.0  0.20804  0.07647  0.41685  1.0000
  H   H279      1.0  0.25208  0.10272  0.49463  1.0000
  C   C233      1.0  0.27618  0.02090  0.41411  1.0000
  C   C234      1.0  0.28083  0.00946  0.41551  1.0000
  C   C235      1.0  0.29241  0.00577  0.41240  1.0000
  C   C236      1.0  0.29934  0.01343  0.40788  1.0000
  H   H280      1.0  0.26726  0.02379  0.41643  1.0000
  H   H281      1.0  0.29604  0.99695  0.41345  1.0000
  H   H282      1.0  0.01509  0.23262  0.51368  1.0000
  C   C237      1.0  0.28951  0.08475  0.42591  1.0000
  C   C238      1.0  0.29109  0.09290  0.43035  1.0000
  C   C239      1.0  0.28646  0.09338  0.44147  1.0000
  C   C240      1.0  0.28023  0.08566  0.44839  1.0000
  C   C241      1.0  0.27879  0.07728  0.44408  1.0000
  C   C242      1.0  0.28337  0.07688  0.43280  1.0000
  H   H283      1.0  0.29583  0.09900  0.42514  1.0000
  H   H284      1.0  0.28765  0.09984  0.44472  1.0000
  H   H285      1.0  0.27417  0.07116  0.44942  1.0000
  H   H286      1.0  0.28223  0.07045  0.42947  1.0000
  H   H287      1.0  0.05444  0.23298  0.44239  1.0000
  H   H288      1.0  0.18567  0.12827  0.40376  1.0000
  C   C243      1.0  0.23647  0.07710  0.57637  1.0000
  H   H289      1.0  0.25745  0.09081  0.38427  1.0000
  H   H290      1.0  0.00515  0.22284  0.53087  1.0000
  C   C244      1.0  0.15415  0.16161  0.41260  1.0000
  C   C245      1.0  0.16560  0.15687  0.41171  1.0000
  C   C246      1.0  0.16935  0.14538  0.41532  1.0000
  C   C247      1.0  0.16166  0.13846  0.41954  1.0000
  C   C248      1.0  0.15019  0.14319  0.42044  1.0000
  C   C249      1.0  0.14640  0.15477  0.41718  1.0000
  H   H291      1.0  0.17163  0.16214  0.40813  1.0000
  H   H292      1.0  0.17818  0.14191  0.41467  1.0000
  H   H293      1.0  0.14420  0.13788  0.42364  1.0000
  H   H294      1.0  0.13756  0.15835  0.41783  1.0000
  C   C250      1.0  0.10623  0.20469  0.45473  1.0000
  C   C251      1.0  0.11391  0.21157  0.44981  1.0000
  C   C252      1.0  0.11311  0.22085  0.45403  1.0000
  C   C253      1.0  0.10435  0.22355  0.46285  1.0000
  C   C254      1.0  0.09641  0.21692  0.46749  1.0000
  C   C255      1.0  0.09749  0.20736  0.46359  1.0000
  H   H295      1.0  0.12066  0.20959  0.44295  1.0000
  C   C256      1.0  0.30148  0.04732  0.48569  1.0000
  H   H296      1.0  0.08963  0.21896  0.47432  1.0000
  H   H297      1.0  0.09154  0.20205  0.46742  1.0000
  C   C257      1.0  0.06194  0.20021  0.42121  1.0000
  C   C258      1.0  0.07166  0.19321  0.42442  1.0000
  C   C259      1.0  0.08230  0.19468  0.41810  1.0000
  C   C260      1.0  0.08322  0.20304  0.40846  1.0000
  C   C261      1.0  0.07350  0.20998  0.40529  1.0000
  C   C262      1.0  0.06292  0.20854  0.41160  1.0000
  H   H298      1.0  0.07094  0.18669  0.43183  1.0000
  H   H299      1.0  0.08976  0.18925  0.42059  1.0000
  H   H300      1.0  0.07410  0.21662  0.39805  1.0000
  H   H301      1.0  0.05553  0.21381  0.40889  1.0000
  S   S94       1.0  0.30378  0.03413  0.40039  1.0000
  C   C263      1.0  0.24407  0.09726  0.41685  1.0000
  C   C264      1.0  0.23524  0.08097  0.40189  1.0000
  C   C265      1.0  0.28315  0.02862  0.40945  1.0000
  H   H302      1.0  0.03831  0.22044  0.46966  1.0000
  C   C266      1.0  0.02809  0.23482  0.52073  1.0000
  N   N15       1.0  0.25768  0.10764  0.52759  1.0000
  H   H303      1.0  0.02862  0.22478  0.54833  1.0000
  C   C267      1.0  0.12853  0.21733  0.56289  1.0000
  C   C268      1.0  0.26605  0.03050  0.38750  1.0000
  H   H304      1.0  0.11514  0.23223  0.39855  1.0000
  C   C269      1.0  0.29638  0.03987  0.48380  1.0000
  H   H305      1.0  0.09084  0.23451  0.43804  1.0000
  C   C270      1.0  0.28090  0.01947  0.51346  1.0000
  H   H306      1.0  0.31686  0.07862  0.57342  1.0000
  Fe  Fe48      1.0  0.29553  0.05214  0.39647  1.0000
  H   H307      1.0  0.26786  0.09358  0.53658  1.0000
  H   H308      1.0  0.29345  0.00710  0.38612  1.0000
  H   H309      1.0  0.07051  0.21307  0.46336  1.0000
  H   H310      1.0  0.12368  0.23747  0.49875  1.0000
  H   H311      1.0  0.27958  0.03744  0.40824  1.0000
  H   H312      1.0  0.02875  0.22731  0.45385  1.0000
  C   C271      1.0  0.15005  0.22737  0.57884  1.0000
  H   H313      1.0  0.14509  0.14683  0.39585  1.0000
  C   C272      1.0  0.27598  0.03448  0.52291  1.0000
  N   N16       1.0  0.27752  0.03176  0.51198  1.0000
  C   C273      1.0  0.06007  0.20881  0.44980  1.0000
  H   H314      1.0  0.14572  0.20923  0.56290  1.0000
  H   H315      1.0  0.26969  0.03035  0.52938  1.0000
  H   H316      1.0  0.27508  0.01524  0.52046  1.0000
  H   H317      1.0  0.23954  0.07548  0.55945  1.0000
  C   C274      1.0  0.06857  0.23798  0.41579  1.0000
  C   C275      1.0  0.13711  0.20966  0.56739  1.0000
  C   C276      1.0  0.17853  0.11709  0.39326  1.0000
  H   H318      1.0  0.25452  0.09153  0.53633  1.0000
  Fe  Fe49      1.0  0.27422  0.06885  0.39379  1.0000
  H   H319      1.0  0.01168  0.21884  0.54828  1.0000
  H   H320      1.0  0.08361  0.22748  0.40863  1.0000
  S   S95       1.0  0.25610  0.06836  0.39699  1.0000
  C   C277      1.0  0.22733  0.09100  0.40203  1.0000
  C   C278      1.0  0.24596  0.03600  0.38760  1.0000
  C   C279      1.0  0.29896  0.04970  0.49616  1.0000
  S   S96       1.0  0.22066  0.11361  0.39696  1.0000
  H   H321      1.0  0.08020  0.19933  0.43994  1.0000
  N   N17       1.0  0.24674  0.05414  0.43738  1.0000
  C   C280      1.0  0.24051  0.04643  0.44613  1.0000
  C   C281      1.0  0.24344  0.05559  0.42678  1.0000
  C   C282      1.0  0.25883  0.04874  0.43599  1.0000
  C   C283      1.0  0.24395  0.06505  0.44050  1.0000
  C   C284      1.0  0.23262  0.07082  0.44290  1.0000
  C   C285      1.0  0.25218  0.07018  0.44143  1.0000
  C   C286      1.0  0.22968  0.08084  0.44640  1.0000
  C   C287      1.0  0.24912  0.08030  0.44483  1.0000
  C   C288      1.0  0.23791  0.08557  0.44738  1.0000
  H   H322      1.0  0.23137  0.04882  0.44653  1.0000
  H   H323      1.0  0.24315  0.03781  0.44475  1.0000
  H   H324      1.0  0.24191  0.04608  0.45441  1.0000
  H   H325      1.0  0.23435  0.05909  0.42728  1.0000
  H   H326      1.0  0.24529  0.04756  0.42415  1.0000
  H   H327      1.0  0.24794  0.06138  0.42003  1.0000
  H   H328      1.0  0.26059  0.04048  0.43380  1.0000
  H   H329      1.0  0.26406  0.05381  0.42916  1.0000
  H   H330      1.0  0.26179  0.04719  0.44380  1.0000
  H   H331      1.0  0.22592  0.06757  0.44216  1.0000
  H   H332      1.0  0.26100  0.06643  0.43984  1.0000
  H   H333      1.0  0.22094  0.08497  0.44836  1.0000
  H   H334      1.0  0.25543  0.08395  0.44583  1.0000
  H   H335      1.0  0.23562  0.09338  0.45001  1.0000
  H   H336      1.0  0.04592  0.22576  0.50703  1.0000
  H   H337      1.0  0.09453  0.23226  0.50524  1.0000
  H   H338      1.0  0.30283  0.05563  0.49756  1.0000
  C   C289      1.0  0.17616  0.14841  0.38362  1.0000
  H   H339      1.0  0.07773  0.22286  0.45303  1.0000
  N   N18       1.0  0.25576  0.03933  0.38895  1.0000
  H   H340      1.0  0.26277  0.10759  0.44701  1.0000
  H   H341      1.0  0.21903  0.09102  0.40716  1.0000
  C   C290      1.0  0.27554  0.01081  0.39154  1.0000
  C   C291      1.0  0.15377  0.14721  0.39220  1.0000
  C   C292      1.0  0.06104  0.23152  0.43526  1.0000
  H   H342      1.0  0.28085  0.01664  0.50602  1.0000
  H   H343      1.0  0.09430  0.22253  0.57279  1.0000
  H   H344      1.0  0.16754  0.15561  0.44424  1.0000
  H   H345      1.0  0.06001  0.20239  0.45765  1.0000
  H   H346      1.0  0.15931  0.17395  0.43791  1.0000
  H   H347      1.0  0.15050  0.17162  0.43038  1.0000
  H   H348      1.0  0.25176  0.03377  0.40669  1.0000
  C   C293      1.0  0.27642  0.09498  0.50347  1.0000
  H   H349      1.0  0.25817  0.01664  0.39720  1.0000
  C   C294      1.0  0.26392  0.09363  0.41499  1.0000
  H   H350      1.0  0.23469  0.11727  0.42377  1.0000
  N   N19       1.0  0.14954  0.16149  0.44688  1.0000
  H   H351      1.0  0.24001  0.10828  0.53041  1.0000
  H   H352      1.0  0.27199  0.06063  0.58124  1.0000
  H   H353      1.0  0.11735  0.23435  0.48937  1.0000
  H   H354      1.0  0.16095  0.15117  0.43607  1.0000
  H   H355      1.0  0.23236  0.08575  0.57431  1.0000
  H   H356      1.0  0.24336  0.11650  0.53771  1.0000
  C   C295      1.0  0.23875  0.11968  0.43781  1.0000
  H   H357      1.0  0.27185  0.09349  0.48905  1.0000
  H   H358      1.0  0.28505  0.09073  0.50109  1.0000
  S   S97       1.0  0.04993  0.23093  0.47883  1.0000
  C   C296      1.0  0.13926  0.15844  0.44643  1.0000
  C   C297      1.0  0.13910  0.14766  0.44549  1.0000
  C   C298      1.0  0.12888  0.16627  0.44734  1.0000
  C   C299      1.0  0.12922  0.14508  0.44510  1.0000
  C   C300      1.0  0.11906  0.16359  0.44696  1.0000
  C   C301      1.0  0.11924  0.15305  0.44577  1.0000
  H   H359      1.0  0.14719  0.15541  0.46450  1.0000
  H   H360      1.0  0.14121  0.16990  0.46034  1.0000
  H   H361      1.0  0.15983  0.14497  0.45067  1.0000
  H   H362      1.0  0.14653  0.14110  0.44479  1.0000
  H   H363      1.0  0.12822  0.17455  0.44836  1.0000
  H   H364      1.0  0.12936  0.13687  0.44415  1.0000
  H   H365      1.0  0.11127  0.16978  0.44754  1.0000
  H   H366      1.0  0.11162  0.15105  0.44538  1.0000
  C   C302      1.0  0.03228  0.23288  0.45621  1.0000
  H   H367      1.0  0.27276  0.04357  0.52255  1.0000
  N   N20       1.0  0.07015  0.21364  0.44647  1.0000
  H   H368      1.0  0.15903  0.22462  0.57798  1.0000
  S   S98       1.0  0.29954  0.10559  0.57083  1.0000
  H   H369      1.0  0.11582  0.22665  0.50332  1.0000
  H   H370      1.0  0.24463  0.12050  0.45170  1.0000
  H   H371      1.0  0.15928  0.12978  0.39655  1.0000
  C   C303      1.0  0.32594  0.07943  0.38927  1.0000
  H   H372      1.0  0.30830  0.01051  0.40549  1.0000
  H   H373      1.0  0.26380  0.04477  0.50756  1.0000
  C   C304      1.0  0.26654  0.03558  0.50875  1.0000
  C   C305      1.0  0.24098  0.10089  0.38905  1.0000
  H   H374      1.0  0.08477  0.21354  0.42552  1.0000
  Fe  Fe50      1.0  0.00969  0.22218  0.42651  1.0000
  H   H375      1.0  0.30725  0.05141  0.47896  1.0000
  H   H376      1.0  0.06277  0.22575  0.45682  1.0000
  C   C306      1.0  0.04239  0.23613  0.46821  1.0000
  H   H377      1.0  0.05219  0.21517  0.45111  1.0000
  H   H378      1.0  0.25988  0.03195  0.51518  1.0000
  H   H379      1.0  0.24591  0.04813  0.40173  1.0000
  C   C307      1.0  0.07735  0.22869  0.41612  1.0000
  C   C308      1.0  0.01255  0.22552  0.53084  1.0000
  C   C309      1.0  0.25341  0.04131  0.40027  1.0000
  H   H380      1.0  0.24654  0.11764  0.40554  1.0000
  H   H381      1.0  0.20834  0.12177  0.57055  1.0000
  H   H382      1.0  0.27150  0.09708  0.41340  1.0000
  H   H383      1.0  0.27871  0.09685  0.51860  1.0000
  H   H384      1.0  0.28394  0.03182  0.52589  1.0000
  C   C310      1.0  0.26579  0.01916  0.39234  1.0000
  H   H385      1.0  0.26124  0.11545  0.40497  1.0000
  H   H386      1.0  0.25626  0.10768  0.39826  1.0000
  H   H387      1.0  0.23641  0.10353  0.41512  1.0000
  H   H388      1.0  0.26507  0.08969  0.40792  1.0000
  H   H389      1.0  0.02946  0.23536  0.49845  1.0000
  H   H390      1.0  0.24183  0.09193  0.42513  1.0000
  H   H391      1.0  0.24615  0.09188  0.41083  1.0000
  C   C311      1.0  0.27271  0.09860  0.51345  1.0000
  H   H392      1.0  0.24425  0.12129  0.52312  1.0000
  C   C312      1.0  0.26141  0.10402  0.51690  1.0000
  C   C313      1.0  0.25895  0.09774  0.53675  1.0000
  H   H393      1.0  0.27354  0.11083  0.52771  1.0000
  N   N21       1.0  0.20441  0.05547  0.47767  1.0000
  C   C314      1.0  0.20246  0.06013  0.48762  1.0000
  C   C315      1.0  0.21520  0.05753  0.47035  1.0000
  C   C316      1.0  0.19526  0.06166  0.47173  1.0000
  C   C317      1.0  0.20489  0.04334  0.48050  1.0000
  C   C318      1.0  0.20716  0.03647  0.49076  1.0000
  C   C319      1.0  0.20397  0.03789  0.47263  1.0000
  C   C320      1.0  0.20822  0.02494  0.49297  1.0000
  C   C321      1.0  0.20501  0.02637  0.47496  1.0000
  C   C322      1.0  0.20718  0.01991  0.48508  1.0000
  H   H394      1.0  0.20987  0.05738  0.49149  1.0000
  H   H395      1.0  0.20103  0.06935  0.48557  1.0000
  H   H396      1.0  0.19500  0.05788  0.49389  1.0000
  H   H397      1.0  0.21521  0.06657  0.46773  1.0000
  H   H398      1.0  0.21704  0.05431  0.46270  1.0000
  H   H399      1.0  0.22229  0.05346  0.47461  1.0000
  H   H400      1.0  0.18715  0.05938  0.47635  1.0000
  H   H401      1.0  0.19411  0.07084  0.47045  1.0000
  H   H402      1.0  0.19700  0.06025  0.46320  1.0000
  H   H403      1.0  0.20846  0.03977  0.49708  1.0000
  H   H404      1.0  0.20278  0.04236  0.46448  1.0000
  H   H405      1.0  0.21018  0.01983  0.50074  1.0000
  H   H406      1.0  0.20468  0.02236  0.46865  1.0000
  H   H407      1.0  0.20840  0.01094  0.48664  1.0000
  H   H408      1.0  0.19428  0.13521  0.39182  1.0000
  C   C323      1.0  0.07030  0.21907  0.45526  1.0000
  C   C324      1.0  0.24653  0.11699  0.44445  1.0000
  H   H409      1.0  0.26442  0.12239  0.52077  1.0000
  C   C325      1.0  0.13465  0.20289  0.57785  1.0000
  H   H410      1.0  0.26383  0.08684  0.42255  1.0000
  C   C326      1.0  0.25674  0.10972  0.44179  1.0000
  H   H411      1.0  0.25554  0.09992  0.54501  1.0000
  C   C327      1.0  0.25443  0.11118  0.40576  1.0000
  C   C328      1.0  0.25784  0.10170  0.49987  1.0000
  H   H412      1.0  0.26674  0.03339  0.50087  1.0000
  H   H413      1.0  0.23079  0.12533  0.43991  1.0000
  C   C329      1.0  0.24579  0.11369  0.52972  1.0000
  C   C330      1.0  0.26464  0.11512  0.52790  1.0000
  C   C331      1.0  0.26900  0.09649  0.49670  1.0000
  C   C332      1.0  0.25920  0.10509  0.43250  1.0000
  C   C333      1.0  0.24106  0.11499  0.42858  1.0000
  C   C334      1.0  0.25404  0.10543  0.50980  1.0000
  H   H414      1.0  0.26171  0.11835  0.53567  1.0000
  C   C335      1.0  0.29475  0.02485  0.40634  1.0000
  Fe  Fe51      1.0  0.02658  0.23255  0.40768  1.0000
  C   C336      1.0  0.15105  0.17203  0.43875  1.0000
  H   H415      1.0  0.14468  0.17936  0.44109  1.0000
  C   C337      1.0  0.16779  0.15813  0.38344  1.0000
  H   H416      1.0  0.23299  0.07329  0.40693  1.0000
  H   H417      1.0  0.28948  0.01636  0.51513  1.0000
  H   H418      1.0  0.15112  0.23527  0.56159  1.0000
  C   C338      1.0  0.06984  0.22193  0.43590  1.0000
  Fe  Fe52      1.0  0.27174  0.08214  0.58091  1.0000
  C   C339      1.0  0.23020  0.10099  0.39570  1.0000
  H   H419      1.0  0.08799  0.20742  0.44326  1.0000
  H   H420      1.0  0.08036  0.19841  0.45399  1.0000
  H   H421      1.0  0.31640  0.09844  0.39642  1.0000
  C   C340      1.0  0.28593  0.03702  0.50315  1.0000
  C   C341      1.0  0.07798  0.22071  0.42597  1.0000
  H   H422      1.0  0.05958  0.20482  0.44330  1.0000
  C   C342      1.0  0.21615  0.12016  0.57314  1.0000
  H   H423      1.0  0.28473  0.02936  0.49035  1.0000
  H   H424      1.0  0.33370  0.07787  0.39232  1.0000
  H   H425      1.0  0.28961  0.04707  0.51263  1.0000
  C   C343      1.0  0.28873  0.03478  0.49237  1.0000
  H   H426      1.0  0.32705  0.07296  0.38451  1.0000
  S   S99       1.0  0.28252  0.08340  0.38826  1.0000
  Fe  Fe53      1.0  0.02382  0.23584  0.43091  1.0000
  C   C344      1.0  0.01837  0.23120  0.52098  1.0000
  C   C345      1.0  0.08011  0.20432  0.44585  1.0000
  H   H427      1.0  0.11927  0.22595  0.45042  1.0000
  C   C346      1.0  0.24052  0.07129  0.56780  1.0000
  H   H428      1.0  0.23842  0.04294  0.38780  1.0000
  H   H429      1.0  0.30552  0.09128  0.38842  1.0000
  H   H430      1.0  0.22568  0.98917  0.41379  1.0000
  C   C347      1.0  0.11746  0.21837  0.56889  1.0000
  C   C348      1.0  0.00188  0.23343  0.39695  1.0000
  N   N22       1.0  0.18264  0.12759  0.38841  1.0000
  H   H431      1.0  0.17405  0.11670  0.40209  1.0000
  C   C349      1.0  0.11612  0.23512  0.49808  1.0000
  H   H432      1.0  0.28551  0.12796  0.58025  1.0000
  C   C350      1.0  0.09480  0.21460  0.57911  1.0000
  H   H433      1.0  0.31919  0.07799  0.39682  1.0000
  C   C351      1.0  0.19028  0.12792  0.39513  1.0000
  H   H434      1.0  0.19725  0.12043  0.39548  1.0000
  C   C352      1.0  0.24586  0.06011  0.56994  1.0000
  H   H435      1.0  0.18555  0.10963  0.39330  1.0000
  H   H436      1.0  0.17284  0.11615  0.38852  1.0000
  H   H437      1.0  0.10324  0.23423  0.51843  1.0000
  H   H438      1.0  0.27517  0.00225  0.39559  1.0000
  H   H439      1.0  0.31538  0.11293  0.57725  1.0000
  H   H440      1.0  0.05085  0.23315  0.51423  1.0000
  C   C353      1.0  0.12689  0.23469  0.58103  1.0000
  H   H441      1.0  0.24904  0.05563  0.56328  1.0000
  H   H442      1.0  0.24322  0.02922  0.39448  1.0000
  S   S100      1.0  0.10348  0.23518  0.46804  1.0000
  H   H443      1.0  0.26392  0.14324  0.57668  1.0000
  C   C354      1.0  0.31744  0.07649  0.58205  1.0000
  H   H444      1.0  0.05049  0.22034  0.38336  1.0000
  H   H445      1.0  0.27509  0.12497  0.57531  1.0000
  C   C355      1.0  0.01622  0.22324  0.54066  1.0000
  C   C356      1.0  0.03163  0.23228  0.53088  1.0000
  H   H446      1.0  0.03902  0.23467  0.53128  1.0000
  C   C357      1.0  0.15662  0.15753  0.38768  1.0000
  C   C358      1.0  0.13402  0.23728  0.57070  1.0000
  C   C359      1.0  0.24712  0.05468  0.58065  1.0000
  C   C360      1.0  0.32297  0.09902  0.38860  1.0000
  H   H447      1.0  0.05084  0.23817  0.49992  1.0000
  C   C361      1.0  0.04599  0.23417  0.50788  1.0000
  C   C362      1.0  0.28586  0.01352  0.38625  1.0000
  S   S101      1.0  0.26959  0.10033  0.57964  1.0000
  C   C363      1.0  0.02576  0.22660  0.54068  1.0000
  C   C364      1.0  0.23642  0.11587  0.57976  1.0000
  S   S102      1.0  0.07393  0.23535  0.48915  1.0000
  H   H448      1.0  0.33104  0.09777  0.39101  1.0000
  H   H449      1.0  0.11003  0.23268  0.42693  1.0000
  H   H450      1.0  0.08755  0.22771  0.38649  1.0000
  H   H451      1.0  0.11797  0.23747  0.58188  1.0000
  C   C365      1.0  0.07400  0.19988  0.38372  1.0000
  H   H452      1.0  0.24321  0.10861  0.38411  1.0000
  H   H453      1.0  0.00945  0.23006  0.39106  1.0000
  H   H454      1.0  0.32931  0.08664  0.57930  1.0000
  H   H455      1.0  0.32112  0.10764  0.38359  1.0000
  H   H456      1.0  0.18073  0.15805  0.58117  1.0000
  H   H457      1.0  0.07656  0.19098  0.38669  1.0000
  H   H458      1.0  0.05643  0.19992  0.38939  1.0000
  C   C366      1.0  0.06265  0.20490  0.38529  1.0000
  H   H459      1.0  0.14139  0.19717  0.58148  1.0000
  C   C367      1.0  0.27674  0.03297  0.38218  1.0000
  H   H460      1.0  0.26296  0.05392  0.38232  1.0000
  N   N23       1.0  0.32325  0.09076  0.38232  1.0000
  H   H461      1.0  0.27017  0.05367  0.61631  1.0000
  Fe  Fe54      1.0  0.23642  0.01379  0.63577  1.0000
  S   S103      1.0  0.25396  0.01557  0.63437  1.0000
  Fe  Fe55      1.0  0.22864  0.03811  0.62558  1.0000
  S   S104      1.0  0.24533  0.04199  0.62281  1.0000
  S   S105      1.0  0.21468  0.05186  0.62011  1.0000
  Fe  Fe56      1.0  0.25214  0.02566  0.61747  1.0000
  S   S106      1.0  0.26572  0.02430  0.60225  1.0000
  Fe  Fe57      1.0  0.24591  0.03175  0.63988  1.0000
  S   S107      1.0  0.24991  0.03949  0.65189  1.0000
  S   S108      1.0  0.23528  0.02285  0.61842  1.0000
  S   S109      1.0  0.22847  0.02889  0.64313  1.0000
  H   H462      1.0  0.27422  0.12016  0.68616  1.0000
  C   C368      1.0  0.30246  0.10354  0.58403  1.0000
  S   S110      1.0  0.04946  0.21001  0.64890  1.0000
  Fe  Fe58      1.0  0.34365  0.09301  0.73141  1.0000
  S   S111      1.0  0.35375  0.08900  0.71521  1.0000
  S   S112      1.0  0.33252  0.08266  0.74408  1.0000
  Fe  Fe59      1.0  0.34929  0.11560  0.72673  1.0000
  S   S113      1.0  0.35925  0.11403  0.70949  1.0000
  S   S114      1.0  0.34613  0.12992  0.73540  1.0000
  Fe  Fe60      1.0  0.34563  0.10641  0.70788  1.0000
  S   S115      1.0  0.33752  0.11030  0.69279  1.0000
  Fe  Fe61      1.0  0.36644  0.09675  0.71805  1.0000
  S   S116      1.0  0.38468  0.08809  0.71682  1.0000
  S   S117      1.0  0.33496  0.11005  0.72418  1.0000
  S   S118      1.0  0.35707  0.09871  0.73512  1.0000
  Fe  Fe62      1.0  0.30694  0.08386  0.65857  1.0000
  S   S119      1.0  0.29104  0.07724  0.66370  1.0000
  S   S120      1.0  0.31613  0.08187  0.67257  1.0000
  Fe  Fe63      1.0  0.30451  0.09108  0.63413  1.0000
  S   S121      1.0  0.28851  0.08547  0.63769  1.0000
  S   S122      1.0  0.31237  0.09944  0.61696  1.0000
  Fe  Fe64      1.0  0.28407  0.09299  0.65258  1.0000
  S   S123      1.0  0.26698  0.10316  0.65827  1.0000
  Fe  Fe65      1.0  0.29684  0.07024  0.64830  1.0000
  S   S124      1.0  0.29590  0.05410  0.64472  1.0000
  S   S125      1.0  0.29944  0.10000  0.64819  1.0000
  S   S126      1.0  0.31341  0.07539  0.64396  1.0000
  Fe  Fe66      1.0  0.20486  0.10698  0.63440  1.0000
  S   S127      1.0  0.21802  0.10604  0.61889  1.0000
  S   S128      1.0  0.20379  0.09042  0.64588  1.0000
  Fe  Fe67      1.0  0.19875  0.13223  0.62910  1.0000
  S   S129      1.0  0.21178  0.13323  0.61324  1.0000
  S   S130      1.0  0.18950  0.14913  0.63272  1.0000
  Fe  Fe68      1.0  0.20565  0.11954  0.61076  1.0000
  N   N24       1.0  0.23357  0.07829  0.59623  1.0000
  Fe  Fe69      1.0  0.22304  0.11973  0.62282  1.0000
  S   S131      1.0  0.24153  0.11903  0.61879  1.0000
  S   S132      1.0  0.19175  0.11930  0.62593  1.0000
  S   S133      1.0  0.21073  0.11982  0.63903  1.0000
  Fe  Fe70      1.0  0.12538  0.21021  0.63977  1.0000
  S   S134      1.0  0.11570  0.19771  0.64028  1.0000
  S   S135      1.0  0.12117  0.21800  0.65451  1.0000
  Fe  Fe71      1.0  0.13669  0.21100  0.61558  1.0000
  S   S136      1.0  0.12780  0.19884  0.61404  1.0000
  S   S137      1.0  0.14886  0.21782  0.60071  1.0000
  Fe  Fe72      1.0  0.11264  0.20831  0.62393  1.0000
  S   S138      1.0  0.09649  0.21593  0.61817  1.0000
  Fe  Fe73      1.0  0.13194  0.18935  0.63046  1.0000
  S   S139      1.0  0.13804  0.17065  0.63270  1.0000
  S   S140      1.0  0.12128  0.22133  0.62403  1.0000
  S   S141      1.0  0.14187  0.20104  0.63138  1.0000
  H   H463      1.0  0.28982  0.07394  0.61110  1.0000
  C   C369      1.0  0.37863  0.99073  0.78186  1.0000
  H   H464      1.0  0.39160  0.07998  0.74140  1.0000
  S   S142      1.0  0.37569  0.03819  0.76875  1.0000
  H   H465      1.0  0.18876  0.06312  0.64585  1.0000
  Fe  Fe74      1.0  0.39003  0.04688  0.76302  1.0000
  S   S143      1.0  0.39635  0.05253  0.74475  1.0000
  H   H466      1.0  0.25589  0.13951  0.60856  1.0000
  C   C370      1.0  0.49135  0.11196  0.74982  1.0000
  H   H467      1.0  0.18349  0.14454  0.61476  1.0000
  Fe  Fe75      1.0  0.43416  0.09944  0.73216  1.0000
  S   S144      1.0  0.42995  0.08432  0.74456  1.0000
  S   S145      1.0  0.42076  0.11064  0.72310  1.0000
  Fe  Fe76      1.0  0.45868  0.09329  0.73481  1.0000
  S   S146      1.0  0.45633  0.07711  0.74660  1.0000
  S   S147      1.0  0.47624  0.09669  0.73021  1.0000
  Fe  Fe77      1.0  0.44615  0.07550  0.73562  1.0000
  S   S148      1.0  0.44575  0.06060  0.72982  1.0000
  Fe  Fe78      1.0  0.44045  0.08753  0.75431  1.0000
  C   C371      1.0  0.19221  0.05455  0.64942  1.0000
  S   S149      1.0  0.45014  0.09056  0.72281  1.0000
  S   S150      1.0  0.44301  0.10385  0.74292  1.0000
  H   H468      1.0  0.28950  0.12095  0.59725  1.0000
  H   H469      1.0  0.44788  0.09684  0.69858  1.0000
  H   H470      1.0  0.41953  0.10384  0.69438  1.0000
  C   C372      1.0  0.37070  0.09054  0.76105  1.0000
  C   C373      1.0  0.08386  0.22833  0.66545  1.0000
  H   H471      1.0  0.04062  0.20719  0.67305  1.0000
  C   C374      1.0  0.38343  0.08094  0.74740  1.0000
  C   C375      1.0  0.41032  0.05407  0.74094  1.0000
  C   C376      1.0  0.41571  0.05555  0.72975  1.0000
  C   C377      1.0  0.42671  0.05718  0.72643  1.0000
  C   C378      1.0  0.43222  0.05780  0.73423  1.0000
  C   C379      1.0  0.42684  0.05633  0.74544  1.0000
  C   C380      1.0  0.41600  0.05418  0.74883  1.0000
  H   H472      1.0  0.41139  0.05541  0.72363  1.0000
  H   H473      1.0  0.43084  0.05811  0.71781  1.0000
  H   H474      1.0  0.43112  0.05666  0.75153  1.0000
  H   H475      1.0  0.41198  0.05284  0.75752  1.0000
  C   C381      1.0  0.21517  0.99355  0.62118  1.0000
  H   H476      1.0  0.09212  0.22485  0.59574  1.0000
  C   C382      1.0  0.12358  0.20370  0.58384  1.0000
  C   C383      1.0  0.48168  0.10239  0.73822  1.0000
  C   C384      1.0  0.47501  0.11042  0.74418  1.0000
  C   C385      1.0  0.47985  0.11526  0.74984  1.0000
  Fe  Fe79      1.0  0.38570  0.02643  0.78073  1.0000
  H   H477      1.0  0.43086  0.06824  0.69564  1.0000
  H   H478      1.0  0.46616  0.11309  0.74421  1.0000
  H   H479      1.0  0.47465  0.12161  0.75425  1.0000
  H   H480      1.0  0.21888  0.08834  0.59011  1.0000
  H   H481      1.0  0.17185  0.14306  0.61043  1.0000
  H   H482      1.0  0.18840  0.17216  0.60015  1.0000
  C   C386      1.0  0.17509  0.15477  0.63303  1.0000
  C   C387      1.0  0.16768  0.14823  0.63351  1.0000
  C   C388      1.0  0.15633  0.15317  0.63346  1.0000
  C   C389      1.0  0.15229  0.16463  0.63302  1.0000
  C   C390      1.0  0.15970  0.17109  0.63267  1.0000
  C   C391      1.0  0.17103  0.16618  0.63268  1.0000
  H   H483      1.0  0.17066  0.13939  0.63399  1.0000
  H   H484      1.0  0.15063  0.14809  0.63383  1.0000
  H   H485      1.0  0.15675  0.17988  0.63236  1.0000
  H   H486      1.0  0.17668  0.17128  0.63237  1.0000
  C   C392      1.0  0.24827  0.11477  0.62998  1.0000
  C   C393      1.0  0.24233  0.11487  0.64087  1.0000
  C   C394      1.0  0.24809  0.11160  0.64956  1.0000
  C   C395      1.0  0.25977  0.10805  0.64737  1.0000
  C   C396      1.0  0.26566  0.10814  0.63646  1.0000
  C   C397      1.0  0.25994  0.11135  0.62782  1.0000
  H   H487      1.0  0.23332  0.11753  0.64262  1.0000
  H   H488      1.0  0.24347  0.11161  0.65798  1.0000
  H   H489      1.0  0.27467  0.10605  0.63459  1.0000
  H   H490      1.0  0.26461  0.11132  0.61942  1.0000
  C   C398      1.0  0.33196  0.10210  0.68711  1.0000
  C   C399      1.0  0.32697  0.10724  0.67790  1.0000
  C   C400      1.0  0.32223  0.10123  0.67326  1.0000
  C   C401      1.0  0.32235  0.08992  0.67778  1.0000
  C   C402      1.0  0.32742  0.08475  0.68694  1.0000
  C   C403      1.0  0.33218  0.09075  0.69157  1.0000
  H   H491      1.0  0.32676  0.11597  0.67432  1.0000
  H   H492      1.0  0.31854  0.10536  0.66616  1.0000
  H   H493      1.0  0.32762  0.07602  0.69051  1.0000
  H   H494      1.0  0.33598  0.08662  0.69861  1.0000
  C   C404      1.0  0.33790  0.07562  0.75582  1.0000
  C   C405      1.0  0.33056  0.07219  0.76572  1.0000
  H   H495      1.0  0.03752  0.23136  0.66905  1.0000
  C   C406      1.0  0.34619  0.06407  0.77477  1.0000
  C   C407      1.0  0.35356  0.06742  0.76484  1.0000
  C   C408      1.0  0.34939  0.07337  0.75539  1.0000
  H   H496      1.0  0.32167  0.07392  0.76603  1.0000
  H   H497      1.0  0.08608  0.21513  0.58416  1.0000
  H   H498      1.0  0.36247  0.06543  0.76445  1.0000
  H   H499      1.0  0.35506  0.07601  0.74774  1.0000
  C   C409      1.0  0.39446  0.09458  0.71869  1.0000
  C   C410      1.0  0.39258  0.10615  0.71720  1.0000
  C   C411      1.0  0.40075  0.11101  0.71844  1.0000
  C   C412      1.0  0.41068  0.10434  0.72148  1.0000
  C   C413      1.0  0.41244  0.09278  0.72313  1.0000
  C   C414      1.0  0.40447  0.08796  0.72154  1.0000
  H   H500      1.0  0.38495  0.11135  0.71487  1.0000
  H   H501      1.0  0.39934  0.11997  0.71706  1.0000
  H   H502      1.0  0.42003  0.08753  0.72547  1.0000
  H   H503      1.0  0.40605  0.07902  0.72260  1.0000
  C   C415      1.0  0.42904  0.11766  0.77276  1.0000
  C   C416      1.0  0.43454  0.10712  0.77066  1.0000
  H   H504      1.0  0.05576  0.22462  0.62790  1.0000
  H   H505      1.0  0.43244  0.12487  0.76811  1.0000
  H   H506      1.0  0.44234  0.10618  0.76462  1.0000
  C   C417      1.0  0.35475  0.13729  0.76507  1.0000
  C   C418      1.0  0.36068  0.12745  0.76140  1.0000
  C   C419      1.0  0.35818  0.12485  0.75235  1.0000
  C   C420      1.0  0.35003  0.13224  0.74677  1.0000
  C   C421      1.0  0.34437  0.14205  0.75042  1.0000
  C   C422      1.0  0.34659  0.14447  0.75950  1.0000
  H   H507      1.0  0.36701  0.12182  0.76562  1.0000
  H   H508      1.0  0.36252  0.11724  0.74966  1.0000
  H   H509      1.0  0.33807  0.14784  0.74623  1.0000
  H   H510      1.0  0.34197  0.15208  0.76218  1.0000
  C   C423      1.0  0.06256  0.21129  0.64024  1.0000
  C   C424      1.0  0.07238  0.20436  0.64328  1.0000
  C   C425      1.0  0.08291  0.20566  0.63658  1.0000
  C   C426      1.0  0.08359  0.21374  0.62672  1.0000
  C   C427      1.0  0.07378  0.22045  0.62356  1.0000
  C   C428      1.0  0.06329  0.21937  0.63039  1.0000
  H   H511      1.0  0.07184  0.19796  0.65079  1.0000
  H   H512      1.0  0.09046  0.20032  0.63895  1.0000
  C   C429      1.0  0.22623  0.11713  0.58756  1.0000
  H   H513      1.0  0.29228  0.05994  0.60039  1.0000
  C   C430      1.0  0.14297  0.22488  0.58919  1.0000
  C   C431      1.0  0.42467  0.07596  0.69504  1.0000
  C   C432      1.0  0.25884  0.12601  0.59326  1.0000
  C   C433      1.0  0.29796  0.09497  0.69836  1.0000
  Fe  Fe80      1.0  0.03620  0.22545  0.64530  1.0000
  C   C434      1.0  0.34205  0.04071  0.76229  1.0000
  H   H514      1.0  0.14740  0.17577  0.60762  1.0000
  C   C435      1.0  0.26266  0.04375  0.64954  1.0000
  C   C436      1.0  0.27207  0.03998  0.64178  1.0000
  C   C437      1.0  0.28220  0.04317  0.64045  1.0000
  C   C438      1.0  0.28293  0.05043  0.64658  1.0000
  C   C439      1.0  0.27343  0.05444  0.65411  1.0000
  C   C440      1.0  0.26337  0.05102  0.65566  1.0000
  H   H515      1.0  0.27163  0.03433  0.63708  1.0000
  H   H516      1.0  0.28951  0.03985  0.63474  1.0000
  H   H517      1.0  0.27390  0.05997  0.65895  1.0000
  H   H518      1.0  0.25611  0.05399  0.66166  1.0000
  C   C441      1.0  0.21201  0.06271  0.62703  1.0000
  C   C442      1.0  0.20484  0.07283  0.62366  1.0000
  C   C443      1.0  0.20261  0.08152  0.62919  1.0000
  C   C444      1.0  0.20721  0.07994  0.63837  1.0000
  C   C445      1.0  0.21443  0.06985  0.64171  1.0000
  C   C446      1.0  0.21700  0.06132  0.63591  1.0000
  H   H519      1.0  0.20093  0.07393  0.61682  1.0000
  H   H520      1.0  0.19702  0.08932  0.62660  1.0000
  H   H521      1.0  0.21802  0.06860  0.64880  1.0000
  H   H522      1.0  0.22257  0.05356  0.63856  1.0000
  H   H523      1.0  0.22013  0.00702  0.62443  1.0000
  C   C447      1.0  0.49316  0.09910  0.73821  1.0000
  H   H524      1.0  0.29351  0.04853  0.61184  1.0000
  H   H525      1.0  0.34343  0.08709  0.77768  1.0000
  C   C448      1.0  0.24854  0.00147  0.60319  1.0000
  H   H526      1.0  0.03693  0.21825  0.69834  1.0000
  H   H527      1.0  0.22624  0.11656  0.59610  1.0000
  C   C449      1.0  0.39423  0.13527  0.74878  1.0000
  H   H528      1.0  0.48919  0.07307  0.76588  1.0000
  C   C450      1.0  0.29659  0.09762  0.59378  1.0000
  C   C451      1.0  0.29924  0.09650  0.60410  1.0000
  C   C452      1.0  0.30791  0.10107  0.60461  1.0000
  C   C453      1.0  0.31359  0.10704  0.59487  1.0000
  S   S151      1.0  0.43598  0.08500  0.77282  1.0000
  H   H529      1.0  0.29006  0.09393  0.59336  1.0000
  H   H530      1.0  0.29470  0.09203  0.61161  1.0000
  H   H531      1.0  0.32026  0.11063  0.59518  1.0000
  H   H532      1.0  0.21700  0.07536  0.59954  1.0000
  C   C454      1.0  0.27077  0.05847  0.59875  1.0000
  H   H533      1.0  0.24900  0.06216  0.63900  1.0000
  H   H534      1.0  0.21095  0.99884  0.61474  1.0000
  C   C455      1.0  0.27054  0.03637  0.60026  1.0000
  C   C456      1.0  0.27076  0.03981  0.60961  1.0000
  C   C457      1.0  0.27074  0.05091  0.60890  1.0000
  C   C458      1.0  0.22128  0.08241  0.59762  1.0000
  H   H535      1.0  0.27006  0.03410  0.61760  1.0000
  C   C459      1.0  0.38012  0.14905  0.75815  1.0000
  H   H536      1.0  0.29847  0.07150  0.62088  1.0000
  H   H537      1.0  0.39477  0.13997  0.76387  1.0000
  N   N25       1.0  0.33129  0.10750  0.76890  1.0000
  S   S152      1.0  0.02099  0.22887  0.65874  1.0000
  H   H538      1.0  0.15532  0.19129  0.60788  1.0000
  H   H539      1.0  0.33138  0.12486  0.76173  1.0000
  H   H540      1.0  0.37719  0.10231  0.74006  1.0000
  C   C460      1.0  0.16350  0.16507  0.60309  1.0000
  C   C461      1.0  0.37731  0.14548  0.74173  1.0000
  C   C462      1.0  0.28298  0.12505  0.60309  1.0000
  H   H541      1.0  0.10679  0.22283  0.59526  1.0000
  N   N26       1.0  0.30388  0.06012  0.60987  1.0000
  H   H542      1.0  0.37598  0.01644  0.76495  1.0000
  C   C463      1.0  0.31103  0.06708  0.60131  1.0000
  C   C464      1.0  0.40575  0.08525  0.69325  1.0000
  H   H543      1.0  0.40139  0.10278  0.69267  1.0000
  H   H544      1.0  0.08560  0.22617  0.69601  1.0000
  C   C465      1.0  0.34130  0.03379  0.75595  1.0000
  H   H545      1.0  0.30542  0.06655  0.58675  1.0000
  H   H546      1.0  0.33149  0.10604  0.75248  1.0000
  H   H547      1.0  0.25127  0.13106  0.59773  1.0000
  C   C466      1.0  0.38748  0.13770  0.74089  1.0000
  C   C467      1.0  0.09272  0.22260  0.64753  1.0000
  H   H548      1.0  0.38112  0.10719  0.74997  1.0000
  H   H549      1.0  0.06099  0.23081  0.60012  1.0000
  C   C468      1.0  0.32479  0.07883  0.59649  1.0000
  H   H550      1.0  0.10741  0.23571  0.66506  1.0000
  C   C469      1.0  0.16084  0.18370  0.60577  1.0000
  H   H551      1.0  0.39688  0.11327  0.75468  1.0000
  H   H552      1.0  0.26827  0.11083  0.68265  1.0000
  C   C470      1.0  0.27406  0.11123  0.68762  1.0000
  C   C471      1.0  0.41270  0.13115  0.73729  1.0000
  C   C472      1.0  0.41853  0.09579  0.69416  1.0000
  C   C473      1.0  0.44663  0.08390  0.68576  1.0000
  H   H553      1.0  0.45009  0.07797  0.70692  1.0000
  N   N27       1.0  0.43855  0.08624  0.69603  1.0000
  C   C474      1.0  0.37976  0.00182  0.77755  1.0000
  C   C475      1.0  0.10090  0.20380  0.59562  1.0000
  N   N28       1.0  0.37152  0.05369  0.72875  1.0000
  C   C476      1.0  0.37425  0.06465  0.72715  1.0000
  C   C477      1.0  0.36888  0.04873  0.74080  1.0000
  C   C478      1.0  0.38175  0.04630  0.72371  1.0000
  C   C479      1.0  0.36175  0.05532  0.72387  1.0000
  C   C480      1.0  0.35119  0.06153  0.72837  1.0000
  C   C481      1.0  0.36248  0.05141  0.71428  1.0000
  C   C482      1.0  0.34198  0.06382  0.72354  1.0000
  C   C483      1.0  0.35320  0.05373  0.70951  1.0000
  C   C484      1.0  0.34299  0.05997  0.71409  1.0000
  H   H554      1.0  0.36737  0.07045  0.73147  1.0000
  H   H555      1.0  0.38182  0.06391  0.73028  1.0000
  H   H556      1.0  0.37594  0.06878  0.71821  1.0000
  H   H557      1.0  0.36232  0.05439  0.74558  1.0000
  H   H558      1.0  0.37631  0.04679  0.74452  1.0000
  H   H559      1.0  0.36604  0.04084  0.74237  1.0000
  H   H560      1.0  0.38481  0.04993  0.71482  1.0000
  H   H561      1.0  0.38883  0.04508  0.72781  1.0000
  H   H562      1.0  0.38027  0.03790  0.72454  1.0000
  H   H563      1.0  0.35004  0.06503  0.73546  1.0000
  H   H564      1.0  0.37016  0.04669  0.71020  1.0000
  H   H565      1.0  0.33409  0.06886  0.72701  1.0000
  H   H566      1.0  0.35395  0.05083  0.70210  1.0000
  H   H567      1.0  0.33589  0.06194  0.71023  1.0000
  H   H568      1.0  0.24820  0.08523  0.59181  1.0000
  H   H569      1.0  0.17144  0.14938  0.59020  1.0000
  H   H570      1.0  0.45921  0.08389  0.76741  1.0000
  H   H571      1.0  0.34414  0.04197  0.77772  1.0000
  H   H572      1.0  0.36419  0.09151  0.75638  1.0000
  H   H573      1.0  0.31820  0.07117  0.61299  1.0000
  C   C485      1.0  0.09235  0.22038  0.67036  1.0000
  C   C486      1.0  0.39991  0.07773  0.75987  1.0000
  H   H574      1.0  0.05624  0.21647  0.69753  1.0000
  H   H575      1.0  0.26047  0.99647  0.61331  1.0000
  C   C487      1.0  0.10063  0.22338  0.59031  1.0000
  H   H576      1.0  0.09235  0.22423  0.63866  1.0000
  H   H577      1.0  0.07287  0.23020  0.64333  1.0000
  C   C488      1.0  0.32259  0.10082  0.77423  1.0000
  H   H578      1.0  0.18561  0.13555  0.60555  1.0000
  H   H579      1.0  0.00477  0.21735  0.63484  1.0000
  H   H580      1.0  0.15962  0.15846  0.60330  1.0000
  H   H581      1.0  0.23928  0.09016  0.62263  1.0000
  C   C489      1.0  0.24061  0.99854  0.59953  1.0000
  H   H582      1.0  0.41503  0.06861  0.76551  1.0000
  H   H583      1.0  0.09895  0.21490  0.66583  1.0000
  C   C490      1.0  0.12693  0.23716  0.64090  1.0000
  H   H584      1.0  0.29398  0.12039  0.61453  1.0000
  H   H585      1.0  0.26191  0.07938  0.64811  1.0000
  Fe  Fe81      1.0  0.36937  0.04857  0.78156  1.0000
  H   H586      1.0  0.07798  0.19349  0.67013  1.0000
  H   H587      1.0  0.10306  0.19577  0.59295  1.0000
  C   C491      1.0  0.03752  0.21073  0.68062  1.0000
  H   H588      1.0  0.23828  0.07083  0.63212  1.0000
  H   H589      1.0  0.37707  0.15332  0.76497  1.0000
  H   H590      1.0  0.07112  0.22102  0.65668  1.0000
  H   H591      1.0  0.07426  0.22651  0.61580  1.0000
  C   C492      1.0  0.17958  0.17260  0.60135  1.0000
  H   H592      1.0  0.42109  0.12541  0.73634  1.0000
  H   H593      1.0  0.19747  0.15409  0.60249  1.0000
  C   C493      1.0  0.24324  0.06044  0.58925  1.0000
  C   C494      1.0  0.29495  0.06734  0.61647  1.0000
  C   C495      1.0  0.26619  0.14258  0.58466  1.0000
  H   H594      1.0  0.41222  0.06773  0.69438  1.0000
  C   C496      1.0  0.43939  0.09707  0.69754  1.0000
  H   H595      1.0  0.43784  0.10392  0.69029  1.0000
  H   H596      1.0  0.31927  0.12083  0.76128  1.0000
  H   H597      1.0  0.25163  0.06531  0.62416  1.0000
  H   H598      1.0  0.47184  0.07590  0.76084  1.0000
  H   H599      1.0  0.45528  0.08408  0.68597  1.0000
  H   H600      1.0  0.10118  0.22348  0.64751  1.0000
  C   C497      1.0  0.37501  0.00799  0.76851  1.0000
  C   C498      1.0  0.19712  0.05222  0.65847  1.0000
  H   H601      1.0  0.40107  0.07198  0.75471  1.0000
  H   H602      1.0  0.25664  0.12542  0.58566  1.0000
  H   H603      1.0  0.37213  0.14701  0.73578  1.0000
  C   C499      1.0  0.31062  0.05165  0.61737  1.0000
  N   N29       1.0  0.28536  0.10427  0.68450  1.0000
  C   C500      1.0  0.28395  0.09289  0.68535  1.0000
  C   C501      1.0  0.29018  0.10866  0.67273  1.0000
  H   H604      1.0  0.28007  0.08911  0.69394  1.0000
  H   H605      1.0  0.27844  0.09292  0.67990  1.0000
  H   H606      1.0  0.29212  0.08730  0.68265  1.0000
  H   H607      1.0  0.29874  0.10366  0.67014  1.0000
  H   H608      1.0  0.28492  0.10841  0.66718  1.0000
  H   H609      1.0  0.29090  0.11744  0.67109  1.0000
  H   H610      1.0  0.29713  0.08672  0.69863  1.0000
  H   H611      1.0  0.34124  0.04957  0.75888  1.0000
  C   C502      1.0  0.04579  0.22648  0.67066  1.0000
  C   C503      1.0  0.27181  0.05480  0.58914  1.0000
  H   H612      1.0  0.13297  0.23186  0.63575  1.0000
  C   C504      1.0  0.38996  0.09378  0.76777  1.0000
  C   C505      1.0  0.31081  0.06959  0.58987  1.0000
  C   C506      1.0  0.36725  0.99237  0.76878  1.0000
  C   C507      1.0  0.17532  0.16359  0.60082  1.0000
  S   S153      1.0  0.35671  0.14135  0.77654  1.0000
  C   C508      1.0  0.20190  0.04128  0.66288  1.0000
  C   C509      1.0  0.27214  0.13039  0.60102  1.0000
  C   C510      1.0  0.26436  0.13549  0.60942  1.0000
  H   H613      1.0  0.27992  0.11565  0.58697  1.0000
  C   C511      1.0  0.26722  0.13517  0.61929  1.0000
  C   C512      1.0  0.28573  0.12472  0.61303  1.0000
  C   C513      1.0  0.27787  0.12975  0.62110  1.0000
  H   H614      1.0  0.02996  0.22900  0.68869  1.0000
  H   H615      1.0  0.19689  0.15982  0.58804  1.0000
  H   H616      1.0  0.33860  0.12240  0.77667  1.0000
  H   H617      1.0  0.23183  0.06442  0.61008  1.0000
  N   N30       1.0  0.26887  0.13084  0.59065  1.0000
  C   C514      1.0  0.37367  0.15117  0.75031  1.0000
  H   H618      1.0  0.23241  0.07668  0.61367  1.0000
  C   C515      1.0  0.07290  0.22932  0.65220  1.0000
  C   C516      1.0  0.07571  0.23502  0.67231  1.0000
  N   N31       1.0  0.47385  0.08327  0.77325  1.0000
  C   C517      1.0  0.23893  0.08796  0.59320  1.0000
  H   H619      1.0  0.26100  0.13878  0.62573  1.0000
  H   H620      1.0  0.31606  0.10283  0.76928  1.0000
  H   H621      1.0  0.27996  0.12923  0.62889  1.0000
  H   H622      1.0  0.34377  0.10942  0.75384  1.0000
  H   H623      1.0  0.28925  0.06248  0.62294  1.0000
  H   H624      1.0  0.32985  0.08281  0.59912  1.0000
  S   S154      1.0  0.41067  0.13225  0.78095  1.0000
  C   C518      1.0  0.05576  0.21141  0.68266  1.0000
  C   C519      1.0  0.33469  0.06657  0.77524  1.0000
  H   H625      1.0  0.37016  0.08300  0.76786  1.0000
  C   C520      1.0  0.23780  0.07188  0.58736  1.0000
  H   H626      1.0  0.05059  0.23245  0.67090  1.0000
  C   C521      1.0  0.13136  0.22833  0.59026  1.0000
  C   C522      1.0  0.40733  0.08281  0.77277  1.0000
  N   N32       1.0  0.04455  0.21805  0.68116  1.0000
  C   C523      1.0  0.34371  0.03629  0.77309  1.0000
  H   H627      1.0  0.48515  0.09972  0.77273  1.0000
  H   H628      1.0  0.41305  0.13245  0.75740  1.0000
  C   C524      1.0  0.31809  0.07208  0.60439  1.0000
  C   C525      1.0  0.34374  0.01796  0.77125  1.0000
  H   H629      1.0  0.10567  0.20301  0.60197  1.0000
  C   C526      1.0  0.24843  0.08776  0.62208  1.0000
  H   H630      1.0  0.04280  0.23029  0.69062  1.0000
  C   C527      1.0  0.03835  0.22409  0.69016  1.0000
  H   H631      1.0  0.30467  0.04882  0.59977  1.0000
  S   S155      1.0  0.20326  0.12044  0.59388  1.0000
  N   N33       1.0  0.08376  0.23036  0.65356  1.0000
  H   H632      1.0  0.39163  0.09966  0.74064  1.0000
  H   H633      1.0  0.09197  0.20511  0.60015  1.0000
  H   H634      1.0  0.02876  0.21533  0.68031  1.0000
  C   C528      1.0  0.24651  0.08231  0.64206  1.0000
  H   H635      1.0  0.36568  0.15704  0.75109  1.0000
  C   C529      1.0  0.06057  0.21158  0.69138  1.0000
  H   H636      1.0  0.38311  0.10084  0.76880  1.0000
  C   C530      1.0  0.21609  0.11916  0.58426  1.0000
  H   H637      1.0  0.20003  0.14508  0.59325  1.0000
  H   H638      1.0  0.38279  0.07267  0.75290  1.0000
  N   N34       1.0  0.19699  0.02578  0.64355  1.0000
  C   C531      1.0  0.18527  0.02537  0.64426  1.0000
  C   C532      1.0  0.20272  0.02810  0.63170  1.0000
  C   C533      1.0  0.20269  0.01453  0.64874  1.0000
  C   C534      1.0  0.19706  0.03471  0.64885  1.0000
  C   C535      1.0  0.20181  0.03260  0.65824  1.0000
  C   C536      1.0  0.19219  0.04596  0.64464  1.0000
  H   H639      1.0  0.25899  0.14762  0.58956  1.0000
  H   H640      1.0  0.24500  0.06866  0.60677  1.0000
  C   C537      1.0  0.40807  0.07573  0.76599  1.0000
  H   H641      1.0  0.18487  0.01849  0.64071  1.0000
  H   H642      1.0  0.18055  0.02406  0.65303  1.0000
  H   H643      1.0  0.18070  0.03318  0.63963  1.0000
  H   H644      1.0  0.19856  0.03603  0.62689  1.0000
  H   H645      1.0  0.20304  0.02144  0.62750  1.0000
  H   H646      1.0  0.21146  0.02877  0.63083  1.0000
  H   H647      1.0  0.19853  0.01191  0.65755  1.0000
  H   H648      1.0  0.20273  0.00803  0.64444  1.0000
  H   H649      1.0  0.21164  0.01418  0.64830  1.0000
  H   H650      1.0  0.20580  0.02436  0.66201  1.0000
  H   H651      1.0  0.18855  0.04827  0.63744  1.0000
  S   S156      1.0  0.40059  0.03456  0.77417  1.0000
  H   H652      1.0  0.32606  0.09174  0.77505  1.0000
  H   H653      1.0  0.47708  0.11712  0.77853  1.0000
  C   C538      1.0  0.22968  0.08920  0.65525  1.0000
  H   H654      1.0  0.22065  0.09204  0.65738  1.0000
  H   H655      1.0  0.23224  0.09140  0.67031  1.0000
  H   H656      1.0  0.44698  0.07554  0.68449  1.0000
  H   H657      1.0  0.44430  0.09013  0.67835  1.0000
  C   C539      1.0  0.23585  0.07171  0.60715  1.0000
  H   H658      1.0  0.12588  0.22615  0.59820  1.0000
  C   C540      1.0  0.33726  0.10446  0.75816  1.0000
  C   C541      1.0  0.27170  0.04367  0.58990  1.0000
  H   H659      1.0  0.31290  0.10629  0.70904  1.0000
  H   H660      1.0  0.05001  0.22269  0.66338  1.0000
  C   C542      1.0  0.29840  0.05409  0.60521  1.0000
  H   H661      1.0  0.37699  0.08314  0.74235  1.0000
  C   C543      1.0  0.08496  0.22657  0.68766  1.0000
  H   H662      1.0  0.09207  0.21378  0.65118  1.0000
  H   H663      1.0  0.49086  0.08059  0.77501  1.0000
  H   H664      1.0  0.36827  0.09788  0.76489  1.0000
  C   C544      1.0  0.39026  0.14122  0.75746  1.0000
  S   S157      1.0  0.38246  0.05865  0.77447  1.0000
  H   H665      1.0  0.30396  0.12337  0.69746  1.0000
  H   H666      1.0  0.25120  0.09535  0.62188  1.0000
  C   C545      1.0  0.46834  0.08347  0.76439  1.0000
  C   C546      1.0  0.38299  0.10015  0.74581  1.0000
  C   C547      1.0  0.34470  0.02477  0.77790  1.0000
  H   H667      1.0  0.46936  0.09080  0.75747  1.0000
  H   H668      1.0  0.08587  0.19405  0.68552  1.0000
  H   H669      1.0  0.12234  0.19834  0.59197  1.0000
  C   C548      1.0  0.24744  0.06886  0.63163  1.0000
  S   S158      1.0  0.26867  0.07259  0.59840  1.0000
  C   C549      1.0  0.23617  0.08879  0.66256  1.0000
  H   H670      1.0  0.30571  0.04568  0.62331  1.0000
  C   C550      1.0  0.39058  0.08682  0.76058  1.0000
  C   C551      1.0  0.36878  0.00329  0.76418  1.0000
  C   C552      1.0  0.32544  0.11938  0.76651  1.0000
  H   H671      1.0  0.40010  0.11669  0.73977  1.0000
  H   H672      1.0  0.25234  0.08538  0.61395  1.0000
  H   H673      1.0  0.41393  0.13947  0.73717  1.0000
  C   C553      1.0  0.06238  0.20469  0.67505  1.0000
  H   H674      1.0  0.40955  0.13190  0.72979  1.0000
  H   H675      1.0  0.19742  0.05897  0.66191  1.0000
  H   H676      1.0  0.09974  0.21377  0.68467  1.0000
  C   C554      1.0  0.07128  0.20530  0.69239  1.0000
  H   H677      1.0  0.41095  0.10964  0.74699  1.0000
  C   C555      1.0  0.29268  0.10464  0.69155  1.0000
  S   S159      1.0  0.23143  0.99713  0.64290  1.0000
  C   C556      1.0  0.15640  0.17499  0.60550  1.0000
  H   H678      1.0  0.34143  0.09552  0.75917  1.0000
  H   H679      1.0  0.33999  0.03722  0.74759  1.0000
  C   C557      1.0  0.25446  0.99371  0.61072  1.0000
  H   H680      1.0  0.22927  0.08632  0.63991  1.0000
  N   N35       1.0  0.38208  0.08947  0.75382  1.0000
  H   H681      1.0  0.05929  0.20417  0.66819  1.0000
  C   C558      1.0  0.23473  0.08597  0.64518  1.0000
  H   H682      1.0  0.29131  0.12263  0.68651  1.0000
  C   C559      1.0  0.40310  0.11622  0.74725  1.0000
  C   C560      1.0  0.17239  0.18249  0.60375  1.0000
  C   C561      1.0  0.30496  0.09565  0.70477  1.0000
  H   H683      1.0  0.30919  0.08815  0.70963  1.0000
  H   H684      1.0  0.26765  0.08266  0.62897  1.0000
  H   H685      1.0  0.26703  0.06829  0.63545  1.0000
  C   C562      1.0  0.27775  0.12461  0.58300  1.0000
  C   C563      1.0  0.44193  0.07759  0.70558  1.0000
  C   C564      1.0  0.19478  0.15309  0.59531  1.0000
  H   H686      1.0  0.17576  0.18920  0.60430  1.0000
  C   C565      1.0  0.29488  0.11494  0.69158  1.0000
  H   H687      1.0  0.25281  0.08503  0.66541  1.0000
  C   C566      1.0  0.18077  0.14367  0.60758  1.0000
  H   H688      1.0  0.34438  0.00908  0.77411  1.0000
  H   H689      1.0  0.43337  0.09931  0.70512  1.0000
  C   C567      1.0  0.24775  0.08515  0.65981  1.0000
  H   H690      1.0  0.39743  0.08493  0.69286  1.0000
  C   C568      1.0  0.33940  0.10515  0.77607  1.0000
  C   C569      1.0  0.22035  0.99821  0.62668  1.0000
  C   C570      1.0  0.42720  0.08605  0.69521  1.0000
  N   N36       1.0  0.10295  0.21318  0.58604  1.0000
  C   C571      1.0  0.22558  0.99147  0.63521  1.0000
  H   H691      1.0  0.24470  0.05570  0.59728  1.0000
  H   H692      1.0  0.26758  0.07318  0.62102  1.0000
  H   H693      1.0  0.44313  0.06898  0.70455  1.0000
  C   C572      1.0  0.41067  0.12487  0.75691  1.0000
  H   H694      1.0  0.27030  0.10843  0.69653  1.0000
  N   N37       1.0  0.40499  0.12703  0.74765  1.0000
  C   C573      1.0  0.46942  0.09387  0.77709  1.0000
  C   C574      1.0  0.26401  0.07559  0.62917  1.0000
  H   H695      1.0  0.10348  0.23591  0.61358  1.0000
  H   H696      1.0  0.43560  0.07850  0.71338  1.0000
  H   H697      1.0  0.41857  0.11842  0.75594  1.0000
  C   C575      1.0  0.40801  0.09534  0.69313  1.0000
  N   N38       1.0  0.18265  0.15307  0.59806  1.0000
  H   H698      1.0  0.20588  0.03955  0.66981  1.0000
  H   H699      1.0  0.23608  0.09291  0.59976  1.0000
  H   H700      1.0  0.40531  0.12175  0.76500  1.0000
  H   H701      1.0  0.26021  0.11749  0.59860  1.0000
  H   H702      1.0  0.31813  0.04679  0.61260  1.0000
  C   C576      1.0  0.07311  0.19855  0.67607  1.0000
  C   C577      1.0  0.09289  0.21960  0.68128  1.0000
  H   H703      1.0  0.36496  0.00821  0.75733  1.0000
  C   C578      1.0  0.25290  0.08198  0.64971  1.0000
  C   C579      1.0  0.41406  0.07558  0.69419  1.0000
  C   C580      1.0  0.30203  0.11549  0.69789  1.0000
  C   C581      1.0  0.30705  0.10587  0.70447  1.0000
  H   H704      1.0  0.39002  0.13360  0.73399  1.0000
  H   H705      1.0  0.31345  0.05537  0.62272  1.0000
  H   H706      1.0  0.21772  0.08694  0.60452  1.0000
  H   H707      1.0  0.07479  0.20550  0.69912  1.0000
  N   N39       1.0  0.25160  0.07869  0.63144  1.0000
  H   H708      1.0  0.32081  0.12229  0.77426  1.0000
  H   H709      1.0  0.03720  0.20366  0.68793  1.0000
  C   C582      1.0  0.12020  0.23244  0.65068  1.0000
  H   H710      1.0  0.39767  0.09713  0.77922  1.0000
  C   C583      1.0  0.07755  0.19884  0.68474  1.0000
  C   C584      1.0  0.34213  0.02244  0.76043  1.0000
  S   S160      1.0  0.02673  0.23169  0.63152  1.0000
  C   C585      1.0  0.42995  0.09786  0.77639  1.0000
  C   C586      1.0  0.34497  0.09404  0.77988  1.0000
  C   C587      1.0  0.41877  0.11893  0.78032  1.0000
  C   C588      1.0  0.31085  0.10831  0.58469  1.0000
  H   H711      1.0  0.23588  0.00463  0.59386  1.0000
  H   H712      1.0  0.34160  0.01700  0.75550  1.0000
  C   C589      1.0  0.07632  0.23420  0.68321  1.0000
  C   C590      1.0  0.18001  0.15091  0.58837  1.0000
  H   H713      1.0  0.25007  0.00984  0.60027  1.0000
  S   S161      1.0  0.49724  0.11849  0.75674  1.0000
  C   C591      1.0  0.39828  0.09181  0.77370  1.0000
  H   H714      1.0  0.23695  0.09379  0.58549  1.0000
  Fe  Fe82      1.0  0.01178  0.23642  0.64483  1.0000
  C   C592      1.0  0.47626  0.10133  0.77622  1.0000
  H   H715      1.0  0.48842  0.08765  0.76133  1.0000
  C   C593      1.0  0.32446  0.08103  0.58534  1.0000
  C   C594      1.0  0.48612  0.08108  0.76871  1.0000
  H   H716      1.0  0.10101  0.23089  0.58349  1.0000
  H   H717      1.0  0.06582  0.23585  0.65518  1.0000
  C   C595      1.0  0.34221  0.11368  0.77926  1.0000
  C   C596      1.0  0.47170  0.11144  0.77959  1.0000
  H   H718      1.0  0.41370  0.08113  0.77748  1.0000
  H   H719      1.0  0.18580  0.14333  0.58576  1.0000
  C   C597      1.0  0.45785  0.09707  0.78175  1.0000
  H   H720      1.0  0.47505  0.06568  0.78010  1.0000
  H   H721      1.0  0.27348  0.14654  0.58278  1.0000
  H   H722      1.0  0.27162  0.04099  0.58264  1.0000
  H   H723      1.0  0.24423  0.11423  0.58234  1.0000
  H   H724      1.0  0.25122  0.04595  0.58233  1.0000
  Fe  Fe83      1.0  0.38682  0.21263  0.96699  1.0000
  H   H725      1.0  0.38086  0.22080  0.90847  1.0000
  Fe  Fe84      1.0  0.39519  0.20385  0.94545  1.0000
  S   S162      1.0  0.39202  0.22081  0.93468  1.0000
  S   S163      1.0  0.40192  0.18839  0.93829  1.0000
  Fe  Fe85      1.0  0.39903  0.22594  0.94629  1.0000
  H   H726      1.0  0.42492  0.17748  0.89353  1.0000
  Fe  Fe86      1.0  0.37586  0.22357  0.94705  1.0000
  C   C598      1.0  0.35402  0.21964  0.92187  1.0000
  S   S164      1.0  0.40388  0.20863  0.95614  1.0000
  S   S165      1.0  0.37848  0.20619  0.95729  1.0000
  C   C599      1.0  0.42896  0.18793  0.90810  1.0000
  S   S166      1.0  0.45623  0.21974  0.91250  1.0000
  H   H727      1.0  0.35528  0.00385  0.78747  1.0000
  H   H728      1.0  0.40065  0.23749  0.96437  1.0000
  S   S167      1.0  0.45644  0.22021  0.86178  1.0000
  C   C600      1.0  0.34790  0.00809  0.79295  1.0000
  H   H729      1.0  0.44696  0.18861  0.87231  1.0000
  Fe  Fe87      1.0  0.45742  0.23155  0.87211  1.0000
  Fe  Fe88      1.0  0.39195  0.04583  0.78622  1.0000
  H   H730      1.0  0.40653  0.11051  0.79229  1.0000
  S   S168      1.0  0.36383  0.12893  0.80604  1.0000
  H   H731      1.0  0.40310  0.23847  0.92071  1.0000
  N   N40       1.0  0.43412  0.19064  0.88707  1.0000
  S   S169      1.0  0.38987  0.12301  0.80792  1.0000
  C   C601      1.0  0.43245  0.19446  0.89742  1.0000
  Fe  Fe89      1.0  0.37858  0.11471  0.80362  1.0000
  S   S170      1.0  0.37438  0.09777  0.81121  1.0000
  Fe  Fe90      1.0  0.37561  0.13787  0.80891  1.0000
  S   S171      1.0  0.37124  0.14618  0.82393  1.0000
  H   H732      1.0  0.40221  0.21796  0.88326  1.0000
  S   S172      1.0  0.38253  0.23027  0.95770  1.0000
  Fe  Fe91      1.0  0.39754  0.18563  0.87707  1.0000
  S   S173      1.0  0.39198  0.20412  0.87366  1.0000
  S   S174      1.0  0.40299  0.17616  0.89304  1.0000
  Fe  Fe92      1.0  0.39495  0.18341  0.85437  1.0000
  S   S175      1.0  0.38956  0.20209  0.84931  1.0000
  S   S176      1.0  0.39694  0.17306  0.84136  1.0000
  Fe  Fe93      1.0  0.40306  0.20328  0.85691  1.0000
  S   S177      1.0  0.41293  0.21675  0.84929  1.0000
  Fe  Fe94      1.0  0.37910  0.20126  0.86650  1.0000
  S   S178      1.0  0.36097  0.20992  0.86943  1.0000
  S   S179      1.0  0.40954  0.18481  0.86059  1.0000
  S   S180      1.0  0.38359  0.18256  0.87133  1.0000
  C   C602      1.0  0.43340  0.17884  0.88897  1.0000
  S   S181      1.0  0.40077  0.05337  0.79450  1.0000
  H   H733      1.0  0.42463  0.18675  0.92575  1.0000
  H   H734      1.0  0.42731  0.17979  0.90933  1.0000
  H   H735      1.0  0.36386  0.02060  0.78427  1.0000
  C   C603      1.0  0.35689  0.22325  0.87249  1.0000
  H   H736      1.0  0.33727  0.02206  0.80591  1.0000
  H   H737      1.0  0.42631  0.19504  0.87306  1.0000
  H   H738      1.0  0.33947  0.22267  0.87643  1.0000
  C   C604      1.0  0.33648  0.02538  0.79713  1.0000
  C   C605      1.0  0.37889  0.15307  0.82889  1.0000
  C   C606      1.0  0.38924  0.15553  0.82293  1.0000
  C   C607      1.0  0.39466  0.16146  0.82696  1.0000
  C   C608      1.0  0.38992  0.16500  0.83705  1.0000
  C   C609      1.0  0.37973  0.16221  0.84318  1.0000
  C   C610      1.0  0.37425  0.15639  0.83909  1.0000
  H   H739      1.0  0.39300  0.15306  0.81509  1.0000
  H   H740      1.0  0.40256  0.16344  0.82213  1.0000
  H   H741      1.0  0.37609  0.16450  0.85108  1.0000
  H   H742      1.0  0.36630  0.15452  0.84386  1.0000
  H   H743      1.0  0.42744  0.20536  0.92446  1.0000
  C   C611      1.0  0.40614  0.22111  0.89725  1.0000
  S   S182      1.0  0.37824  0.03632  0.79415  1.0000
  C   C612      1.0  0.36185  0.17833  0.81861  1.0000
  H   H744      1.0  0.46228  0.07418  0.78564  1.0000
  C   C613      1.0  0.38178  0.08611  0.80536  1.0000
  C   C614      1.0  0.39346  0.08375  0.80224  1.0000
  C   C615      1.0  0.39922  0.07362  0.79909  1.0000
  C   C616      1.0  0.39334  0.06612  0.79831  1.0000
  C   C617      1.0  0.38163  0.06871  0.80100  1.0000
  C   C618      1.0  0.37590  0.07850  0.80481  1.0000
  H   H745      1.0  0.40734  0.23582  0.83047  1.0000
  H   H746      1.0  0.43382  0.21710  0.90618  1.0000
  H   H747      1.0  0.37702  0.06291  0.80061  1.0000
  H   H748      1.0  0.36689  0.08009  0.80748  1.0000
  C   C619      1.0  0.44378  0.21873  0.85975  1.0000
  C   C620      1.0  0.43347  0.22573  0.86301  1.0000
  C   C621      1.0  0.42379  0.22473  0.86034  1.0000
  C   C622      1.0  0.42433  0.21652  0.85473  1.0000
  C   C623      1.0  0.43455  0.20925  0.85193  1.0000
  C   C624      1.0  0.44423  0.21040  0.85436  1.0000
  H   H749      1.0  0.34039  0.00522  0.79295  1.0000
  H   H750      1.0  0.40683  0.20763  0.98076  1.0000
  H   H751      1.0  0.43511  0.20308  0.84735  1.0000
  H   H752      1.0  0.45218  0.20499  0.85178  1.0000
  C   C625      1.0  0.42794  0.23808  0.83244  1.0000
  C   C626      1.0  0.40154  0.18603  0.92542  1.0000
  C   C627      1.0  0.39847  0.19449  0.91646  1.0000
  C   C628      1.0  0.39880  0.19178  0.90633  1.0000
  C   C629      1.0  0.40212  0.18062  0.90525  1.0000
  C   C630      1.0  0.40523  0.17235  0.91420  1.0000
  C   C631      1.0  0.40495  0.17502  0.92414  1.0000
  H   H753      1.0  0.39590  0.20303  0.91735  1.0000
  H   H754      1.0  0.39634  0.19825  0.89948  1.0000
  H   H755      1.0  0.40785  0.16374  0.91348  1.0000
  H   H756      1.0  0.40740  0.16844  0.93094  1.0000
  H   H757      1.0  0.38419  0.23432  0.97942  1.0000
  C   C632      1.0  0.42781  0.22245  0.93598  1.0000
  C   C633      1.0  0.43841  0.21828  0.92996  1.0000
  H   H758      1.0  0.35078  0.22810  0.92362  1.0000
  H   H759      1.0  0.35295  0.22726  0.90060  1.0000
  C   C634      1.0  0.36461  0.22960  0.87176  1.0000
  H   H760      1.0  0.42359  0.21697  0.94284  1.0000
  H   H761      1.0  0.44231  0.20956  0.93213  1.0000
  H   H762      1.0  0.36272  0.17339  0.81264  1.0000
  H   H763      1.0  0.43646  0.21075  0.88918  1.0000
  H   H764      1.0  0.44633  0.20046  0.87722  1.0000
  H   H765      1.0  0.34237  0.18867  0.83910  1.0000
  H   H766      1.0  0.41687  0.19684  0.88596  1.0000
  H   H767      1.0  0.34700  0.21703  0.92036  1.0000
  H   H768      1.0  0.35540  0.03246  0.78957  1.0000
  H   H769      1.0  0.34223  0.20533  0.84435  1.0000
  N   N41       1.0  0.34636  0.02038  0.78941  1.0000
  H   H770      1.0  0.34756  0.20431  0.85623  1.0000
  H   H771      1.0  0.32866  0.02368  0.79627  1.0000
  C   C635      1.0  0.39805  0.23542  0.88328  1.0000
  H   H772      1.0  0.34390  0.19245  0.85472  1.0000
  C   C636      1.0  0.46029  0.11436  0.78403  1.0000
  C   C637      1.0  0.49352  0.22076  0.91730  1.0000
  S   S183      1.0  0.38360  0.12076  0.78526  1.0000
  H   H773      1.0  0.37521  0.21640  0.92300  1.0000
  H   H774      1.0  0.36122  0.09837  0.79478  1.0000
  S   S184      1.0  0.38671  0.00774  0.78400  1.0000
  N   N42       1.0  0.35927  0.19610  0.84369  1.0000
  H   H775      1.0  0.35978  0.21188  0.83228  1.0000
  H   H776      1.0  0.43305  0.23223  0.86711  1.0000
  H   H777      1.0  0.44448  0.10948  0.78855  1.0000
  C   C638      1.0  0.40613  0.22919  0.90271  1.0000
  C   C639      1.0  0.35987  0.19037  0.83489  1.0000
  H   H778      1.0  0.35851  0.01945  0.79882  1.0000
  C   C640      1.0  0.42540  0.19758  0.88095  1.0000
  H   H779      1.0  0.49418  0.22131  0.88682  1.0000
  C   C641      1.0  0.40209  0.22422  0.88755  1.0000
  H   H780      1.0  0.36737  0.22864  0.89547  1.0000
  H   H781      1.0  0.39807  0.08951  0.80269  1.0000
  C   C642      1.0  0.35157  0.18104  0.82574  1.0000
  H   H782      1.0  0.40939  0.21241  0.90052  1.0000
  C   C643      1.0  0.43401  0.20518  0.89699  1.0000
  H   H783      1.0  0.34445  0.17829  0.82516  1.0000
  H   H784      1.0  0.37917  0.17921  0.81405  1.0000
  H   H785      1.0  0.36324  0.21091  0.84527  1.0000
  H   H786      1.0  0.37315  0.20418  0.83517  1.0000
  H   H787      1.0  0.36544  0.19225  0.85863  1.0000
  C   C644      1.0  0.36405  0.20619  0.83886  1.0000
  H   H788      1.0  0.45207  0.18700  0.88457  1.0000
  C   C645      1.0  0.42891  0.20238  0.91697  1.0000
  C   C646      1.0  0.37021  0.18743  0.82749  1.0000
  Fe  Fe95      1.0  0.36936  0.13525  0.78771  1.0000
  H   H789      1.0  0.37783  0.18915  0.82818  1.0000
  C   C647      1.0  0.44533  0.19171  0.88002  1.0000
  C   C648      1.0  0.43235  0.20900  0.90666  1.0000
  C   C649      1.0  0.37317  0.22182  0.91512  1.0000
  H   H790      1.0  0.37347  0.22634  0.86919  1.0000
  C   C650      1.0  0.37111  0.18162  0.81941  1.0000
  H   H791      1.0  0.37482  0.18597  0.84779  1.0000
  H   H792      1.0  0.36262  0.18065  0.85540  1.0000
  Fe  Fe96      1.0  0.39329  0.13057  0.78978  1.0000
  N   N43       1.0  0.36369  0.21930  0.91229  1.0000
  C   C651      1.0  0.42014  0.09902  0.78457  1.0000
  H   H793      1.0  0.32901  0.06391  0.78291  1.0000
  H   H794      1.0  0.43965  0.17313  0.89369  1.0000
  C   C652      1.0  0.36698  0.20804  0.90987  1.0000
  C   C653      1.0  0.36659  0.20603  0.89964  1.0000
  C   C654      1.0  0.37055  0.19863  0.91798  1.0000
  C   C655      1.0  0.36973  0.19526  0.89768  1.0000
  C   C656      1.0  0.37369  0.18790  0.91592  1.0000
  C   C657      1.0  0.37338  0.18623  0.90575  1.0000
  S   S185      1.0  0.36059  0.23189  0.93997  1.0000
  C   C658      1.0  0.34770  0.19969  0.84996  1.0000
  C   C659      1.0  0.48618  0.21637  0.90389  1.0000
  C   C660      1.0  0.36038  0.22830  0.90290  1.0000
  S   S186      1.0  0.37953  0.14579  0.79070  1.0000
  H   H795      1.0  0.40828  0.07160  0.79717  1.0000
  H   H796      1.0  0.41668  0.09182  0.78913  1.0000
  C   C661      1.0  0.36582  0.18842  0.85171  1.0000
  H   H797      1.0  0.44456  0.22773  0.83155  1.0000
  H   H798      1.0  0.36389  0.21260  0.89300  1.0000
  H   H799      1.0  0.37111  0.19950  0.92594  1.0000
  H   H800      1.0  0.36939  0.19394  0.88981  1.0000
  H   H801      1.0  0.37674  0.18088  0.92211  1.0000
  H   H802      1.0  0.37615  0.17794  0.90405  1.0000
  N   N44       1.0  0.38064  0.10858  0.83961  1.0000
  C   C662      1.0  0.37084  0.11090  0.83452  1.0000
  C   C663      1.0  0.37779  0.10246  0.85124  1.0000
  C   C664      1.0  0.38257  0.11947  0.83983  1.0000
  C   C665      1.0  0.39043  0.10169  0.83344  1.0000
  C   C666      1.0  0.40086  0.10496  0.82872  1.0000
  C   C667      1.0  0.38972  0.09129  0.83204  1.0000
  C   C668      1.0  0.40979  0.09839  0.82264  1.0000
  C   C669      1.0  0.39874  0.08472  0.82608  1.0000
  C   C670      1.0  0.40872  0.08831  0.82129  1.0000
  H   H803      1.0  0.36796  0.10327  0.83507  1.0000
  H   H804      1.0  0.36352  0.11668  0.83845  1.0000
  H   H805      1.0  0.37289  0.11480  0.82558  1.0000
  H   H806      1.0  0.37532  0.09459  0.85182  1.0000
  H   H807      1.0  0.37065  0.10749  0.85624  1.0000
  H   H808      1.0  0.38507  0.10025  0.85526  1.0000
  H   H809      1.0  0.38472  0.12454  0.83131  1.0000
  H   H810      1.0  0.37495  0.12467  0.84413  1.0000
  H   H811      1.0  0.38935  0.11845  0.84419  1.0000
  H   H812      1.0  0.40225  0.11272  0.82930  1.0000
  H   H813      1.0  0.38206  0.08826  0.83526  1.0000
  H   H814      1.0  0.41753  0.10121  0.81878  1.0000
  H   H815      1.0  0.39784  0.07697  0.82485  1.0000
  H   H816      1.0  0.41556  0.08334  0.81639  1.0000
  C   C671      1.0  0.42731  0.19186  0.91768  1.0000
  C   C672      1.0  0.34166  0.23807  0.87834  1.0000
  H   H817      1.0  0.42575  0.20652  0.87877  1.0000
  H   H818      1.0  0.43489  0.17616  0.88103  1.0000
  C   C673      1.0  0.35052  0.18700  0.83376  1.0000
  C   C674      1.0  0.34546  0.22754  0.87579  1.0000
  H   H819      1.0  0.40965  0.22637  0.91003  1.0000
  S   S187      1.0  0.35125  0.05632  0.78651  1.0000
  H   H820      1.0  0.34946  0.00498  0.80150  1.0000
  C   C675      1.0  0.42280  0.23372  0.93319  1.0000
  C   C676      1.0  0.41443  0.10959  0.78639  1.0000
  H   H821      1.0  0.48013  0.21297  0.90203  1.0000
  H   H822      1.0  0.35624  0.21417  0.92967  1.0000
  H   H823      1.0  0.35673  0.08305  0.78956  1.0000
  C   C677      1.0  0.48584  0.21629  0.91482  1.0000
  C   C678      1.0  0.49412  0.22101  0.89536  1.0000
  C   C679      1.0  0.35642  0.02337  0.79055  1.0000
  H   H824      1.0  0.35208  0.11785  0.78818  1.0000
  S   S188      1.0  0.47109  0.22559  0.88167  1.0000
  H   H825      1.0  0.37124  0.23049  0.91634  1.0000
  H   H826      1.0  0.47941  0.21293  0.92136  1.0000
  C   C680      1.0  0.35523  0.10020  0.78958  1.0000
  C   C681      1.0  0.44373  0.22526  0.92086  1.0000
  H   H827      1.0  0.49283  0.22061  0.92591  1.0000
  H   H828      1.0  0.41599  0.23057  0.86231  1.0000
  C   C682      1.0  0.45339  0.10716  0.78518  1.0000
  C   C683      1.0  0.43874  0.23655  0.91811  1.0000
  Fe  Fe97      1.0  0.45775  0.23098  0.89572  1.0000
  S   S189      1.0  0.44385  0.23552  0.88665  1.0000
  H   H829      1.0  0.42545  0.23236  0.82927  1.0000
  H   H830      1.0  0.33539  0.03458  0.79560  1.0000
  C   C684      1.0  0.35269  0.09163  0.78662  1.0000
  H   H831      1.0  0.47488  0.07373  0.78970  1.0000
  C   C685      1.0  0.47142  0.07383  0.78259  1.0000
  H   H832      1.0  0.40258  0.23815  0.84874  1.0000
  H   H833      1.0  0.35803  0.23667  0.90498  1.0000
  H   H834      1.0  0.39507  0.23787  0.87563  1.0000
  C   C686      1.0  0.35002  0.11118  0.78590  1.0000
  C   C687      1.0  0.43901  0.23527  0.83375  1.0000
  H   H835      1.0  0.45677  0.12226  0.78651  1.0000
  C   C688      1.0  0.39043  0.23790  0.98071  1.0000
  H   H836      1.0  0.31837  0.10233  0.78267  1.0000
  H   H837      1.0  0.45210  0.09186  0.78261  1.0000
  Fe  Fe98      1.0  0.28651  0.38354  0.07780  1.0000
  S   S190      1.0  0.30413  0.38178  0.07905  1.0000
  S   S191      1.0  0.27978  0.39649  0.06413  1.0000
  Fe  Fe99      1.0  0.28109  0.36757  0.09972  1.0000
  S   S192      1.0  0.29823  0.36455  0.10310  1.0000
  S   S193      1.0  0.26850  0.35770  0.11071  1.0000
  Fe  Fe100     1.0  0.29642  0.38302  0.09666  1.0000
  S   S194      1.0  0.30196  0.39424  0.10380  1.0000
  Fe  Fe101     1.0  0.30443  0.36352  0.08521  1.0000
  S   S195      1.0  0.31831  0.35038  0.07806  1.0000
  S   S196      1.0  0.27870  0.38610  0.09502  1.0000
  S   S197      1.0  0.28735  0.36520  0.08229  1.0000
  Fe  Fe102     1.0  0.19835  0.41276  0.11986  1.0000
  S   S198      1.0  0.18609  0.40527  0.11629  1.0000
  S   S199      1.0  0.19747  0.43106  0.11468  1.0000
  Fe  Fe103     1.0  0.21091  0.39074  0.13081  1.0000
  S   S200      1.0  0.19970  0.38126  0.12828  1.0000
  S   S201      1.0  0.22468  0.38165  0.13985  1.0000
  Fe  Fe104     1.0  0.20120  0.39231  0.11131  1.0000
  S   S202      1.0  0.20571  0.38512  0.09621  1.0000
  Fe  Fe105     1.0  0.18569  0.39509  0.13363  1.0000
  S   S203      1.0  0.16929  0.39175  0.14480  1.0000
  S   S204      1.0  0.21358  0.40068  0.11341  1.0000
  S   S205      1.0  0.19682  0.40368  0.13758  1.0000
  Fe  Fe106     1.0  0.35898  0.29774  0.10080  1.0000
  S   S206      1.0  0.35372  0.28277  0.09977  1.0000
  S   S207      1.0  0.34716  0.31189  0.10818  1.0000
  Fe  Fe107     1.0  0.38355  0.28833  0.09226  1.0000
  S   S208      1.0  0.38056  0.27249  0.09049  1.0000
  S   S209      1.0  0.40053  0.29253  0.08652  1.0000
  Fe  Fe108     1.0  0.36605  0.28350  0.08347  1.0000
  S   S210      1.0  0.36135  0.28199  0.06841  1.0000
  Fe  Fe109     1.0  0.36860  0.27296  0.10692  1.0000
  S   S211      1.0  0.36650  0.25756  0.12007  1.0000
  S   S212      1.0  0.36998  0.29946  0.08377  1.0000
  S   S213      1.0  0.37295  0.28782  0.10939  1.0000
  H   H838      1.0  0.46782  0.29247  0.09667  1.0000
  C   C689      1.0  0.14963  0.43683  0.16928  1.0000
  S   S214      1.0  0.39604  0.25420  0.03499  1.0000
  H   H839      1.0  0.26229  0.41214  0.08412  1.0000
  S   S215      1.0  0.46078  0.26252  0.08488  1.0000
  H   H840      1.0  0.29023  0.31799  0.11432  1.0000
  H   H841      1.0  0.17971  0.42739  0.03447  1.0000
  Fe  Fe110     1.0  0.45234  0.25348  0.10127  1.0000
  S   S216      1.0  0.43709  0.26107  0.11272  1.0000
  Fe  Fe111     1.0  0.47684  0.25182  0.08943  1.0000
  C   C690      1.0  0.48194  0.28587  0.08494  1.0000
  Fe  Fe112     1.0  0.22844  0.41634  0.01582  1.0000
  S   S217      1.0  0.24567  0.41157  0.01940  1.0000
  S   S218      1.0  0.22528  0.42052  0.99846  1.0000
  Fe  Fe113     1.0  0.21701  0.41675  0.03954  1.0000
  S   S219      1.0  0.23290  0.41184  0.04552  1.0000
  S   S220      1.0  0.20086  0.42051  0.05171  1.0000
  Fe  Fe114     1.0  0.23922  0.42389  0.03042  1.0000
  S   S221      1.0  0.25117  0.43289  0.03257  1.0000
  Fe  Fe115     1.0  0.23847  0.39979  0.03435  1.0000
  S   S222      1.0  0.24900  0.38338  0.04090  1.0000
  S   S223      1.0  0.22269  0.43007  0.02531  1.0000
  S   S224      1.0  0.22175  0.40331  0.02991  1.0000
  Fe  Fe116     1.0  0.24870  0.46181  0.07860  1.0000
  S   S225      1.0  0.26323  0.46990  0.07555  1.0000
  S   S226      1.0  0.23775  0.46423  0.06657  1.0000
  Fe  Fe117     1.0  0.25015  0.45106  0.10247  1.0000
  S   S227      1.0  0.26474  0.45809  0.10170  1.0000
  S   S228      1.0  0.24351  0.43873  0.11731  1.0000
  H   H842      1.0  0.26793  0.40882  0.10947  1.0000
  Fe  Fe118     1.0  0.27111  0.45338  0.08513  1.0000
  S   S229      1.0  0.28912  0.44490  0.08021  1.0000
  S   S230      1.0  0.24044  0.46729  0.09459  1.0000
  S   S231      1.0  0.25727  0.44502  0.08669  1.0000
  H   H843      1.0  0.23894  0.41958  0.06351  1.0000
  C   C691      1.0  0.21982  0.41175  0.99376  1.0000
  C   C692      1.0  0.21790  0.40145  0.00026  1.0000
  C   C693      1.0  0.21397  0.39455  0.99599  1.0000
  C   C694      1.0  0.26255  0.37617  0.13782  1.0000
  N   N45       1.0  0.39655  0.24765  0.00368  1.0000
  H   H844      1.0  0.18369  0.40363  0.03447  1.0000
  H   H845      1.0  0.21961  0.39871  0.00848  1.0000
  H   H846      1.0  0.21253  0.38657  0.00102  1.0000
  C   C695      1.0  0.37912  0.24791  0.12107  1.0000
  C   C696      1.0  0.24630  0.44046  0.04312  1.0000
  C   C697      1.0  0.25257  0.43844  0.05116  1.0000
  C   C698      1.0  0.24988  0.44550  0.05861  1.0000
  C   C699      1.0  0.24094  0.45471  0.05794  1.0000
  C   C700      1.0  0.23434  0.45643  0.05022  1.0000
  C   C701      1.0  0.23699  0.44930  0.04284  1.0000
  H   H847      1.0  0.25971  0.43156  0.05139  1.0000
  H   H848      1.0  0.25494  0.44402  0.06459  1.0000
  H   H849      1.0  0.22736  0.46350  0.04973  1.0000
  H   H850      1.0  0.23217  0.45098  0.03659  1.0000
  C   C702      1.0  0.14259  0.42465  0.16279  1.0000
  H   H851      1.0  0.17922  0.40136  0.15688  1.0000
  C   C703      1.0  0.25571  0.39565  0.13852  1.0000
  H   H852      1.0  0.19236  0.40977  0.03876  1.0000
  C   C704      1.0  0.44831  0.24049  0.06189  1.0000
  C   C705      1.0  0.37075  0.27337  0.05976  1.0000
  C   C706      1.0  0.37950  0.26491  0.06334  1.0000
  C   C707      1.0  0.38698  0.25848  0.05596  1.0000
  C   C708      1.0  0.38593  0.26080  0.04492  1.0000
  C   C709      1.0  0.37715  0.26917  0.04144  1.0000
  C   C710      1.0  0.36948  0.27528  0.04888  1.0000
  H   H853      1.0  0.38052  0.26339  0.07172  1.0000
  H   H854      1.0  0.17761  0.43357  0.02072  1.0000
  H   H855      1.0  0.37631  0.27101  0.03294  1.0000
  H   H856      1.0  0.36273  0.28176  0.04609  1.0000
  C   C711      1.0  0.41056  0.28361  0.09383  1.0000
  C   C712      1.0  0.42190  0.28375  0.08949  1.0000
  C   C713      1.0  0.43006  0.27664  0.09514  1.0000
  C   C714      1.0  0.42690  0.26959  0.10534  1.0000
  C   C715      1.0  0.41553  0.26950  0.10971  1.0000
  C   C716      1.0  0.40739  0.27638  0.10388  1.0000
  H   H857      1.0  0.42440  0.28936  0.08173  1.0000
  H   H858      1.0  0.43878  0.27687  0.09177  1.0000
  H   H859      1.0  0.41298  0.26408  0.11754  1.0000
  H   H860      1.0  0.39864  0.27624  0.10729  1.0000
  C   C717      1.0  0.39610  0.25970  0.00201  1.0000
  C   C718      1.0  0.38934  0.25114  0.11646  1.0000
  H   H861      1.0  0.38951  0.25979  0.11281  1.0000
  C   C719      1.0  0.16436  0.39605  0.15753  1.0000
  H   H862      1.0  0.25212  0.34944  0.12882  1.0000
  C   C720      1.0  0.18878  0.36277  0.15571  1.0000
  H   H863      1.0  0.21254  0.42453  0.09493  1.0000
  H   H864      1.0  0.25749  0.41146  0.06697  1.0000
  H   H865      1.0  0.14846  0.39153  0.16070  1.0000
  C   C721      1.0  0.23060  0.43678  0.11669  1.0000
  C   C722      1.0  0.22736  0.42675  0.12230  1.0000
  C   C723      1.0  0.21715  0.42500  0.12171  1.0000
  C   C724      1.0  0.21006  0.43337  0.11569  1.0000
  C   C725      1.0  0.21321  0.44345  0.11022  1.0000
  C   C726      1.0  0.22354  0.44510  0.11060  1.0000
  H   H866      1.0  0.23275  0.42029  0.12704  1.0000
  H   H867      1.0  0.21475  0.41720  0.12601  1.0000
  H   H868      1.0  0.20774  0.44996  0.10558  1.0000
  H   H869      1.0  0.22593  0.45289  0.10634  1.0000
  C   C727      1.0  0.20377  0.39490  0.08394  1.0000
  C   C728      1.0  0.19701  0.40552  0.08420  1.0000
  C   C729      1.0  0.19583  0.41330  0.07426  1.0000
  C   C730      1.0  0.20170  0.41057  0.06409  1.0000
  C   C731      1.0  0.20854  0.39999  0.06385  1.0000
  C   C732      1.0  0.20937  0.39210  0.07375  1.0000
  H   H870      1.0  0.19259  0.40771  0.09203  1.0000
  H   H871      1.0  0.19053  0.42149  0.07445  1.0000
  H   H872      1.0  0.21307  0.39782  0.05602  1.0000
  H   H873      1.0  0.21451  0.38385  0.07352  1.0000
  C   C733      1.0  0.32654  0.33997  0.08648  1.0000
  C   C734      1.0  0.32559  0.34014  0.09754  1.0000
  C   C735      1.0  0.33200  0.33150  0.10411  1.0000
  C   C736      1.0  0.33952  0.32275  0.09961  1.0000
  C   C737      1.0  0.34072  0.32274  0.08848  1.0000
  C   C738      1.0  0.33417  0.33129  0.08195  1.0000
  H   H874      1.0  0.31993  0.34692  0.10104  1.0000
  H   H875      1.0  0.33114  0.33158  0.11270  1.0000
  H   H876      1.0  0.34651  0.31605  0.08494  1.0000
  H   H877      1.0  0.33499  0.33115  0.07339  1.0000
  C   C739      1.0  0.27242  0.39224  0.05686  1.0000
  C   C740      1.0  0.26695  0.40029  0.04916  1.0000
  C   C741      1.0  0.26019  0.39741  0.04394  1.0000
  C   C742      1.0  0.25876  0.38648  0.04638  1.0000
  C   C743      1.0  0.26467  0.37828  0.05368  1.0000
  C   C744      1.0  0.27147  0.38117  0.05896  1.0000
  H   H878      1.0  0.26773  0.40885  0.04734  1.0000
  H   H879      1.0  0.25607  0.40373  0.03801  1.0000
  H   H880      1.0  0.26382  0.36976  0.05543  1.0000
  H   H881      1.0  0.27582  0.37486  0.06473  1.0000
  C   C745      1.0  0.29241  0.43089  0.08708  1.0000
  C   C746      1.0  0.28501  0.42386  0.08917  1.0000
  C   C747      1.0  0.28824  0.41247  0.09366  1.0000
  C   C748      1.0  0.29847  0.40823  0.09695  1.0000
  C   C749      1.0  0.30569  0.41533  0.09527  1.0000
  C   C750      1.0  0.30281  0.42657  0.09004  1.0000
  H   H882      1.0  0.27691  0.42713  0.08710  1.0000
  H   H883      1.0  0.28272  0.40702  0.09478  1.0000
  H   H884      1.0  0.31361  0.41211  0.09782  1.0000
  H   H885      1.0  0.30857  0.43196  0.08846  1.0000
  C   C751      1.0  0.25629  0.36473  0.11848  1.0000
  C   C752      1.0  0.25302  0.37637  0.11624  1.0000
  C   C753      1.0  0.24305  0.38164  0.12250  1.0000
  C   C754      1.0  0.23655  0.37527  0.13121  1.0000
  C   C755      1.0  0.23990  0.36368  0.13350  1.0000
  C   C756      1.0  0.24964  0.35843  0.12704  1.0000
  H   H886      1.0  0.25818  0.38131  0.10980  1.0000
  H   H887      1.0  0.24059  0.39062  0.12085  1.0000
  H   H888      1.0  0.23496  0.35874  0.14027  1.0000
  H   H889      1.0  0.29694  0.34003  0.08276  1.0000
  C   C757      1.0  0.18634  0.40214  0.00195  1.0000
  H   H890      1.0  0.19680  0.35094  0.17401  1.0000
  C   C758      1.0  0.17099  0.40043  0.16157  1.0000
  C   C759      1.0  0.31142  0.31898  0.08438  1.0000
  H   H891      1.0  0.28403  0.40716  0.11777  1.0000
  H   H892      1.0  0.24280  0.38259  0.00305  1.0000
  H   H893      1.0  0.26466  0.42287  0.11132  1.0000
  C   C760      1.0  0.26522  0.39854  0.13044  1.0000
  C   C761      1.0  0.16932  0.42453  0.13444  1.0000
  H   H894      1.0  0.40729  0.24562  0.11286  1.0000
  H   H895      1.0  0.30944  0.31395  0.11232  1.0000
  H   H896      1.0  0.18042  0.42079  0.15106  1.0000
  C   C762      1.0  0.21851  0.42958  0.06685  1.0000
  H   H897      1.0  0.17145  0.42198  0.02865  1.0000
  C   C763      1.0  0.32655  0.30420  0.09026  1.0000
  H   H898      1.0  0.37540  0.24919  0.08868  1.0000
  H   H899      1.0  0.41079  0.25018  0.09145  1.0000
  H   H900      1.0  0.18522  0.40884  0.98494  1.0000
  N   N46       1.0  0.28801  0.42843  0.05266  1.0000
  C   C764      1.0  0.28073  0.42451  0.06341  1.0000
  C   C765      1.0  0.29165  0.41931  0.04650  1.0000
  C   C766      1.0  0.29817  0.43031  0.05479  1.0000
  C   C767      1.0  0.28180  0.43893  0.04675  1.0000
  C   C768      1.0  0.27847  0.43976  0.03678  1.0000
  C   C769      1.0  0.27832  0.44859  0.05130  1.0000
  C   C770      1.0  0.27192  0.44960  0.03187  1.0000
  C   C771      1.0  0.27178  0.45838  0.04631  1.0000
  C   C772      1.0  0.26852  0.45886  0.03666  1.0000
  H   H901      1.0  0.28520  0.41684  0.06836  1.0000
  H   H902      1.0  0.27766  0.43090  0.06852  1.0000
  H   H903      1.0  0.27325  0.42249  0.06217  1.0000
  H   H904      1.0  0.28438  0.41684  0.04531  1.0000
  H   H905      1.0  0.29639  0.41158  0.05113  1.0000
  H   H906      1.0  0.29715  0.42169  0.03827  1.0000
  H   H907      1.0  0.29615  0.43601  0.06056  1.0000
  H   H908      1.0  0.30328  0.42244  0.05879  1.0000
  H   H909      1.0  0.30354  0.43396  0.04697  1.0000
  H   H910      1.0  0.28038  0.43282  0.03284  1.0000
  H   H911      1.0  0.28032  0.44857  0.05898  1.0000
  H   H912      1.0  0.26900  0.44986  0.02460  1.0000
  H   H913      1.0  0.26889  0.46551  0.05017  1.0000
  H   H914      1.0  0.26309  0.46631  0.03305  1.0000
  C   C773      1.0  0.17076  0.36857  0.17348  1.0000
  H   H915      1.0  0.23658  0.37901  0.98792  1.0000
  H   H916      1.0  0.17652  0.42501  0.12722  1.0000
  H   H917      1.0  0.15141  0.42014  0.14763  1.0000
  H   H918      1.0  0.20753  0.35571  0.16264  1.0000
  C   C774      1.0  0.16738  0.44357  0.13486  1.0000
  C   C775      1.0  0.21215  0.39781  0.98514  1.0000
  C   C776      1.0  0.39745  0.24490  0.99294  1.0000
  C   C777      1.0  0.25145  0.40338  0.98214  1.0000
  C   C778      1.0  0.14965  0.39799  0.17411  1.0000
  N   N47       1.0  0.18919  0.41762  0.02238  1.0000
  C   C779      1.0  0.19895  0.42284  0.01966  1.0000
  C   C780      1.0  0.32221  0.30543  0.10115  1.0000
  H   H919      1.0  0.30158  0.33215  0.11135  1.0000
  C   C781      1.0  0.18784  0.41507  0.01229  1.0000
  C   C782      1.0  0.18683  0.42361  0.00263  1.0000
  C   C783      1.0  0.18745  0.40424  0.01169  1.0000
  H   H920      1.0  0.37862  0.24997  0.00943  1.0000
  C   C784      1.0  0.21750  0.41520  0.98314  1.0000
  H   H921      1.0  0.40592  0.24282  0.01656  1.0000
  H   H922      1.0  0.19790  0.43105  0.01382  1.0000
  H   H923      1.0  0.27588  0.48698  0.09481  1.0000
  H   H924      1.0  0.20661  0.41745  0.01574  1.0000
  H   H925      1.0  0.16759  0.44969  0.13946  1.0000
  H   H926      1.0  0.16174  0.42671  0.13090  1.0000
  H   H927      1.0  0.28324  0.34107  0.09144  1.0000
  H   H928      1.0  0.19862  0.40140  0.02868  1.0000
  H   H929      1.0  0.29007  0.34219  0.10668  1.0000
  H   H930      1.0  0.30380  0.34138  0.09809  1.0000
  H   H931      1.0  0.18703  0.43205  0.00243  1.0000
  H   H932      1.0  0.27928  0.41982  0.12215  1.0000
  C   C785      1.0  0.26320  0.41432  0.11530  1.0000
  C   C786      1.0  0.15933  0.43152  0.15152  1.0000
  C   C787      1.0  0.40282  0.24693  0.14014  1.0000
  N   N48       1.0  0.37804  0.32665  0.09287  1.0000
  C   C788      1.0  0.37337  0.31816  0.10206  1.0000
  C   C789      1.0  0.38767  0.32070  0.08559  1.0000
  C   C790      1.0  0.38248  0.33356  0.09753  1.0000
  C   C791      1.0  0.36910  0.33372  0.08708  1.0000
  C   C792      1.0  0.36927  0.33392  0.07590  1.0000
  C   C793      1.0  0.35974  0.34059  0.09270  1.0000
  C   C794      1.0  0.36072  0.34080  0.07069  1.0000
  C   C795      1.0  0.35132  0.34752  0.08736  1.0000
  C   C796      1.0  0.35182  0.34765  0.07637  1.0000
  H   H933      1.0  0.36979  0.31297  0.09887  1.0000
  H   H934      1.0  0.37984  0.31245  0.10652  1.0000
  H   H935      1.0  0.36647  0.32189  0.10830  1.0000
  H   H936      1.0  0.38514  0.31470  0.08240  1.0000
  H   H937      1.0  0.39433  0.31559  0.09013  1.0000
  H   H938      1.0  0.39162  0.32658  0.07845  1.0000
  H   H939      1.0  0.38539  0.34052  0.09096  1.0000
  H   H940      1.0  0.37613  0.33723  0.10416  1.0000
  H   H941      1.0  0.38967  0.32858  0.10137  1.0000
  H   H942      1.0  0.37581  0.32873  0.07104  1.0000
  H   H943      1.0  0.35873  0.34050  0.10135  1.0000
  H   H944      1.0  0.36087  0.34071  0.06223  1.0000
  H   H945      1.0  0.34415  0.35257  0.09186  1.0000
  H   H946      1.0  0.34506  0.35279  0.07239  1.0000
  N   N49       1.0  0.41587  0.26921  0.06031  1.0000
  C   C797      1.0  0.41548  0.25740  0.06182  1.0000
  C   C798      1.0  0.42675  0.27117  0.05305  1.0000
  C   C799      1.0  0.41551  0.27111  0.07131  1.0000
  C   C800      1.0  0.40659  0.27648  0.05513  1.0000
  C   C801      1.0  0.39774  0.28399  0.06056  1.0000
  C   C802      1.0  0.40614  0.27604  0.04434  1.0000
  C   C803      1.0  0.38907  0.29065  0.05541  1.0000
  C   C804      1.0  0.39749  0.28281  0.03924  1.0000
  C   C805      1.0  0.38896  0.29009  0.04477  1.0000
  H   H947      1.0  0.41660  0.25501  0.05382  1.0000
  H   H948      1.0  0.42221  0.25167  0.06592  1.0000
  H   H949      1.0  0.40731  0.25571  0.06702  1.0000
  H   H950      1.0  0.42845  0.26860  0.04507  1.0000
  H   H951      1.0  0.43391  0.26638  0.05702  1.0000
  H   H952      1.0  0.42706  0.28012  0.05117  1.0000
  H   H953      1.0  0.40779  0.26934  0.07745  1.0000
  H   H954      1.0  0.42273  0.26569  0.07491  1.0000
  H   H955      1.0  0.41593  0.27985  0.07069  1.0000
  H   H956      1.0  0.39720  0.28480  0.06883  1.0000
  H   H957      1.0  0.41232  0.27024  0.03985  1.0000
  H   H958      1.0  0.38219  0.29604  0.05982  1.0000
  H   H959      1.0  0.39715  0.28206  0.03114  1.0000
  H   H960      1.0  0.38203  0.29502  0.04098  1.0000
  C   C806      1.0  0.17951  0.42902  0.14520  1.0000
  C   C807      1.0  0.27832  0.41102  0.12457  1.0000
  H   H961      1.0  0.25755  0.34476  0.08311  1.0000
  H   H962      1.0  0.14908  0.44118  0.17563  1.0000
  H   H963      1.0  0.28628  0.31588  0.10278  1.0000
  H   H964      1.0  0.26897  0.48766  0.12335  1.0000
  S   S232      1.0  0.46846  0.24413  0.10650  1.0000
  H   H965      1.0  0.48554  0.26003  0.10725  1.0000
  Fe  Fe119     1.0  0.45971  0.24809  0.07873  1.0000
  H   H966      1.0  0.41890  0.25022  0.13195  1.0000
  H   H967      1.0  0.16388  0.44272  0.15888  1.0000
  H   H968      1.0  0.15929  0.44625  0.13211  1.0000
  C   C808      1.0  0.27307  0.38976  0.12592  1.0000
  H   H969      1.0  0.24899  0.40178  0.14200  1.0000
  H   H970      1.0  0.13666  0.41947  0.16415  1.0000
  C   C809      1.0  0.24100  0.38565  0.98624  1.0000
  S   S233      1.0  0.49384  0.25637  0.08469  1.0000
  N   N50       1.0  0.16868  0.43208  0.14167  1.0000
  H   H971      1.0  0.18046  0.43517  0.14935  1.0000
  C   C810      1.0  0.32119  0.31098  0.08190  1.0000
  C   C811      1.0  0.49507  0.29317  0.09509  1.0000
  C   C812      1.0  0.19102  0.40764  0.03143  1.0000
  H   H972      1.0  0.18678  0.42857  0.13802  1.0000
  H   H973      1.0  0.18654  0.39375  0.00147  1.0000
  H   H974      1.0  0.24777  0.42118  0.09823  1.0000
  C   C813      1.0  0.29110  0.33501  0.08887  1.0000
  C   C814      1.0  0.28764  0.32228  0.10636  1.0000
  C   C815      1.0  0.20015  0.35841  0.16910  1.0000
  H   H975      1.0  0.28895  0.32965  0.08460  1.0000
  C   C816      1.0  0.18560  0.41066  0.99258  1.0000
  H   H976      1.0  0.27782  0.37222  0.12599  1.0000
  N   N51       1.0  0.22020  0.43002  0.07771  1.0000
  H   H977      1.0  0.23912  0.36612  0.05903  1.0000
  H   H978      1.0  0.22403  0.43416  0.05982  1.0000
  C   C817      1.0  0.25448  0.38461  0.14215  1.0000
  C   C818      1.0  0.16704  0.40346  0.17188  1.0000
  H   H979      1.0  0.39145  0.24910  0.09435  1.0000
  H   H980      1.0  0.21447  0.41495  0.08630  1.0000
  C   C819      1.0  0.24031  0.41993  0.07134  1.0000
  H   H981      1.0  0.33424  0.29819  0.08824  1.0000
  Fe  Fe120     1.0  0.25571  0.47403  0.09236  1.0000
  H   H982      1.0  0.24993  0.34763  0.06649  1.0000
  H   H983      1.0  0.26141  0.36768  0.14048  1.0000
  C   C820      1.0  0.24443  0.38769  0.99477  1.0000
  N   N52       1.0  0.26652  0.41021  0.12613  1.0000
  N   N53       1.0  0.19142  0.36709  0.16412  1.0000
  C   C821      1.0  0.18581  0.42138  0.99292  1.0000
  C   C822      1.0  0.49436  0.26012  0.10478  1.0000
  S   S234      1.0  0.45342  0.25145  0.06309  1.0000
  H   H984      1.0  0.24096  0.37093  0.10327  1.0000
  H   H985      1.0  0.27941  0.32804  0.10850  1.0000
  H   H986      1.0  0.25439  0.36003  0.09234  1.0000
  H   H987      1.0  0.18558  0.35501  0.15948  1.0000
  H   H988      1.0  0.26111  0.41464  0.14209  1.0000
  H   H989      1.0  0.28018  0.39131  0.11929  1.0000
  H   H990      1.0  0.41331  0.25001  0.98496  1.0000
  H   H991      1.0  0.23414  0.38516  0.10287  1.0000
  H   H992      1.0  0.32478  0.31018  0.07339  1.0000
  H   H993      1.0  0.23502  0.39894  0.08598  1.0000
  H   H994      1.0  0.18246  0.36907  0.15141  1.0000
  C   C823      1.0  0.23629  0.37837  0.09829  1.0000
  H   H995      1.0  0.22784  0.39153  0.08135  1.0000
  H   H996      1.0  0.22830  0.37637  0.09826  1.0000
  H   H997      1.0  0.25415  0.41467  0.11625  1.0000
  H   H998      1.0  0.17227  0.40671  0.17504  1.0000
  H   H999      1.0  0.18987  0.38364  0.15420  1.0000
  C   C824      1.0  0.14191  0.43034  0.17085  1.0000
  C   C825      1.0  0.49348  0.28429  0.08104  1.0000
  H   H1000     1.0  0.39380  0.25205  0.05865  1.0000
  H   H1001     1.0  0.41443  0.24335  0.00299  1.0000
  C   C826      1.0  0.25095  0.36168  0.08508  1.0000
  H   H1002     1.0  0.38610  0.24719  0.02014  1.0000
  C   C827      1.0  0.25277  0.35286  0.07989  1.0000
  C   C828      1.0  0.23632  0.39226  0.08145  1.0000
  H   H1003     1.0  0.18825  0.39717  0.01852  1.0000
  C   C829      1.0  0.44259  0.24207  0.05348  1.0000
  H   H1004     1.0  0.40385  0.26214  0.99654  1.0000
  H   H1005     1.0  0.22327  0.44658  0.07253  1.0000
  H   H1006     1.0  0.20872  0.44605  0.07674  1.0000
  C   C830      1.0  0.23179  0.42508  0.07927  1.0000
  N   N54       1.0  0.24273  0.38153  0.08683  1.0000
  C   C831      1.0  0.15640  0.40219  0.17820  1.0000
  C   C832      1.0  0.17904  0.42549  0.02673  1.0000
  C   C833      1.0  0.21715  0.44187  0.07851  1.0000
  C   C834      1.0  0.24475  0.37241  0.08103  1.0000
  H   H1007     1.0  0.24076  0.39518  0.07278  1.0000
  H   H1008     1.0  0.37552  0.24278  0.10306  1.0000
  N   N55       1.0  0.29605  0.32835  0.09850  1.0000
  H   H1009     1.0  0.20364  0.37505  0.15154  1.0000
  C   C835      1.0  0.47681  0.29128  0.09366  1.0000
  H   H1010     1.0  0.21690  0.44294  0.08688  1.0000
  H   H1011     1.0  0.20355  0.42732  0.08559  1.0000
  C   C836      1.0  0.21238  0.42394  0.08651  1.0000
  H   H1012     1.0  0.25230  0.39043  0.09149  1.0000
  C   C837      1.0  0.19615  0.37702  0.15818  1.0000
  H   H1013     1.0  0.20059  0.42431  0.02718  1.0000
  C   C838      1.0  0.15814  0.43754  0.15972  1.0000
  C   C839      1.0  0.29797  0.33630  0.10393  1.0000
  C   C840      1.0  0.15364  0.39491  0.16379  1.0000
  C   C841      1.0  0.25355  0.38351  0.08729  1.0000
  C   C842      1.0  0.30664  0.32031  0.09546  1.0000
  C   C843      1.0  0.15118  0.42512  0.15329  1.0000
  H   H1014     1.0  0.20975  0.43344  0.06586  1.0000
  H   H1015     1.0  0.24702  0.38262  0.14811  1.0000
  H   H1016     1.0  0.17425  0.44424  0.12729  1.0000
  H   H1017     1.0  0.30790  0.32410  0.07744  1.0000
  C   C844      1.0  0.24844  0.35443  0.07058  1.0000
  C   C845      1.0  0.27178  0.37876  0.12966  1.0000
  H   H1018     1.0  0.17042  0.41569  0.13902  1.0000
  H   H1019     1.0  0.28154  0.40696  0.13226  1.0000
  C   C846      1.0  0.23481  0.42522  0.08909  1.0000
  H   H1020     1.0  0.22004  0.42087  0.06590  1.0000
  H   H1021     1.0  0.22880  0.42901  0.09549  1.0000
  C   C847      1.0  0.24047  0.37372  0.07150  1.0000
  H   H1022     1.0  0.25864  0.37610  0.09188  1.0000
  C   C848      1.0  0.25951  0.41776  0.13357  1.0000
  H   H1023     1.0  0.39509  0.26209  0.01001  1.0000
  C   C849      1.0  0.39937  0.24312  0.11645  1.0000
  H   H1024     1.0  0.23585  0.38158  0.06763  1.0000
  H   H1025     1.0  0.19630  0.36078  0.14910  1.0000
  C   C850      1.0  0.25112  0.41523  0.07320  1.0000
  C   C851      1.0  0.24567  0.42063  0.09079  1.0000
  H   H1026     1.0  0.25042  0.41897  0.13398  1.0000
  C   C852      1.0  0.31240  0.31331  0.10375  1.0000
  H   H1027     1.0  0.32666  0.30040  0.10756  1.0000
  C   C853      1.0  0.24228  0.36482  0.06644  1.0000
  H   H1028     1.0  0.25867  0.38576  0.07881  1.0000
  S   S235      1.0  0.45035  0.23964  0.09487  1.0000
  H   H1029     1.0  0.26115  0.42633  0.13048  1.0000
  C   C854      1.0  0.25382  0.41562  0.08286  1.0000
  H   H1030     1.0  0.43074  0.24093  0.11856  1.0000
  H   H1031     1.0  0.47702  0.28272  0.08128  1.0000
  H   H1032     1.0  0.49500  0.26374  0.12001  1.0000
  H   H1033     1.0  0.19068  0.37589  0.18168  1.0000
  H   H1034     1.0  0.44172  0.24988  0.04750  1.0000
  H   H1035     1.0  0.49021  0.31287  0.10110  1.0000
  H   H1036     1.0  0.25182  0.39840  0.99951  1.0000
  H   H1037     1.0  0.19892  0.38061  0.16366  1.0000
  C   C855      1.0  0.18275  0.37444  0.18154  1.0000
  H   H1038     1.0  0.20340  0.36141  0.17470  1.0000
  C   C856      1.0  0.48323  0.29500  0.09861  1.0000
  H   H1039     1.0  0.38894  0.26481  0.99819  1.0000
  H   H1040     1.0  0.49744  0.27985  0.07440  1.0000
  H   H1041     1.0  0.43640  0.24453  0.13451  1.0000
  C   C857      1.0  0.37478  0.24143  0.09513  1.0000
  H   H1042     1.0  0.13552  0.42954  0.17842  1.0000
  H   H1043     1.0  0.38751  0.24140  0.14827  1.0000
  C   C858      1.0  0.24955  0.39659  0.99274  1.0000
  H   H1044     1.0  0.18544  0.42793  0.98552  1.0000
  C   C859      1.0  0.40676  0.24666  0.98407  1.0000
  C   C860      1.0  0.18160  0.37004  0.17297  1.0000
  C   C861      1.0  0.40648  0.24124  0.00831  1.0000
  H   H1045     1.0  0.36610  0.24024  0.09655  1.0000
  C   C862      1.0  0.39654  0.23894  0.14585  1.0000
  H   H1046     1.0  0.14144  0.39696  0.17897  1.0000
  H   H1047     1.0  0.16892  0.36561  0.16721  1.0000
  C   C863      1.0  0.38927  0.24045  0.99093  1.0000
  C   C864      1.0  0.38647  0.24510  0.01215  1.0000
  H   H1048     1.0  0.39864  0.25561  0.13818  1.0000
  C   C865      1.0  0.41441  0.24375  0.13655  1.0000
  H   H1049     1.0  0.49023  0.29724  0.11664  1.0000
  H   H1050     1.0  0.47886  0.29919  0.10530  1.0000
  C   C866      1.0  0.39775  0.24243  0.09133  1.0000
  C   C867      1.0  0.40890  0.24317  0.08966  1.0000
  Fe  Fe121     1.0  0.08551  0.36312  0.28658  1.0000
  S   S236      1.0  0.09513  0.36033  0.29964  1.0000
  S   S237      1.0  0.09307  0.36188  0.26885  1.0000
  Fe  Fe122     1.0  0.06312  0.36764  0.30244  1.0000
  S   S238      1.0  0.07080  0.36529  0.31694  1.0000
  S   S239      1.0  0.04458  0.37240  0.30359  1.0000
  Fe  Fe123     1.0  0.08264  0.37531  0.30458  1.0000
  S   S240      1.0  0.08823  0.38873  0.30856  1.0000
  Fe  Fe124     1.0  0.08243  0.35054  0.31067  1.0000
  S   S241      1.0  0.08867  0.33311  0.31994  1.0000
  S   S242      1.0  0.07397  0.37885  0.29064  1.0000
  S   S243      1.0  0.07376  0.35218  0.29704  1.0000
  Fe  Fe125     1.0  0.11190  0.39909  0.20843  1.0000
  S   S244      1.0  0.10552  0.40837  0.22211  1.0000
  S   S245      1.0  0.10140  0.38972  0.20443  1.0000
  Fe  Fe126     1.0  0.13456  0.40550  0.20156  1.0000
  S   S246      1.0  0.12998  0.41533  0.21480  1.0000
  H   H1051     1.0  0.02622  0.40735  0.31241  1.0000
  Fe  Fe127     1.0  0.12256  0.40115  0.22582  1.0000
  S   S247      1.0  0.12416  0.39568  0.24355  1.0000
  Fe  Fe128     1.0  0.11352  0.42166  0.20983  1.0000
  S   S248      1.0  0.10428  0.43943  0.20840  1.0000
  S   S249      1.0  0.12850  0.39060  0.21311  1.0000
  S   S250      1.0  0.11851  0.41307  0.19564  1.0000
  H   H1052     1.0  0.09927  0.30890  0.37451  1.0000
  S   S251      1.0  0.08694  0.28145  0.36584  1.0000
  H   H1053     1.0  0.15602  0.37818  0.19668  1.0000
  C   C868      1.0  0.07908  0.39070  0.24785  1.0000
  S   S252      1.0  0.07106  0.25975  0.36421  1.0000
  C   C869      1.0  0.08369  0.39473  0.26303  1.0000
  C   C870      1.0  0.11978  0.30213  0.36297  1.0000
  N   N56       1.0  0.10921  0.30437  0.35918  1.0000
  H   H1054     1.0  0.07905  0.42025  0.21596  1.0000
  Fe  Fe129     1.0  0.03135  0.38511  0.24926  1.0000
  S   S253      1.0  0.02547  0.39114  0.23325  1.0000
  S   S254      1.0  0.03372  0.36796  0.26003  1.0000
  Fe  Fe130     1.0  0.03142  0.40804  0.25127  1.0000
  S   S255      1.0  0.02508  0.41657  0.23566  1.0000
  S   S256      1.0  0.03688  0.41359  0.26379  1.0000
  Fe  Fe131     1.0  0.01341  0.40458  0.24126  1.0000
  Fe  Fe132     1.0  0.03752  0.40254  0.22871  1.0000
  S   S257      1.0  0.04868  0.40548  0.21178  1.0000
  S   S258      1.0  0.01848  0.39768  0.25760  1.0000
  S   S259      1.0  0.04467  0.39498  0.24378  1.0000
  Fe  Fe133     1.0  0.07137  0.45170  0.28151  1.0000
  S   S260      1.0  0.07703  0.44585  0.26557  1.0000
  S   S261      1.0  0.06833  0.44048  0.29842  1.0000
  Fe  Fe134     1.0  0.06992  0.47622  0.27032  1.0000
  S   S262      1.0  0.07501  0.47239  0.25340  1.0000
  Fe  Fe135     1.0  0.06368  0.46031  0.25998  1.0000
  S   S263      1.0  0.05260  0.45919  0.24947  1.0000
  Fe  Fe136     1.0  0.08777  0.45841  0.26040  1.0000
  S   S264      1.0  0.10537  0.45484  0.25068  1.0000
  S   S265      1.0  0.05719  0.46543  0.27633  1.0000
  S   S266      1.0  0.08359  0.46295  0.27693  1.0000
  C   C871      1.0  0.07435  0.40984  0.24974  1.0000
  C   C872      1.0  0.04124  0.42627  0.25952  1.0000
  C   C873      1.0  0.04839  0.42811  0.26509  1.0000
  C   C874      1.0  0.05169  0.43828  0.26219  1.0000
  C   C875      1.0  0.04801  0.44663  0.25357  1.0000
  C   C876      1.0  0.04082  0.44482  0.24800  1.0000
  C   C877      1.0  0.03747  0.43461  0.25092  1.0000
  H   H1055     1.0  0.05131  0.42172  0.27176  1.0000
  H   H1056     1.0  0.05703  0.43966  0.26669  1.0000
  H   H1057     1.0  0.03775  0.45137  0.24151  1.0000
  H   H1058     1.0  0.03186  0.43327  0.24666  1.0000
  H   H1059     1.0  0.06525  0.38768  0.26843  1.0000
  H   H1060     1.0  0.09177  0.48688  0.26718  1.0000
  C   C878      1.0  0.05218  0.25285  0.36560  1.0000
  H   H1061     1.0  0.05440  0.25450  0.35664  1.0000
  S   S267      1.0  0.11239  0.27183  0.38015  1.0000
  C   C879      1.0  0.17362  0.37727  0.19000  1.0000
  C   C880      1.0  0.06453  0.39622  0.26310  1.0000
  H   H1062     1.0  0.13585  0.40683  0.26630  1.0000
  C   C881      1.0  0.10473  0.44402  0.21989  1.0000
  C   C882      1.0  0.11483  0.44207  0.22320  1.0000
  C   C883      1.0  0.11508  0.44564  0.23251  1.0000
  C   C884      1.0  0.10515  0.45089  0.23871  1.0000
  C   C885      1.0  0.09504  0.45272  0.23546  1.0000
  C   C886      1.0  0.09486  0.44947  0.22596  1.0000
  H   H1063     1.0  0.12251  0.43804  0.21842  1.0000
  H   H1064     1.0  0.12293  0.44426  0.23493  1.0000
  H   H1065     1.0  0.08732  0.45667  0.24022  1.0000
  H   H1066     1.0  0.08703  0.45099  0.22344  1.0000
  C   C887      1.0  0.08675  0.39430  0.20690  1.0000
  C   C888      1.0  0.08056  0.39829  0.21641  1.0000
  C   C889      1.0  0.06877  0.40133  0.21829  1.0000
  C   C890      1.0  0.06322  0.40058  0.21054  1.0000
  C   C891      1.0  0.06946  0.39665  0.20107  1.0000
  C   C892      1.0  0.08113  0.39333  0.19937  1.0000
  H   H1067     1.0  0.08487  0.39890  0.22232  1.0000
  H   H1068     1.0  0.06398  0.40456  0.22550  1.0000
  H   H1069     1.0  0.06525  0.39611  0.19502  1.0000
  H   H1070     1.0  0.08584  0.39012  0.19208  1.0000
  C   C893      1.0  0.08186  0.32723  0.33336  1.0000
  C   C894      1.0  0.07393  0.33373  0.34030  1.0000
  C   C895      1.0  0.06952  0.32877  0.35132  1.0000
  C   C896      1.0  0.07283  0.31726  0.35536  1.0000
  C   C897      1.0  0.08036  0.31076  0.34823  1.0000
  C   C898      1.0  0.08498  0.31573  0.33736  1.0000
  H   H1071     1.0  0.07147  0.34261  0.33730  1.0000
  H   H1072     1.0  0.06364  0.33387  0.35675  1.0000
  H   H1073     1.0  0.08267  0.30190  0.35108  1.0000
  H   H1074     1.0  0.09102  0.31065  0.33200  1.0000
  C   C899      1.0  0.04137  0.37103  0.29167  1.0000
  C   C900      1.0  0.04071  0.38010  0.28272  1.0000
  C   C901      1.0  0.03808  0.37919  0.27317  1.0000
  C   C902      1.0  0.03610  0.36920  0.27246  1.0000
  C   C903      1.0  0.03672  0.36008  0.28143  1.0000
  C   C904      1.0  0.03933  0.36101  0.29106  1.0000
  H   H1075     1.0  0.04216  0.38788  0.28314  1.0000
  H   H1076     1.0  0.03775  0.38626  0.26635  1.0000
  H   H1077     1.0  0.03527  0.35230  0.28094  1.0000
  H   H1078     1.0  0.03980  0.35398  0.29802  1.0000
  C   C905      1.0  0.08102  0.40268  0.30550  1.0000
  C   C906      1.0  0.07757  0.40863  0.31393  1.0000
  C   C907      1.0  0.07325  0.42011  0.31161  1.0000
  C   C908      1.0  0.07268  0.42588  0.30077  1.0000
  C   C909      1.0  0.07576  0.41994  0.29230  1.0000
  C   C910      1.0  0.07988  0.40829  0.29468  1.0000
  H   H1079     1.0  0.07853  0.40439  0.32225  1.0000
  H   H1080     1.0  0.07083  0.42462  0.31820  1.0000
  H   H1081     1.0  0.07525  0.42433  0.28391  1.0000
  H   H1082     1.0  0.08275  0.40376  0.28810  1.0000
  C   C911      1.0  0.10275  0.37028  0.26200  1.0000
  C   C912      1.0  0.10721  0.37506  0.26793  1.0000
  C   C913      1.0  0.11412  0.38260  0.26223  1.0000
  C   C914      1.0  0.11637  0.38553  0.25063  1.0000
  C   C915      1.0  0.11196  0.38069  0.24473  1.0000
  C   C916      1.0  0.10527  0.37296  0.25042  1.0000
  H   H1083     1.0  0.10525  0.37303  0.27689  1.0000
  H   H1084     1.0  0.11752  0.38627  0.26687  1.0000
  H   H1085     1.0  0.11367  0.38290  0.23578  1.0000
  H   H1086     1.0  0.10181  0.36932  0.24583  1.0000
  C   C917      1.0  0.11211  0.48501  0.24407  1.0000
  H   H1087     1.0  0.10273  0.34459  0.33132  1.0000
  C   C918      1.0  0.03910  0.42018  0.29753  1.0000
  H   H1088     1.0  0.06415  0.34013  0.25479  1.0000
  H   H1089     1.0  0.04399  0.40871  0.31773  1.0000
  N   N57       1.0  0.04241  0.40801  0.30165  1.0000
  H   H1090     1.0  0.11754  0.29512  0.34624  1.0000
  H   H1091     1.0  0.08602  0.37363  0.22126  1.0000
  C   C919      1.0  0.05604  0.43310  0.20769  1.0000
  H   H1092     1.0  0.03849  0.43319  0.21393  1.0000
  H   H1093     1.0  0.09904  0.35948  0.23171  1.0000
  H   H1094     1.0  0.09230  0.34911  0.25011  1.0000
  H   H1095     1.0  0.01090  0.36800  0.24601  1.0000
  H   H1096     1.0  0.07736  0.44802  0.18856  1.0000
  H   H1097     1.0  0.17455  0.38100  0.19624  1.0000
  C   C920      1.0  0.09548  0.48744  0.25822  1.0000
  H   H1098     1.0  0.05697  0.42625  0.20389  1.0000
  H   H1099     1.0  0.06976  0.44133  0.23473  1.0000
  H   H1100     1.0  0.06575  0.37771  0.22958  1.0000
  C   C921      1.0  0.10745  0.31557  0.35182  1.0000
  H   H1101     1.0  0.08630  0.42293  0.18998  1.0000
  H   H1102     1.0  0.09184  0.42314  0.20664  1.0000
  C   C922      1.0  0.03238  0.40302  0.30611  1.0000
  C   C923      1.0  0.04957  0.40297  0.29231  1.0000
  H   H1103     1.0  0.05700  0.40740  0.30753  1.0000
  C   C924      1.0  0.11001  0.29576  0.35307  1.0000
  H   H1104     1.0  0.03459  0.39403  0.31010  1.0000
  H   H1105     1.0  0.02811  0.40324  0.29955  1.0000
  H   H1106     1.0  0.05737  0.40624  0.28892  1.0000
  H   H1107     1.0  0.05198  0.39376  0.29495  1.0000
  H   H1108     1.0  0.04519  0.40475  0.28540  1.0000
  H   H1109     1.0  0.12127  0.29379  0.36865  1.0000
  C   C925      1.0  0.03373  0.44331  0.28810  1.0000
  H   H1110     1.0  0.08027  0.38175  0.25213  1.0000
  H   H1111     1.0  0.07473  0.41802  0.19918  1.0000
  C   C926      1.0  0.06517  0.43779  0.20710  1.0000
  H   H1112     1.0  0.04934  0.42551  0.30561  1.0000
  H   H1113     1.0  0.12227  0.31170  0.33894  1.0000
  C   C927      1.0  0.10008  0.30305  0.36919  1.0000
  H   H1114     1.0  0.00206  0.39983  0.22244  1.0000
  H   H1115     1.0  0.11904  0.32982  0.32628  1.0000
  H   H1116     1.0  0.03491  0.44868  0.22341  1.0000
  C   C928      1.0  0.11521  0.40920  0.28190  1.0000
  C   C929      1.0  0.04090  0.43934  0.29545  1.0000
  H   H1117     1.0  0.04464  0.44508  0.29736  1.0000
  H   H1118     1.0  0.11957  0.30848  0.36751  1.0000
  H   H1119     1.0  0.02381  0.43898  0.27945  1.0000
  H   H1120     1.0  0.10538  0.43607  0.26941  1.0000
  C   C930      1.0  0.07752  0.42577  0.19437  1.0000
  C   C931      1.0  0.10049  0.42885  0.28646  1.0000
  C   C932      1.0  0.04880  0.40489  0.31056  1.0000
  C   C933      1.0  0.07128  0.43253  0.23855  1.0000
  C   C934      1.0  0.06728  0.36539  0.24472  1.0000
  H   H1121     1.0  0.02844  0.41913  0.28721  1.0000
  N   N58       1.0  0.06985  0.35046  0.26185  1.0000
  N   N59       1.0  0.10773  0.48675  0.25559  1.0000
  H   H1122     1.0  0.08721  0.39195  0.24216  1.0000
  C   C935      1.0  0.08311  0.42699  0.21031  1.0000
  C   C936      1.0  0.07142  0.37135  0.23418  1.0000
  C   C937      1.0  0.11291  0.47678  0.26307  1.0000
  C   C938      1.0  0.00664  0.37492  0.25040  1.0000
  C   C939      1.0  0.09826  0.32436  0.35453  1.0000
  H   H1123     1.0  0.08488  0.34429  0.26840  1.0000
  H   H1124     1.0  0.05836  0.36501  0.26669  1.0000
  H   H1125     1.0  0.01046  0.36417  0.26983  1.0000
  H   H1126     1.0  0.05365  0.35182  0.25854  1.0000
  Fe  Fe137     1.0  0.09399  0.27441  0.38112  1.0000
  H   H1127     1.0  0.13498  0.40877  0.25214  1.0000
  H   H1128     1.0  0.06105  0.40230  0.26856  1.0000
  C   C940      1.0  0.07980  0.42792  0.24438  1.0000
  H   H1129     1.0  0.13287  0.42806  0.24958  1.0000
  H   H1130     1.0  0.01326  0.37722  0.25290  1.0000
  H   H1131     1.0  0.12051  0.40126  0.28073  1.0000
  C   C941      1.0  0.11508  0.31794  0.34155  1.0000
  C   C942      1.0  0.11456  0.41883  0.27315  1.0000
  C   C943      1.0  0.05880  0.25508  0.37148  1.0000
  H   H1132     1.0  0.10936  0.47700  0.27196  1.0000
  H   H1133     1.0  0.08368  0.43236  0.21555  1.0000
  C   C944      1.0  0.10425  0.33669  0.33713  1.0000
  H   H1134     1.0  0.11054  0.28731  0.35858  1.0000
  C   C945      1.0  0.11340  0.32831  0.33429  1.0000
  H   H1135     1.0  0.09230  0.39510  0.25807  1.0000
  H   H1136     1.0  0.07241  0.42990  0.18800  1.0000
  C   C946      1.0  0.11383  0.42036  0.25418  1.0000
  H   H1137     1.0  0.09666  0.41958  0.30320  1.0000
  H   H1138     1.0  0.09190  0.30437  0.36692  1.0000
  C   C947      1.0  0.04357  0.42797  0.30014  1.0000
  C   C948      1.0  0.03177  0.42454  0.29004  1.0000
  H   H1139     1.0  0.06118  0.35363  0.27802  1.0000
  H   H1140     1.0  0.05084  0.39569  0.31372  1.0000
  H   H1141     1.0  0.10918  0.40206  0.29913  1.0000
  H   H1142     1.0  0.07134  0.36184  0.27069  1.0000
  H   H1143     1.0  0.06944  0.45010  0.21328  1.0000
  H   H1144     1.0  0.03755  0.24692  0.36666  1.0000
  C   C949      1.0  0.07826  0.34120  0.26674  1.0000
  C   C950      1.0  0.08282  0.36910  0.22948  1.0000
  H   H1145     1.0  0.10921  0.41351  0.25675  1.0000
  H   H1146     1.0  0.12210  0.47605  0.26157  1.0000
  H   H1147     1.0  0.11859  0.42030  0.24550  1.0000
  C   C951      1.0  0.12994  0.40846  0.26077  1.0000
  C   C952      1.0  0.12734  0.42813  0.25796  1.0000
  C   C953      1.0  0.07449  0.35687  0.25083  1.0000
  C   C954      1.0  0.08611  0.35504  0.24592  1.0000
  S   S268      1.0  0.15208  0.40563  0.19130  1.0000
  C   C955      1.0  0.09014  0.36103  0.23536  1.0000
  H   H1148     1.0  0.05837  0.36749  0.24802  1.0000
  C   C956      1.0  0.10879  0.40954  0.29260  1.0000
  H   H1149     1.0  0.13259  0.42765  0.26380  1.0000
  H   H1150     1.0  0.06035  0.41005  0.24290  1.0000
  H   H1151     1.0  0.05750  0.34030  0.26909  1.0000
  C   C957      1.0  0.06094  0.34546  0.26101  1.0000
  C   C958      1.0  0.06495  0.35804  0.26965  1.0000
  H   H1152     1.0  0.09450  0.43636  0.28824  1.0000
  H   H1153     1.0  0.10756  0.42837  0.25394  1.0000
  N   N60       1.0  0.12133  0.41887  0.26176  1.0000
  H   H1154     1.0  0.03196  0.45208  0.28424  1.0000
  S   S269      1.0  0.06794  0.31130  0.36945  1.0000
  C   C959      1.0  0.09679  0.33476  0.34728  1.0000
  C   C960      1.0  0.05204  0.45044  0.21853  1.0000
  C   C961      1.0  0.06454  0.42589  0.23790  1.0000
  H   H1155     1.0  0.10257  0.29760  0.34937  1.0000
  H   H1156     1.0  0.05053  0.45700  0.22297  1.0000
  H   H1157     1.0  0.10159  0.29455  0.37449  1.0000
  C   C962      1.0  0.10677  0.42859  0.27572  1.0000
  H   H1158     1.0  0.07289  0.39221  0.24266  1.0000
  C   C963      1.0  0.02910  0.43593  0.28547  1.0000
  H   H1159     1.0  0.08951  0.34122  0.34931  1.0000
  C   C964      1.0  0.06286  0.44649  0.21284  1.0000
  H   H1160     1.0  0.08814  0.41376  0.25425  1.0000
  Fe  Fe138     1.0  0.07565  0.26943  0.37373  1.0000
  H   H1161     1.0  0.09185  0.32336  0.36200  1.0000
  C   C965      1.0  0.16315  0.37565  0.19029  1.0000
  C   C966      1.0  0.04326  0.44573  0.21884  1.0000
  C   C967      1.0  0.04527  0.43704  0.21349  1.0000
  H   H1162     1.0  0.11008  0.47743  0.24308  1.0000
  N   N61       1.0  0.07679  0.43333  0.20163  1.0000
  H   H1163     1.0  0.12608  0.40116  0.26274  1.0000
  H   H1164     1.0  0.08377  0.44768  0.19958  1.0000
  C   C968      1.0  0.10162  0.41939  0.29491  1.0000
  H   H1165     1.0  0.12157  0.43641  0.25721  1.0000
  H   H1166     1.0  0.08232  0.33519  0.26124  1.0000
  H   H1167     1.0  0.07443  0.33647  0.27492  1.0000
  H   H1168     1.0  0.08505  0.43312  0.24482  1.0000
  N   N62       1.0  0.07545  0.39810  0.25585  1.0000
  C   C969      1.0  0.08141  0.41673  0.24986  1.0000
  H   H1169     1.0  0.08413  0.38599  0.26771  1.0000
  H   H1170     1.0  0.08146  0.39999  0.26926  1.0000
  H   H1171     1.0  0.05814  0.39708  0.25835  1.0000
  H   H1172     1.0  0.05780  0.42950  0.23351  1.0000
  C   C970      1.0  0.06603  0.41473  0.24339  1.0000
  C   C971      1.0  0.08235  0.44248  0.19465  1.0000
  H   H1173     1.0  0.12139  0.48373  0.24169  1.0000
  Fe  Fe139     1.0  0.07409  0.29283  0.37589  1.0000
  H   H1174     1.0  0.12719  0.30220  0.35597  1.0000
  H   H1175     1.0  0.00672  0.35471  0.26412  1.0000
  C   C972      1.0  0.00332  0.36219  0.26783  1.0000
  C   C973      1.0  0.04268  0.24854  0.37127  1.0000
  H   H1176     1.0  0.00324  0.38235  0.24444  1.0000
  H   H1177     1.0  0.11151  0.46898  0.26189  1.0000
  H   H1178     1.0  0.09089  0.43923  0.19000  1.0000
  H   H1179     1.0  0.00157  0.24686  0.37730  1.0000
  H   H1180     1.0  0.09341  0.48047  0.25610  1.0000
  H   H1181     1.0  0.07682  0.48488  0.28923  1.0000
  H   H1182     1.0  0.99964  0.38409  0.26761  1.0000
  H   H1183     1.0  0.99754  0.35985  0.27587  1.0000
  N   N63       1.0  0.99780  0.37167  0.26012  1.0000
  C   C974      1.0  0.16173  0.37128  0.18208  1.0000
  H   H1184     1.0  0.15347  0.37039  0.18217  1.0000
  Fe  Fe140     1.0  0.07139  0.27407  0.39643  1.0000
  H   H1185     1.0  0.06802  0.24411  0.40813  1.0000
  S   S270      1.0  0.06269  0.26681  0.41346  1.0000
  Fe  Fe141     1.0  0.09462  0.27437  0.57063  1.0000
  S   S271      1.0  0.10017  0.25646  0.57844  1.0000
  C   C975      1.0  0.10715  0.27421  0.49237  1.0000
  Fe  Fe142     1.0  0.09240  0.26838  0.54964  1.0000
  S   S272      1.0  0.09788  0.25007  0.55607  1.0000
  S   S273      1.0  0.08992  0.27491  0.53199  1.0000
  Fe  Fe143     1.0  0.08670  0.25366  0.57206  1.0000
  H   H1186     1.0  0.04490  0.25276  0.46490  1.0000
  Fe  Fe144     1.0  0.11081  0.25458  0.56182  1.0000
  S   S274      1.0  0.08011  0.27181  0.56536  1.0000
  S   S275      1.0  0.10633  0.27270  0.55420  1.0000
  C   C976      1.0  0.03586  0.25114  0.45364  1.0000
  C   C977      1.0  0.10401  0.26636  0.41781  1.0000
  H   H1187     1.0  0.02369  0.26452  0.40001  1.0000
  S   S276      1.0  0.06471  0.25123  0.51168  1.0000
  S   S277      1.0  0.05496  0.25838  0.48331  1.0000
  H   H1188     1.0  0.09633  0.24853  0.51654  1.0000
  S   S278      1.0  0.08140  0.25944  0.47933  1.0000
  C   C978      1.0  0.11847  0.25896  0.38767  1.0000
  H   H1189     1.0  0.06824  0.24770  0.53363  1.0000
  Fe  Fe145     1.0  0.06849  0.26383  0.46902  1.0000
  S   S279      1.0  0.06716  0.27962  0.45588  1.0000
  H   H1190     1.0  0.07629  0.26956  0.50201  1.0000
  S   S280      1.0  0.02484  0.24897  0.43903  1.0000
  C   C979      1.0  0.08267  0.26837  0.52657  1.0000
  C   C980      1.0  0.07774  0.25954  0.53312  1.0000
  C   C981      1.0  0.07215  0.25443  0.52848  1.0000
  C   C982      1.0  0.07166  0.25796  0.51723  1.0000
  C   C983      1.0  0.07669  0.26671  0.51066  1.0000
  C   C984      1.0  0.08202  0.27199  0.51537  1.0000
  H   H1191     1.0  0.07811  0.25674  0.54178  1.0000
  N   N64       1.0  0.13540  0.26952  0.57475  1.0000
  H   H1192     1.0  0.08568  0.27892  0.51030  1.0000
  C   C985      1.0  0.10414  0.24268  0.51347  1.0000
  H   H1193     1.0  0.10863  0.28205  0.40967  1.0000
  S   S281      1.0  0.08395  0.26124  0.38801  1.0000
  C   C986      1.0  0.12809  0.23892  0.40060  1.0000
  H   H1194     1.0  0.03940  0.26221  0.42084  1.0000
  H   H1195     1.0  0.03515  0.25973  0.44923  1.0000
  H   H1196     1.0  0.10805  0.26302  0.41048  1.0000
  C   C987      1.0  0.04122  0.29931  0.39681  1.0000
  C   C988      1.0  0.06360  0.27109  0.42497  1.0000
  C   C989      1.0  0.06826  0.28016  0.42387  1.0000
  C   C990      1.0  0.06886  0.28320  0.43339  1.0000
  C   C991      1.0  0.06512  0.27694  0.44395  1.0000
  C   C992      1.0  0.06024  0.26810  0.44496  1.0000
  C   C993      1.0  0.05945  0.26519  0.43552  1.0000
  H   H1197     1.0  0.07137  0.28482  0.41573  1.0000
  H   H1198     1.0  0.07254  0.29015  0.43258  1.0000
  H   H1199     1.0  0.05697  0.26355  0.45306  1.0000
  H   H1200     1.0  0.05566  0.25830  0.43644  1.0000
  H   H1201     1.0  0.11130  0.24456  0.51549  1.0000
  H   H1202     1.0  0.08515  0.25349  0.41865  1.0000
  H   H1203     1.0  0.12691  0.26685  0.56361  1.0000
  H   H1204     1.0  0.10545  0.26298  0.50788  1.0000
  C   C994      1.0  0.11391  0.24952  0.39009  1.0000
  H   H1205     1.0  0.09077  0.27948  0.44351  1.0000
  C   C995      1.0  0.09366  0.24800  0.41851  1.0000
  H   H1206     1.0  0.04431  0.29444  0.42324  1.0000
  C   C996      1.0  0.13733  0.28043  0.56767  1.0000
  S   S282      1.0  0.07365  0.24771  0.46338  1.0000
  H   H1207     1.0  0.11790  0.27368  0.57416  1.0000
  H   H1208     1.0  0.14407  0.28296  0.56978  1.0000
  H   H1209     1.0  0.01499  0.26627  0.41869  1.0000
  H   H1210     1.0  0.13980  0.28018  0.55871  1.0000
  S   S283      1.0  0.01188  0.23978  0.41969  1.0000
  H   H1211     1.0  0.00438  0.23983  0.39955  1.0000
  S   S284      1.0  0.02802  0.24056  0.38960  1.0000
  H   H1212     1.0  0.04315  0.30491  0.38884  1.0000
  C   C997      1.0  0.03420  0.28268  0.40797  1.0000
  H   H1213     1.0  0.03458  0.28970  0.39024  1.0000
  C   C998      1.0  0.05591  0.25291  0.38308  1.0000
  C   C999      1.0  0.09850  0.25989  0.42758  1.0000
  H   H1214     1.0  0.08954  0.26070  0.44471  1.0000
  H   H1215     1.0  0.08231  0.24801  0.43935  1.0000
  C   C1000     1.0  0.04189  0.29345  0.41616  1.0000
  Fe  Fe146     1.0  0.06126  0.24185  0.47847  1.0000
  C   C1001     1.0  0.11873  0.23948  0.39657  1.0000
  C   C1002     1.0  0.03631  0.29044  0.39774  1.0000
  H   H1216     1.0  0.10009  0.29046  0.42612  1.0000
  H   H1217     1.0  0.12969  0.28718  0.56848  1.0000
  C   C1003     1.0  0.09979  0.28197  0.42655  1.0000
  C   C1004     1.0  0.01892  0.27336  0.41774  1.0000
  S   S285      1.0  0.08206  0.28672  0.39073  1.0000
  C   C1005     1.0  0.13271  0.24830  0.39802  1.0000
  C   C1006     1.0  0.10829  0.25666  0.48285  1.0000
  H   H1218     1.0  0.15306  0.26216  0.57273  1.0000
  C   C1007     1.0  0.04657  0.24825  0.38878  1.0000
  H   H1219     1.0  0.06106  0.25455  0.38767  1.0000
  H   H1220     1.0  0.04561  0.26184  0.40659  1.0000
  C   C1008     1.0  0.02705  0.27206  0.39881  1.0000
  C   C1009     1.0  0.10453  0.27726  0.41730  1.0000
  H   H1221     1.0  0.11547  0.24470  0.41943  1.0000
  H   H1222     1.0  0.03421  0.25503  0.41398  1.0000
  C   C1010     1.0  0.04407  0.30075  0.40598  1.0000
  C   C1011     1.0  0.09110  0.24310  0.43821  1.0000
  H   H1223     1.0  0.02030  0.27273  0.42610  1.0000
  C   C1012     1.0  0.03698  0.28457  0.41719  1.0000
  N   N65       1.0  0.02949  0.27290  0.40920  1.0000
  C   C1013     1.0  0.10894  0.26722  0.47620  1.0000
  C   C1014     1.0  0.03753  0.26256  0.41278  1.0000
  N   N66       1.0  0.09817  0.24831  0.42791  1.0000
  C   C1015     1.0  0.09389  0.26490  0.43690  1.0000
  H   H1224     1.0  0.10977  0.26862  0.46733  1.0000
  H   H1225     1.0  0.13991  0.24790  0.40117  1.0000
  C   C1016     1.0  0.12557  0.26719  0.57246  1.0000
  C   C1017     1.0  0.10832  0.27600  0.48096  1.0000
  H   H1226     1.0  0.02073  0.27939  0.39579  1.0000
  C   C1018     1.0  0.12797  0.25825  0.39151  1.0000
  H   H1227     1.0  0.03479  0.27127  0.39215  1.0000
  Fe  Fe147     1.0  0.06844  0.25230  0.49319  1.0000
  C   C1019     1.0  0.09460  0.27576  0.43635  1.0000
  H   H1228     1.0  0.09901  0.25072  0.41034  1.0000
  S   S286      1.0  0.12887  0.24559  0.55905  1.0000
  C   C1020     1.0  0.14530  0.26087  0.57131  1.0000
  H   H1229     1.0  0.14673  0.26083  0.56236  1.0000
  H   H1230     1.0  0.04813  0.30746  0.40513  1.0000
  C   C1021     1.0  0.10688  0.25459  0.49453  1.0000
  H   H1231     1.0  0.14413  0.25239  0.57582  1.0000
  H   H1232     1.0  0.10868  0.28421  0.47580  1.0000
  H   H1233     1.0  0.10658  0.28107  0.49609  1.0000
  S   S287      1.0  0.09680  0.28678  0.57925  1.0000
  H   H1234     1.0  0.05354  0.24652  0.42511  1.0000
  H   H1235     1.0  0.13156  0.26548  0.38964  1.0000
  C   C1022     1.0  0.06042  0.23935  0.42535  1.0000
  H   H1236     1.0  0.01278  0.28126  0.41567  1.0000
  H   H1237     1.0  0.03580  0.27894  0.42519  1.0000
  H   H1238     1.0  0.04453  0.24633  0.39771  1.0000
  C   C1023     1.0  0.10969  0.24143  0.42706  1.0000
  C   C1024     1.0  0.10649  0.26368  0.49910  1.0000
  H   H1239     1.0  0.10676  0.24992  0.38691  1.0000
  C   C1025     1.0  0.04143  0.24720  0.46247  1.0000
  H   H1240     1.0  0.10869  0.25016  0.47876  1.0000
  H   H1241     1.0  0.12379  0.25907  0.57758  1.0000
  N   N67       1.0  0.10584  0.24339  0.50140  1.0000
  C   C1026     1.0  0.03138  0.24395  0.45041  1.0000
  H   H1242     1.0  0.03931  0.25677  0.50452  1.0000
  H   H1243     1.0  0.02655  0.25672  0.51488  1.0000
  H   H1244     1.0  0.08839  0.24673  0.50126  1.0000
  N   N68       1.0  0.03447  0.24087  0.51050  1.0000
  H   H1245     1.0  0.03997  0.25073  0.51850  1.0000
  C   C1027     1.0  0.03506  0.25171  0.51220  1.0000
  Fe  Fe148     1.0  0.08567  0.24297  0.47452  1.0000
  H   H1246     1.0  0.03448  0.24782  0.49312  1.0000
  H   H1247     1.0  0.02088  0.24837  0.50193  1.0000
  H   H1248     1.0  0.11323  0.24124  0.43415  1.0000
  H   H1249     1.0  0.09444  0.24225  0.44563  1.0000
  H   H1250     1.0  0.09736  0.23920  0.49107  1.0000
  C   C1028     1.0  0.09614  0.24026  0.49966  1.0000
  C   C1029     1.0  0.02952  0.24319  0.50065  1.0000
  S   S288      1.0  0.06219  0.28124  0.38261  1.0000
  C   C1030     1.0  0.03991  0.24613  0.38285  1.0000
  H   H1251     1.0  0.09304  0.23944  0.41872  1.0000
  Fe  Fe149     1.0  0.03030  0.24815  0.63092  1.0000
  S   S289      1.0  0.03545  0.26126  0.61632  1.0000
  H   H1252     1.0  0.02503  0.37691  0.73871  1.0000
  C   C1031     1.0  0.12469  0.27831  0.59093  1.0000
  S   S290      1.0  0.02580  0.25274  0.66970  1.0000
  H   H1253     1.0  0.09978  0.47197  0.75087  1.0000
  H   H1254     1.0  0.09751  0.45905  0.75955  1.0000
  S   S291      1.0  0.01482  0.25343  0.64320  1.0000
  C   C1032     1.0  0.00724  0.36570  0.77242  1.0000
  H   H1255     1.0  0.06894  0.26307  0.58693  1.0000
  C   C1033     1.0  0.08816  0.25491  0.61795  1.0000
  Fe  Fe150     1.0  0.09180  0.34895  0.72554  1.0000
  S   S292      1.0  0.09425  0.35540  0.70719  1.0000
  S   S293      1.0  0.07565  0.34512  0.73623  1.0000
  Fe  Fe151     1.0  0.11618  0.34575  0.72591  1.0000
  S   S294      1.0  0.12086  0.35097  0.70727  1.0000
  S   S295      1.0  0.12898  0.34005  0.73680  1.0000
  Fe  Fe152     1.0  0.10566  0.36482  0.70990  1.0000
  S   S296      1.0  0.10539  0.38312  0.70238  1.0000
  Fe  Fe153     1.0  0.10899  0.34092  0.70626  1.0000
  S   S297      1.0  0.11152  0.32708  0.69668  1.0000
  S   S298      1.0  0.10144  0.35977  0.72844  1.0000
  S   S299      1.0  0.10609  0.33432  0.72474  1.0000
  Fe  Fe154     1.0  0.07928  0.29210  0.64069  1.0000
  S   S300      1.0  0.08560  0.27394  0.64684  1.0000
  S   S301      1.0  0.06995  0.29508  0.62703  1.0000
  Fe  Fe155     1.0  0.08713  0.29865  0.65871  1.0000
  S   S302      1.0  0.09373  0.28067  0.66602  1.0000
  S   S303      1.0  0.08794  0.31376  0.66492  1.0000
  Fe  Fe156     1.0  0.10047  0.27902  0.64833  1.0000
  S   S304      1.0  0.11746  0.27004  0.64091  1.0000
  Fe  Fe157     1.0  0.07802  0.27740  0.66367  1.0000
  S   S305      1.0  0.06793  0.26575  0.67635  1.0000
  S   S306      1.0  0.09484  0.29708  0.64092  1.0000
  S   S307      1.0  0.07076  0.29545  0.65768  1.0000
  C   C1034     1.0  0.11676  0.30968  0.64165  1.0000
  H   H1256     1.0  0.14902  0.33718  0.76498  1.0000
  S   S308      1.0  0.04981  0.39393  0.76368  1.0000
  H   H1257     1.0  0.00211  0.41341  0.74818  1.0000
  S   S309      1.0  0.02274  0.39924  0.76578  1.0000
  H   H1258     1.0  0.07591  0.37934  0.74366  1.0000
  Fe  Fe158     1.0  0.03787  0.38872  0.75725  1.0000
  S   S310      1.0  0.04020  0.38957  0.73912  1.0000
  H   H1259     1.0  0.05793  0.40579  0.73040  1.0000
  H   H1260     1.0  0.11911  0.34288  0.78173  1.0000
  C   C1035     1.0  0.10307  0.42217  0.78156  1.0000
  C   C1036     1.0  0.08277  0.26343  0.62395  1.0000
  Fe  Fe159     1.0  0.08119  0.44261  0.73285  1.0000
  S   S311      1.0  0.09690  0.44322  0.71956  1.0000
  S   S312      1.0  0.06531  0.44106  0.72945  1.0000
  Fe  Fe160     1.0  0.09294  0.44077  0.75104  1.0000
  S   S313      1.0  0.10966  0.44075  0.73940  1.0000
  S   S314      1.0  0.09044  0.43925  0.76932  1.0000
  Fe  Fe161     1.0  0.10004  0.45474  0.72851  1.0000
  S   S315      1.0  0.10500  0.47146  0.72111  1.0000
  Fe  Fe162     1.0  0.10496  0.42921  0.73177  1.0000
  S   S316      1.0  0.11617  0.41239  0.72960  1.0000
  S   S317      1.0  0.08348  0.45530  0.74065  1.0000
  S   S318      1.0  0.08908  0.42807  0.74451  1.0000
  C   C1037     1.0  0.06677  0.40430  0.77351  1.0000
  H   H1261     1.0  0.09331  0.24303  0.64920  1.0000
  C   C1038     1.0  0.12565  0.30880  0.65692  1.0000
  H   H1262     1.0  0.10135  0.29647  0.59467  1.0000
  H   H1263     1.0  0.00833  0.35477  0.76181  1.0000
  C   C1039     1.0  0.04246  0.42699  0.76142  1.0000
  C   C1040     1.0  0.04374  0.42343  0.75168  1.0000
  C   C1041     1.0  0.05033  0.42820  0.74176  1.0000
  C   C1042     1.0  0.05614  0.43610  0.74166  1.0000
  C   C1043     1.0  0.05472  0.43978  0.75135  1.0000
  C   C1044     1.0  0.04757  0.43551  0.76111  1.0000
  H   H1264     1.0  0.03956  0.41708  0.75177  1.0000
  H   H1265     1.0  0.05117  0.42557  0.73420  1.0000
  H   H1266     1.0  0.05900  0.44606  0.75126  1.0000
  C   C1045     1.0  0.00492  0.38565  0.71847  1.0000
  H   H1267     1.0  0.13949  0.47553  0.71980  1.0000
  H   H1268     1.0  0.00657  0.39382  0.74832  1.0000
  C   C1046     1.0  0.12249  0.27880  0.60209  1.0000
  C   C1047     1.0  0.11054  0.47686  0.72925  1.0000
  C   C1048     1.0  0.11860  0.47005  0.73514  1.0000
  H   H1269     1.0  0.13661  0.29464  0.66537  1.0000
  H   H1270     1.0  0.00270  0.35719  0.72679  1.0000
  H   H1271     1.0  0.09688  0.26548  0.59823  1.0000
  H   H1272     1.0  0.13319  0.29305  0.63737  1.0000
  C   C1049     1.0  0.11846  0.25559  0.64472  1.0000
  H   H1273     1.0  0.08577  0.47015  0.75762  1.0000
  C   C1050     1.0  0.12849  0.27074  0.60930  1.0000
  C   C1051     1.0  0.06361  0.25777  0.59259  1.0000
  H   H1274     1.0  0.13171  0.25225  0.63070  1.0000
  H   H1275     1.0  0.00707  0.27148  0.58666  1.0000
  H   H1276     1.0  0.10791  0.33855  0.75251  1.0000
  C   C1052     1.0  0.10431  0.32348  0.68832  1.0000
  C   C1053     1.0  0.10678  0.31239  0.68707  1.0000
  C   C1054     1.0  0.10182  0.30921  0.68011  1.0000
  C   C1055     1.0  0.09432  0.31711  0.67417  1.0000
  C   C1056     1.0  0.09179  0.32818  0.67547  1.0000
  C   C1057     1.0  0.09670  0.33135  0.68248  1.0000
  H   H1277     1.0  0.11267  0.30620  0.69147  1.0000
  H   H1278     1.0  0.10379  0.30063  0.67945  1.0000
  H   H1279     1.0  0.08603  0.33441  0.67095  1.0000
  H   H1280     1.0  0.09479  0.33995  0.68314  1.0000
  C   C1058     1.0  0.06513  0.35718  0.73589  1.0000
  C   C1059     1.0  0.05518  0.35717  0.74388  1.0000
  C   C1060     1.0  0.04712  0.36705  0.74440  1.0000
  C   C1061     1.0  0.04897  0.37689  0.73687  1.0000
  C   C1062     1.0  0.05851  0.37673  0.72831  1.0000
  C   C1063     1.0  0.06673  0.36689  0.72794  1.0000
  H   H1281     1.0  0.05389  0.34963  0.74996  1.0000
  H   H1282     1.0  0.03955  0.36704  0.75074  1.0000
  H   H1283     1.0  0.05978  0.38431  0.72232  1.0000
  H   H1284     1.0  0.07437  0.36689  0.72166  1.0000
  C   C1064     1.0  0.10893  0.39110  0.70975  1.0000
  C   C1065     1.0  0.10652  0.40277  0.70648  1.0000
  C   C1066     1.0  0.10853  0.40939  0.71259  1.0000
  C   C1067     1.0  0.11320  0.40437  0.72190  1.0000
  C   C1068     1.0  0.11576  0.39271  0.72507  1.0000
  C   C1069     1.0  0.11354  0.38610  0.71911  1.0000
  H   H1285     1.0  0.10293  0.40672  0.69927  1.0000
  H   H1286     1.0  0.10660  0.41836  0.71000  1.0000
  H   H1287     1.0  0.11933  0.38872  0.73228  1.0000
  H   H1288     1.0  0.11546  0.37714  0.72173  1.0000
  C   C1070     1.0  0.13317  0.26980  0.58661  1.0000
  H   H1289     1.0  0.08780  0.34566  0.75242  1.0000
  H   H1290     1.0  0.08950  0.41149  0.77599  1.0000
  C   C1071     1.0  0.10306  0.43149  0.77283  1.0000
  C   C1072     1.0  0.11320  0.43384  0.76615  1.0000
  C   C1073     1.0  0.12330  0.42643  0.76766  1.0000
  H   H1291     1.0  0.11632  0.28866  0.65151  1.0000
  H   H1292     1.0  0.11326  0.44128  0.75969  1.0000
  H   H1293     1.0  0.13111  0.42808  0.76226  1.0000
  C   C1074     1.0  0.13526  0.35137  0.76535  1.0000
  C   C1075     1.0  0.12614  0.35759  0.76050  1.0000
  C   C1076     1.0  0.12395  0.35443  0.75162  1.0000
  C   C1077     1.0  0.13083  0.34500  0.74771  1.0000
  C   C1078     1.0  0.13980  0.33893  0.75266  1.0000
  C   C1079     1.0  0.14199  0.34207  0.76133  1.0000
  H   H1294     1.0  0.12083  0.36477  0.76354  1.0000
  H   H1295     1.0  0.11699  0.35923  0.74783  1.0000
  H   H1296     1.0  0.14517  0.33167  0.74974  1.0000
  H   H1297     1.0  0.07000  0.40496  0.76443  1.0000
  C   C1080     1.0  0.03812  0.25583  0.67082  1.0000
  C   C1081     1.0  0.03928  0.25552  0.68142  1.0000
  C   C1082     1.0  0.04853  0.25844  0.68287  1.0000
  C   C1083     1.0  0.05659  0.26211  0.67373  1.0000
  C   C1084     1.0  0.05559  0.26236  0.66303  1.0000
  C   C1085     1.0  0.04642  0.25904  0.66159  1.0000
  H   H1298     1.0  0.01816  0.26546  0.60121  1.0000
  H   H1299     1.0  0.04926  0.25818  0.69114  1.0000
  H   H1300     1.0  0.06179  0.26518  0.65593  1.0000
  H   H1301     1.0  0.04552  0.25942  0.65336  1.0000
  H   H1302     1.0  0.11112  0.26246  0.59963  1.0000
  C   C1086     1.0  0.09456  0.46819  0.75865  1.0000
  C   C1087     1.0  0.09357  0.29377  0.59845  1.0000
  C   C1088     1.0  0.08799  0.29525  0.60920  1.0000
  C   C1089     1.0  0.07760  0.29238  0.61392  1.0000
  C   C1090     1.0  0.07303  0.28770  0.60792  1.0000
  H   H1303     1.0  0.10533  0.24448  0.62820  1.0000
  C   C1091     1.0  0.08467  0.40646  0.77411  1.0000
  H   H1304     1.0  0.09150  0.29904  0.61364  1.0000
  H   H1305     1.0  0.06497  0.28550  0.61144  1.0000
  H   H1306     1.0  0.01602  0.39643  0.70833  1.0000
  H   H1307     1.0  0.06909  0.24132  0.66914  1.0000
  H   H1308     1.0  0.05765  0.40784  0.77449  1.0000
  H   H1309     1.0  0.07438  0.35015  0.76939  1.0000
  C   C1092     1.0  0.04726  0.25550  0.60732  1.0000
  H   H1310     1.0  0.02883  0.39077  0.72129  1.0000
  C   C1093     1.0  0.13275  0.30338  0.66452  1.0000
  H   H1311     1.0  0.11304  0.47202  0.76318  1.0000
  C   C1094     1.0  0.13669  0.48336  0.71438  1.0000
  C   C1095     1.0  0.11256  0.23932  0.65744  1.0000
  H   H1312     1.0  0.12679  0.27118  0.61792  1.0000
  H   H1313     1.0  0.01613  0.36539  0.77035  1.0000
  H   H1314     1.0  0.07126  0.41674  0.72020  1.0000
  C   C1096     1.0  0.01055  0.26254  0.60253  1.0000
  C   C1097     1.0  0.10205  0.34043  0.76001  1.0000
  H   H1315     1.0  0.12245  0.28779  0.66274  1.0000
  C   C1098     1.0  0.10588  0.33890  0.76965  1.0000
  C   C1099     1.0  0.13899  0.26157  0.59426  1.0000
  Fe  Fe163     1.0  0.04795  0.37942  0.77788  1.0000
  H   H1316     1.0  0.10997  0.45854  0.76979  1.0000
  S   S319      1.0  0.13563  0.40668  0.77669  1.0000
  C   C1100     1.0  0.04985  0.24410  0.60756  1.0000
  H   H1317     1.0  0.08730  0.26915  0.62466  1.0000
  C   C1101     1.0  0.09073  0.34443  0.75993  1.0000
  H   H1318     1.0  0.00539  0.39030  0.76287  1.0000
  H   H1319     1.0  0.12144  0.46135  0.73479  1.0000
  C   C1102     1.0  0.13666  0.26211  0.60541  1.0000
  H   H1320     1.0  0.10817  0.46844  0.77784  1.0000
  C   C1103     1.0  0.01940  0.37937  0.73306  1.0000
  C   C1104     1.0  0.01007  0.37467  0.73565  1.0000
  H   H1321     1.0  0.12065  0.31666  0.63626  1.0000
  C   C1105     1.0  0.08134  0.24821  0.61698  1.0000
  H   H1322     1.0  0.10044  0.27094  0.60793  1.0000
  H   H1323     1.0  0.11577  0.30488  0.63607  1.0000
  C   C1106     1.0  0.10680  0.25183  0.62142  1.0000
  H   H1324     1.0  0.10068  0.24461  0.60063  1.0000
  C   C1107     1.0  0.06494  0.25825  0.62780  1.0000
  C   C1108     1.0  0.07889  0.28569  0.59738  1.0000
  S   S320      1.0  0.03726  0.37317  0.77049  1.0000
  C   C1109     1.0  0.11152  0.25090  0.65434  1.0000
  Fe  Fe164     1.0  0.02552  0.24541  0.65568  1.0000
  H   H1325     1.0  0.11604  0.28542  0.60521  1.0000
  H   H1326     1.0  0.14014  0.30476  0.67723  1.0000
  S   S321      1.0  0.13885  0.35428  0.77657  1.0000
  H   H1327     1.0  0.08961  0.45780  0.77940  1.0000
  H   H1328     1.0  0.07849  0.24827  0.65157  1.0000
  C   C1110     1.0  0.06991  0.24993  0.62184  1.0000
  H   H1329     1.0  0.10119  0.37751  0.76052  1.0000
  C   C1111     1.0  0.01428  0.39036  0.71598  1.0000
  H   H1330     1.0  0.11465  0.32495  0.65170  1.0000
  C   C1112     1.0  0.12279  0.32584  0.66362  1.0000
  H   H1331     1.0  0.06480  0.24491  0.62078  1.0000
  H   H1332     1.0  0.10478  0.25916  0.62524  1.0000
  N   N69       1.0  0.10028  0.25344  0.61289  1.0000
  Fe  Fe165     1.0  0.03456  0.40314  0.77351  1.0000
  H   H1333     1.0  0.13947  0.30368  0.63840  1.0000
  C   C1113     1.0  0.12323  0.41665  0.77583  1.0000
  H   H1334     1.0  0.06751  0.27156  0.63342  1.0000
  H   H1335     1.0  0.12960  0.46927  0.74560  1.0000
  H   H1336     1.0  0.04625  0.43859  0.76851  1.0000
  C   C1114     1.0  0.05419  0.26232  0.59990  1.0000
  H   H1337     1.0  0.10304  0.39668  0.75055  1.0000
  C   C1115     1.0  0.10229  0.26350  0.60432  1.0000
  H   H1338     1.0  0.13126  0.32463  0.67641  1.0000
  C   C1116     1.0  0.13446  0.29735  0.64326  1.0000
  C   C1117     1.0  0.00429  0.26589  0.59436  1.0000
  C   C1118     1.0  0.06595  0.24646  0.59252  1.0000
  H   H1339     1.0  0.99967  0.38844  0.71248  1.0000
  H   H1340     1.0  0.08719  0.39438  0.71743  1.0000
  H   H1341     1.0  0.11390  0.24274  0.60397  1.0000
  H   H1342     1.0  0.05228  0.27112  0.59980  1.0000
  H   H1343     1.0  0.08555  0.41251  0.72123  1.0000
  C   C1119     1.0  0.02152  0.38719  0.72324  1.0000
  H   H1344     1.0  0.09177  0.40727  0.73730  1.0000
  H   H1345     1.0  0.06107  0.40550  0.74329  1.0000
  H   H1346     1.0  0.13112  0.47566  0.70453  1.0000
  H   H1347     1.0  0.10812  0.31318  0.64593  1.0000
  N   N70       1.0  0.03252  0.28931  0.63635  1.0000
  C   C1120     1.0  0.03079  0.27913  0.63420  1.0000
  C   C1121     1.0  0.02306  0.29863  0.63380  1.0000
  C   C1122     1.0  0.04288  0.29200  0.62849  1.0000
  C   C1123     1.0  0.03291  0.28759  0.64814  1.0000
  C   C1124     1.0  0.04170  0.28985  0.65150  1.0000
  C   C1125     1.0  0.02408  0.28392  0.65668  1.0000
  C   C1126     1.0  0.04162  0.28836  0.66273  1.0000
  C   C1127     1.0  0.02414  0.28241  0.66785  1.0000
  C   C1128     1.0  0.03290  0.28462  0.67087  1.0000
  H   H1348     1.0  0.02252  0.27717  0.63864  1.0000
  H   H1349     1.0  0.03111  0.28000  0.62526  1.0000
  H   H1350     1.0  0.03731  0.27173  0.63668  1.0000
  H   H1351     1.0  0.01487  0.29687  0.63888  1.0000
  H   H1352     1.0  0.02255  0.30034  0.62495  1.0000
  H   H1353     1.0  0.02397  0.30641  0.63547  1.0000
  H   H1354     1.0  0.05034  0.28536  0.63010  1.0000
  H   H1355     1.0  0.04255  0.29284  0.61971  1.0000
  H   H1356     1.0  0.04437  0.30004  0.62894  1.0000
  H   H1357     1.0  0.04879  0.29269  0.64566  1.0000
  H   H1358     1.0  0.01709  0.28206  0.65482  1.0000
  H   H1359     1.0  0.04849  0.28986  0.66517  1.0000
  H   H1360     1.0  0.01751  0.27921  0.67421  1.0000
  H   H1361     1.0  0.03306  0.28318  0.67954  1.0000
  N   N71       1.0  0.14001  0.39215  0.74879  1.0000
  C   C1129     1.0  0.14740  0.38600  0.75671  1.0000
  C   C1130     1.0  0.14182  0.40372  0.74497  1.0000
  C   C1131     1.0  0.12822  0.39267  0.75478  1.0000
  C   C1132     1.0  0.14214  0.38643  0.73959  1.0000
  C   C1133     1.0  0.14211  0.39233  0.72846  1.0000
  C   C1134     1.0  0.14337  0.37471  0.74171  1.0000
  C   C1135     1.0  0.14333  0.38678  0.72006  1.0000
  C   C1136     1.0  0.14456  0.36926  0.73325  1.0000
  C   C1137     1.0  0.14449  0.37528  0.72246  1.0000
  H   H1362     1.0  0.15631  0.38414  0.75229  1.0000
  H   H1363     1.0  0.14684  0.39081  0.76295  1.0000
  H   H1364     1.0  0.14510  0.37804  0.76171  1.0000
  H   H1365     1.0  0.13542  0.40934  0.74033  1.0000
  H   H1366     1.0  0.15030  0.40396  0.73963  1.0000
  H   H1367     1.0  0.14097  0.40757  0.75205  1.0000
  H   H1368     1.0  0.12643  0.38422  0.75835  1.0000
  H   H1369     1.0  0.12611  0.39716  0.76165  1.0000
  H   H1370     1.0  0.12244  0.39719  0.74910  1.0000
  H   H1371     1.0  0.14071  0.40128  0.72610  1.0000
  H   H1372     1.0  0.14315  0.36965  0.74996  1.0000
  H   H1373     1.0  0.14290  0.39150  0.71172  1.0000
  H   H1374     1.0  0.14530  0.36032  0.73512  1.0000
  H   H1375     1.0  0.14510  0.37106  0.71600  1.0000
  N   N72       1.0  0.07710  0.32374  0.71641  1.0000
  C   C1138     1.0  0.07877  0.33490  0.70988  1.0000
  C   C1139     1.0  0.06610  0.32508  0.72428  1.0000
  C   C1140     1.0  0.08593  0.31917  0.72301  1.0000
  C   C1141     1.0  0.07728  0.31662  0.70897  1.0000
  C   C1142     1.0  0.08453  0.30596  0.70895  1.0000
  C   C1143     1.0  0.06977  0.32015  0.70167  1.0000
  C   C1144     1.0  0.08423  0.29933  0.70203  1.0000
  C   C1145     1.0  0.06969  0.31355  0.69464  1.0000
  C   C1146     1.0  0.07689  0.30315  0.69484  1.0000
  H   H1376     1.0  0.07226  0.33935  0.70503  1.0000
  H   H1377     1.0  0.07852  0.34043  0.71532  1.0000
  H   H1378     1.0  0.08704  0.33430  0.70402  1.0000
  H   H1379     1.0  0.05911  0.32944  0.72000  1.0000
  H   H1380     1.0  0.06577  0.33009  0.73028  1.0000
  H   H1381     1.0  0.06437  0.31686  0.72917  1.0000
  H   H1382     1.0  0.09446  0.31816  0.71753  1.0000
  H   H1383     1.0  0.08568  0.32481  0.72836  1.0000
  H   H1384     1.0  0.08487  0.31107  0.72870  1.0000
  H   H1385     1.0  0.09065  0.30260  0.71406  1.0000
  H   H1386     1.0  0.06394  0.32810  0.70126  1.0000
  H   H1387     1.0  0.08996  0.29132  0.70199  1.0000
  H   H1388     1.0  0.06419  0.31657  0.68883  1.0000
  H   H1389     1.0  0.07696  0.29817  0.68920  1.0000
  H   H1390     1.0  0.11598  0.25041  0.61786  1.0000
  C   C1147     1.0  0.12321  0.47457  0.74125  1.0000
  C   C1148     1.0  0.00707  0.25533  0.61241  1.0000
  C   C1149     1.0  0.12621  0.24869  0.63805  1.0000
  H   H1391     1.0  0.08764  0.39751  0.77777  1.0000
  C   C1150     1.0  0.10713  0.46758  0.76983  1.0000
  C   C1151     1.0  0.06923  0.42223  0.77378  1.0000
  C   C1152     1.0  0.11773  0.29370  0.65663  1.0000
  C   C1153     1.0  0.13485  0.30909  0.67135  1.0000
  C   C1154     1.0  0.12059  0.32022  0.65678  1.0000
  C   C1155     1.0  0.12991  0.32030  0.67086  1.0000
  N   N73       1.0  0.09546  0.47202  0.76824  1.0000
  H   H1392     1.0  0.07126  0.42437  0.76457  1.0000
  H   H1393     1.0  0.06792  0.39532  0.77755  1.0000
  H   H1394     1.0  0.07535  0.28195  0.59290  1.0000
  H   H1395     1.0  0.10940  0.29732  0.66133  1.0000
  H   H1396     1.0  0.05604  0.25964  0.63134  1.0000
  H   H1397     1.0  0.11958  0.28458  0.58573  1.0000
  H   H1398     1.0  0.00876  0.36873  0.74344  1.0000
  H   H1399     1.0  0.11477  0.33587  0.76922  1.0000
  N   N74       1.0  0.12364  0.30258  0.64971  1.0000
  C   C1156     1.0  0.08912  0.28888  0.59254  1.0000
  C   C1157     1.0  0.09261  0.48430  0.76677  1.0000
  C   C1158     1.0  0.07138  0.26494  0.62893  1.0000
  H   H1400     1.0  0.08695  0.40756  0.76494  1.0000
  H   H1401     1.0  0.03289  0.25315  0.68857  1.0000
  H   H1402     1.0  0.08820  0.36904  0.77690  1.0000
  H   H1403     1.0  0.14128  0.25579  0.61107  1.0000
  H   H1404     1.0  0.07486  0.41717  0.73252  1.0000
  H   H1405     1.0  0.11863  0.33446  0.66363  1.0000
  H   H1406     1.0  0.06145  0.39286  0.73957  1.0000
  C   C1159     1.0  0.10475  0.24375  0.60753  1.0000
  H   H1407     1.0  0.10555  0.25617  0.65958  1.0000
  H   H1408     1.0  0.13964  0.29086  0.64862  1.0000
  H   H1409     1.0  0.08740  0.36913  0.75707  1.0000
  N   N75       1.0  0.07547  0.40062  0.73097  1.0000
  C   C1160     1.0  0.07835  0.39469  0.72182  1.0000
  C   C1161     1.0  0.06349  0.40120  0.73629  1.0000
  C   C1162     1.0  0.07689  0.41223  0.72605  1.0000
  C   C1163     1.0  0.08244  0.39450  0.73920  1.0000
  C   C1164     1.0  0.09031  0.39910  0.74153  1.0000
  C   C1165     1.0  0.08160  0.38349  0.74505  1.0000
  C   C1166     1.0  0.09692  0.39303  0.74918  1.0000
  C   C1167     1.0  0.08822  0.37751  0.75272  1.0000
  C   C1168     1.0  0.09592  0.38225  0.75473  1.0000
  H   H1410     1.0  0.07743  0.38593  0.72478  1.0000
  H   H1411     1.0  0.07310  0.39883  0.71558  1.0000
  S   S322      1.0  0.03508  0.42039  0.77412  1.0000
  H   H1412     1.0  0.07357  0.42692  0.77679  1.0000
  C   C1169     1.0  0.00278  0.35974  0.76753  1.0000
  H   H1413     1.0  0.06012  0.42544  0.77655  1.0000
  C   C1170     1.0  0.11964  0.48585  0.74179  1.0000
  C   C1171     1.0  0.08319  0.34689  0.76951  1.0000
  H   H1414     1.0  0.08563  0.24351  0.63917  1.0000
  Fe  Fe166     1.0  0.02254  0.38396  0.77948  1.0000
  N   N76       1.0  0.07243  0.41013  0.77817  1.0000
  C   C1172     1.0  0.00259  0.37756  0.72839  1.0000
  C   C1173     1.0  0.08691  0.34535  0.77923  1.0000
  H   H1415     1.0  0.14540  0.25461  0.59189  1.0000
  H   H1416     1.0  0.07892  0.47020  0.77732  1.0000
  C   C1174     1.0  0.09842  0.34131  0.77959  1.0000
  C   C1175     1.0  0.13199  0.48342  0.70576  1.0000
  H   H1417     1.0  0.08455  0.24166  0.61238  1.0000
  C   C1176     1.0  0.00048  0.39242  0.75634  1.0000
  H   H1418     1.0  0.01198  0.25272  0.61874  1.0000
  C   C1177     1.0  0.08536  0.24180  0.64814  1.0000
  C   C1178     1.0  0.08779  0.46705  0.77816  1.0000
  C   C1179     1.0  0.00021  0.37179  0.78019  1.0000
  H   H1419     1.0  0.00017  0.41125  0.76279  1.0000
  S   S323      1.0  0.04124  0.24146  0.64325  1.0000
  H   H1420     1.0  0.08689  0.48854  0.75113  1.0000
  S   S324      1.0  0.06481  0.36925  0.78139  1.0000
  H   H1421     1.0  0.00002  0.35682  0.74136  1.0000
  H   H1422     1.0  0.07029  0.23984  0.68806  1.0000
  C   C1180     1.0  0.05916  0.23959  0.60010  1.0000
  C   C1181     1.0  0.10703  0.48818  0.72968  1.0000
  S   S325      1.0  0.07720  0.24084  0.58286  1.0000
  H   H1423     1.0  0.09717  0.48439  0.78194  1.0000
  H   H1424     1.0  0.99816  0.40682  0.73502  1.0000
  H   H1425     1.0  0.04455  0.23879  0.61329  1.0000
  C   C1182     1.0  0.05386  0.40780  0.80716  1.0000
  Fe  Fe167     1.0  0.44819  0.25231  0.88127  1.0000
  S   S326      1.0  0.43484  0.26801  0.88133  1.0000
  Fe  Fe168     1.0  0.21141  0.39063  0.96134  1.0000
  S   S327      1.0  0.22963  0.38644  0.95357  1.0000
  Fe  Fe169     1.0  0.20448  0.39550  0.93906  1.0000
  S   S328      1.0  0.22219  0.39190  0.92963  1.0000
  S   S329      1.0  0.19015  0.40141  0.93003  1.0000
  Fe  Fe170     1.0  0.22463  0.37738  0.94376  1.0000
  S   S330      1.0  0.23501  0.36111  0.93996  1.0000
  Fe  Fe171     1.0  0.22560  0.40131  0.94025  1.0000
  S   S331      1.0  0.23816  0.41209  0.93363  1.0000
  S   S332      1.0  0.20658  0.38010  0.95260  1.0000
  S   S333      1.0  0.20766  0.40635  0.94865  1.0000
  Fe  Fe172     1.0  0.24992  0.46893  0.86800  1.0000
  S   S334      1.0  0.23250  0.46725  0.86883  1.0000
  C   C1183     1.0  0.45464  0.27659  0.90388  1.0000
  Fe  Fe173     1.0  0.25807  0.44391  0.87541  1.0000
  S   S335      1.0  0.24139  0.44015  0.87741  1.0000
  S   S336      1.0  0.27229  0.43030  0.88053  1.0000
  Fe  Fe174     1.0  0.24076  0.45232  0.86124  1.0000
  S   S337      1.0  0.23590  0.44695  0.84813  1.0000
  Fe  Fe175     1.0  0.23456  0.45521  0.88480  1.0000
  S   S338      1.0  0.22076  0.45519  0.89990  1.0000
  S   S339      1.0  0.25813  0.45517  0.85864  1.0000
  S   S340      1.0  0.25134  0.45779  0.88453  1.0000
  Fe  Fe176     1.0  0.36465  0.27881  0.89294  1.0000
  S   S341      1.0  0.37277  0.28991  0.87799  1.0000
  S   S342      1.0  0.36751  0.27835  0.90946  1.0000
  Fe  Fe177     1.0  0.35506  0.26895  0.87964  1.0000
  S   S343      1.0  0.36236  0.27928  0.86350  1.0000
  S   S344      1.0  0.34374  0.25771  0.88081  1.0000
  Fe  Fe178     1.0  0.37771  0.27493  0.87053  1.0000
  S   S345      1.0  0.39475  0.26814  0.86107  1.0000
  Fe  Fe179     1.0  0.35654  0.29329  0.87259  1.0000
  S   S346      1.0  0.34887  0.31083  0.86462  1.0000
  S   S347      1.0  0.37082  0.26346  0.88596  1.0000
  S   S348      1.0  0.34801  0.28329  0.88826  1.0000
  Fe  Fe180     1.0  0.28210  0.36426  0.89388  1.0000
  S   S349      1.0  0.29631  0.36261  0.87915  1.0000
  S   S350      1.0  0.28281  0.36614  0.91047  1.0000
  Fe  Fe181     1.0  0.26484  0.36277  0.88223  1.0000
  S   S351      1.0  0.27748  0.36051  0.86656  1.0000
  S   S352      1.0  0.24620  0.36473  0.88625  1.0000
  Fe  Fe182     1.0  0.28883  0.34912  0.87773  1.0000
  S   S353      1.0  0.29706  0.33097  0.87836  1.0000
  Fe  Fe183     1.0  0.28379  0.37413  0.86939  1.0000
  S   S354      1.0  0.28521  0.38995  0.85661  1.0000
  S   S355      1.0  0.27540  0.35019  0.89313  1.0000
  S   S356      1.0  0.27041  0.37698  0.88431  1.0000
  Fe  Fe184     1.0  0.18590  0.39284  0.87365  1.0000
  S   S357      1.0  0.20076  0.40062  0.86688  1.0000
  S   S358      1.0  0.18094  0.38459  0.89173  1.0000
  Fe  Fe185     1.0  0.17933  0.39835  0.85097  1.0000
  S   S359      1.0  0.19389  0.40681  0.84247  1.0000
  S   S360      1.0  0.16552  0.39946  0.84188  1.0000
  Fe  Fe186     1.0  0.20383  0.39234  0.85275  1.0000
  S   S361      1.0  0.22151  0.38386  0.84632  1.0000
  Fe  Fe187     1.0  0.18974  0.41436  0.85739  1.0000
  S   S362      1.0  0.18996  0.43154  0.85865  1.0000
  S   S363      1.0  0.18978  0.38328  0.86017  1.0000
  S   S364      1.0  0.17438  0.40722  0.86515  1.0000
  Fe  Fe188     1.0  0.13630  0.37376  0.80786  1.0000
  H   H1426     1.0  0.11304  0.40713  0.78933  1.0000
  S   S365      1.0  0.14706  0.36936  0.82099  1.0000
  Fe  Fe189     1.0  0.11305  0.37893  0.80194  1.0000
  S   S366      1.0  0.09432  0.38030  0.80818  1.0000
  C   C1184     1.0  0.29782  0.31196  0.86088  1.0000
  H   H1427     1.0  0.20762  0.37826  0.91332  1.0000
  S   S367      1.0  0.12569  0.36301  0.80577  1.0000
  S   S368      1.0  0.12289  0.38930  0.80564  1.0000
  H   H1428     1.0  0.32452  0.27078  0.86271  1.0000
  H   H1429     1.0  0.32188  0.28178  0.85090  1.0000
  C   C1185     1.0  0.23361  0.48110  0.89381  1.0000
  C   C1186     1.0  0.30323  0.32042  0.85443  1.0000
  C   C1187     1.0  0.32114  0.30754  0.85451  1.0000
  H   H1430     1.0  0.34435  0.31746  0.88834  1.0000
  C   C1188     1.0  0.15894  0.39778  0.79348  1.0000
  C   C1189     1.0  0.31484  0.31819  0.85117  1.0000
  H   H1431     1.0  0.34718  0.30091  0.90349  1.0000
  H   H1432     1.0  0.33711  0.29209  0.86565  1.0000
  H   H1433     1.0  0.33012  0.30658  0.85200  1.0000
  C   C1190     1.0  0.33787  0.31655  0.89585  1.0000
  C   C1191     1.0  0.16068  0.39086  0.83607  1.0000
  C   C1192     1.0  0.15250  0.39587  0.82964  1.0000
  C   C1193     1.0  0.14836  0.38950  0.82486  1.0000
  C   C1194     1.0  0.15228  0.37795  0.82647  1.0000
  C   C1195     1.0  0.16049  0.37294  0.83287  1.0000
  C   C1196     1.0  0.16470  0.37933  0.83759  1.0000
  H   H1434     1.0  0.14929  0.40477  0.82836  1.0000
  H   H1435     1.0  0.14206  0.39352  0.81998  1.0000
  H   H1436     1.0  0.16358  0.36403  0.83424  1.0000
  H   H1437     1.0  0.17096  0.37529  0.84249  1.0000
  C   C1197     1.0  0.23960  0.36949  0.87498  1.0000
  C   C1198     1.0  0.22798  0.37317  0.87702  1.0000
  C   C1199     1.0  0.22241  0.37706  0.86826  1.0000
  C   C1200     1.0  0.22845  0.37778  0.85733  1.0000
  C   C1201     1.0  0.24010  0.37398  0.85523  1.0000
  C   C1202     1.0  0.24567  0.36975  0.86408  1.0000
  H   H1438     1.0  0.22325  0.37300  0.88541  1.0000
  H   H1439     1.0  0.21340  0.37937  0.87002  1.0000
  H   H1440     1.0  0.24481  0.37438  0.84679  1.0000
  H   H1441     1.0  0.25464  0.36678  0.86244  1.0000
  C   C1203     1.0  0.33469  0.31681  0.86943  1.0000
  C   C1204     1.0  0.33032  0.32796  0.86489  1.0000
  C   C1205     1.0  0.31884  0.33264  0.86799  1.0000
  C   C1206     1.0  0.31168  0.32607  0.87543  1.0000
  C   C1207     1.0  0.31611  0.31505  0.88022  1.0000
  C   C1208     1.0  0.32761  0.31051  0.87737  1.0000
  H   H1442     1.0  0.33578  0.33292  0.85879  1.0000
  H   H1443     1.0  0.31548  0.34115  0.86425  1.0000
  H   H1444     1.0  0.31061  0.30998  0.88606  1.0000
  H   H1445     1.0  0.33098  0.30208  0.88118  1.0000
  H   H1446     1.0  0.18088  0.41585  0.81942  1.0000
  H   H1447     1.0  0.37409  0.24673  0.94005  1.0000
  H   H1448     1.0  0.26296  0.39524  0.95555  1.0000
  C   C1209     1.0  0.22332  0.44217  0.85158  1.0000
  C   C1210     1.0  0.21538  0.44355  0.86135  1.0000
  C   C1211     1.0  0.20524  0.44006  0.86360  1.0000
  C   C1212     1.0  0.20317  0.43478  0.85633  1.0000
  C   C1213     1.0  0.21131  0.43301  0.84679  1.0000
  C   C1214     1.0  0.22122  0.43691  0.84432  1.0000
  H   H1449     1.0  0.21688  0.44764  0.86699  1.0000
  H   H1450     1.0  0.19893  0.44156  0.87093  1.0000
  H   H1451     1.0  0.20970  0.42915  0.84104  1.0000
  H   H1452     1.0  0.22717  0.43603  0.83662  1.0000
  C   C1215     1.0  0.27586  0.41922  0.87373  1.0000
  C   C1216     1.0  0.28118  0.40869  0.87881  1.0000
  C   C1217     1.0  0.28396  0.39968  0.87360  1.0000
  C   C1218     1.0  0.28182  0.40125  0.86311  1.0000
  C   C1219     1.0  0.27671  0.41185  0.85792  1.0000
  C   C1220     1.0  0.27352  0.42078  0.86332  1.0000
  H   H1453     1.0  0.28304  0.40745  0.88685  1.0000
  H   H1454     1.0  0.28801  0.39156  0.87762  1.0000
  H   H1455     1.0  0.27517  0.41318  0.84975  1.0000
  H   H1456     1.0  0.26949  0.42891  0.85931  1.0000
  C   C1221     1.0  0.24846  0.36246  0.93221  1.0000
  C   C1222     1.0  0.25234  0.37208  0.93090  1.0000
  C   C1223     1.0  0.26310  0.37304  0.92459  1.0000
  C   C1224     1.0  0.26984  0.36452  0.91930  1.0000
  C   C1225     1.0  0.26594  0.35491  0.92062  1.0000
  C   C1226     1.0  0.25531  0.35385  0.92712  1.0000
  H   H1457     1.0  0.24710  0.37878  0.93479  1.0000
  H   H1458     1.0  0.26607  0.38049  0.92356  1.0000
  H   H1459     1.0  0.27116  0.34823  0.91673  1.0000
  H   H1460     1.0  0.25235  0.34640  0.92813  1.0000
  C   C1227     1.0  0.18929  0.39566  0.91929  1.0000
  C   C1228     1.0  0.19353  0.40015  0.90812  1.0000
  C   C1229     1.0  0.19115  0.39679  0.89956  1.0000
  C   C1230     1.0  0.18445  0.38897  0.90211  1.0000
  C   C1231     1.0  0.18041  0.38436  0.91326  1.0000
  C   C1232     1.0  0.18273  0.38775  0.92178  1.0000
  H   H1461     1.0  0.19828  0.40654  0.90610  1.0000
  H   H1462     1.0  0.19422  0.40049  0.89101  1.0000
  H   H1463     1.0  0.17520  0.37835  0.91535  1.0000
  H   H1464     1.0  0.17911  0.38450  0.93034  1.0000
  C   C1233     1.0  0.23299  0.42442  0.92487  1.0000
  C   C1234     1.0  0.24029  0.43129  0.91839  1.0000
  C   C1235     1.0  0.23647  0.44081  0.91079  1.0000
  C   C1236     1.0  0.22529  0.44362  0.90985  1.0000
  C   C1237     1.0  0.21792  0.43686  0.91649  1.0000
  C   C1238     1.0  0.22182  0.42717  0.92390  1.0000
  H   H1465     1.0  0.24895  0.42913  0.91904  1.0000
  H   H1466     1.0  0.24217  0.44601  0.90574  1.0000
  H   H1467     1.0  0.20930  0.43893  0.91568  1.0000
  H   H1468     1.0  0.21617  0.42181  0.92877  1.0000
  C   C1239     1.0  0.33944  0.30718  0.90433  1.0000
  C   C1240     1.0  0.21388  0.40820  0.97875  1.0000
  H   H1469     1.0  0.22949  0.36985  0.91902  1.0000
  H   H1470     1.0  0.48425  0.27765  0.87019  1.0000
  H   H1471     1.0  0.31903  0.32488  0.84642  1.0000
  C   C1241     1.0  0.42386  0.26816  0.87544  1.0000
  C   C1242     1.0  0.41450  0.27702  0.87569  1.0000
  C   C1243     1.0  0.40548  0.27703  0.87135  1.0000
  C   C1244     1.0  0.40580  0.26818  0.86679  1.0000
  C   C1245     1.0  0.41511  0.25926  0.86667  1.0000
  C   C1246     1.0  0.42416  0.25930  0.87089  1.0000
  H   H1472     1.0  0.41421  0.28386  0.87926  1.0000
  H   H1473     1.0  0.39834  0.28395  0.87146  1.0000
  H   H1474     1.0  0.41529  0.25222  0.86348  1.0000
  H   H1475     1.0  0.43133  0.25242  0.87070  1.0000
  H   H1476     1.0  0.29813  0.31986  0.91569  1.0000
  C   C1247     1.0  0.29916  0.32687  0.90843  1.0000
  H   H1477     1.0  0.28058  0.40104  0.82679  1.0000
  C   C1248     1.0  0.36498  0.26586  0.91842  1.0000
  C   C1249     1.0  0.37078  0.26098  0.92696  1.0000
  C   C1250     1.0  0.48956  0.25690  0.88892  1.0000
  H   H1478     1.0  0.25518  0.41028  0.98127  1.0000
  H   H1479     1.0  0.37655  0.26512  0.92824  1.0000
  C   C1251     1.0  0.26022  0.42455  0.82724  1.0000
  H   H1480     1.0  0.29842  0.32881  0.85225  1.0000
  H   H1481     1.0  0.28878  0.31383  0.86359  1.0000
  H   H1482     1.0  0.48119  0.25542  0.89213  1.0000
  H   H1483     1.0  0.25820  0.43304  0.82261  1.0000
  C   C1252     1.0  0.30651  0.33583  0.91831  1.0000
  H   H1484     1.0  0.31365  0.33920  0.91846  1.0000
  H   H1485     1.0  0.29882  0.34260  0.91924  1.0000
  H   H1486     1.0  0.30524  0.32913  0.92583  1.0000
  S   S369      1.0  0.00537  0.37964  0.78640  1.0000
  C   C1253     1.0  0.42840  0.24083  0.92446  1.0000
  H   H1487     1.0  0.44877  0.28622  0.87236  1.0000
  C   C1254     1.0  0.40184  0.24067  0.89873  1.0000
  C   C1255     1.0  0.42035  0.24767  0.83567  1.0000
  C   C1256     1.0  0.42452  0.25409  0.84044  1.0000
  H   H1488     1.0  0.30282  0.45422  0.86496  1.0000
  C   C1257     1.0  0.21613  0.48769  0.88777  1.0000
  H   H1489     1.0  0.23258  0.47234  0.89681  1.0000
  H   H1490     1.0  0.29646  0.44286  0.87344  1.0000
  H   H1491     1.0  0.42460  0.24958  0.92241  1.0000
  H   H1492     1.0  0.34974  0.24644  0.92267  1.0000
  H   H1493     1.0  0.26680  0.48573  0.89664  1.0000
  H   H1494     1.0  0.08554  0.40461  0.79420  1.0000
  H   H1495     1.0  0.41766  0.25221  0.89388  1.0000
  H   H1496     1.0  0.25750  0.40632  0.94499  1.0000
  C   C1258     1.0  0.24828  0.40136  0.97317  1.0000
  C   C1259     1.0  0.27275  0.40656  0.82956  1.0000
  H   H1497     1.0  0.41919  0.26125  0.84351  1.0000
  C   C1260     1.0  0.05739  0.40924  0.79566  1.0000
  C   C1261     1.0  0.23926  0.41518  0.95950  1.0000
  H   H1498     1.0  0.11515  0.32466  0.78667  1.0000
  H   H1499     1.0  0.18135  0.39251  0.82261  1.0000
  H   H1500     1.0  0.11097  0.32577  0.80082  1.0000
  C   C1262     1.0  0.28071  0.45475  0.88692  1.0000
  H   H1501     1.0  0.25378  0.42244  0.96532  1.0000
  C   C1263     1.0  0.35576  0.25034  0.92379  1.0000
  H   H1502     1.0  0.46136  0.27860  0.91669  1.0000
  H   H1503     1.0  0.27861  0.45132  0.86836  1.0000
  C   C1264     1.0  0.24274  0.39245  0.97565  1.0000
  C   C1265     1.0  0.07661  0.40572  0.79737  1.0000
  H   H1504     1.0  0.45665  0.27211  0.87260  1.0000
  H   H1505     1.0  0.38915  0.24387  0.91823  1.0000
  Fe  Fe190     1.0  0.13293  0.36705  0.78741  1.0000
  H   H1506     1.0  0.47445  0.29756  0.86776  1.0000
  H   H1507     1.0  0.29702  0.46434  0.88954  1.0000
  H   H1508     1.0  0.23889  0.39940  0.84586  1.0000
  H   H1509     1.0  0.39632  0.26508  0.82889  1.0000
  C   C1266     1.0  0.36939  0.25057  0.93365  1.0000
  H   H1510     1.0  0.23817  0.48195  0.88501  1.0000
  C   C1267     1.0  0.49375  0.26267  0.89423  1.0000
  H   H1511     1.0  0.44782  0.27313  0.90965  1.0000
  H   H1512     1.0  0.40391  0.26759  0.83720  1.0000
  C   C1268     1.0  0.06165  0.40536  0.81375  1.0000
  N   N77       1.0  0.10270  0.33948  0.78973  1.0000
  S   S370      1.0  0.46080  0.24820  0.89190  1.0000
  H   H1513     1.0  0.24024  0.42065  0.95106  1.0000
  S   S371      1.0  0.20714  0.38907  0.97997  1.0000
  S   S372      1.0  0.03311  0.38890  0.78829  1.0000
  H   H1514     1.0  0.27216  0.46554  0.86893  1.0000
  H   H1515     1.0  0.04503  0.40860  0.81095  1.0000
  N   N78       1.0  0.46625  0.28365  0.87257  1.0000
  C   C1269     1.0  0.21650  0.48604  0.90669  1.0000
  S   S373      1.0  0.25414  0.48604  0.86342  1.0000
  H   H1516     1.0  0.09526  0.42051  0.78693  1.0000
  C   C1270     1.0  0.29436  0.47133  0.88320  1.0000
  H   H1517     1.0  0.26802  0.39429  0.84357  1.0000
  C   C1271     1.0  0.27020  0.41744  0.82356  1.0000
  C   C1272     1.0  0.17266  0.39172  0.80498  1.0000
  H   H1518     1.0  0.15534  0.41517  0.78612  1.0000
  C   C1273     1.0  0.35750  0.26053  0.91680  1.0000
  H   H1519     1.0  0.27298  0.46089  0.88946  1.0000
  H   H1520     1.0  0.28207  0.47977  0.86076  1.0000
  C   C1274     1.0  0.06778  0.37716  0.79818  1.0000
  N   N79       1.0  0.24739  0.40630  0.85390  1.0000
  H   H1521     1.0  0.05885  0.37807  0.80139  1.0000
  C   C1275     1.0  0.11134  0.34607  0.78747  1.0000
  H   H1522     1.0  0.09992  0.37342  0.78711  1.0000
  S   S374      1.0  0.11993  0.38240  0.78364  1.0000
  H   H1523     1.0  0.29953  0.48257  0.88969  1.0000
  H   H1524     1.0  0.48860  0.26547  0.90157  1.0000
  H   H1525     1.0  0.13306  0.37137  0.84738  1.0000
  N   N80       1.0  0.24376  0.40158  0.89806  1.0000
  C   C1276     1.0  0.25345  0.40404  0.88906  1.0000
  C   C1277     1.0  0.24285  0.40752  0.90684  1.0000
  C   C1278     1.0  0.24608  0.38946  0.90307  1.0000
  C   C1279     1.0  0.23356  0.40524  0.89341  1.0000
  C   C1280     1.0  0.22971  0.39792  0.88941  1.0000
  C   C1281     1.0  0.22766  0.41653  0.89190  1.0000
  C   C1282     1.0  0.22034  0.40165  0.88460  1.0000
  C   C1283     1.0  0.21836  0.42017  0.88700  1.0000
  C   C1284     1.0  0.21469  0.41275  0.88338  1.0000
  H   H1526     1.0  0.25240  0.41312  0.88530  1.0000
  H   H1527     1.0  0.26135  0.40142  0.89216  1.0000
  H   H1528     1.0  0.25468  0.39965  0.88232  1.0000
  H   H1529     1.0  0.23471  0.40748  0.91290  1.0000
  H   H1530     1.0  0.24364  0.41632  0.90346  1.0000
  H   H1531     1.0  0.24958  0.40374  0.91161  1.0000
  H   H1532     1.0  0.24840  0.38422  0.89685  1.0000
  H   H1533     1.0  0.25335  0.38695  0.90714  1.0000
  H   H1534     1.0  0.23876  0.38708  0.90946  1.0000
  H   H1535     1.0  0.23383  0.38929  0.88981  1.0000
  H   H1536     1.0  0.23011  0.42273  0.89446  1.0000
  H   H1537     1.0  0.21744  0.39590  0.88178  1.0000
  H   H1538     1.0  0.21395  0.42883  0.88602  1.0000
  H   H1539     1.0  0.20743  0.41564  0.87963  1.0000
  N   N81       1.0  0.21812  0.36182  0.91586  1.0000
  C   C1285     1.0  0.21924  0.35206  0.92520  1.0000
  C   C1286     1.0  0.21644  0.35836  0.90644  1.0000
  C   C1287     1.0  0.22494  0.35052  0.90116  1.0000
  C   C1288     1.0  0.20651  0.36259  0.90220  1.0000
  C   C1289     1.0  0.22375  0.34743  0.89197  1.0000
  C   C1290     1.0  0.20540  0.35944  0.89303  1.0000
  C   C1291     1.0  0.21402  0.35192  0.88788  1.0000
  H   H1540     1.0  0.22697  0.34568  0.92325  1.0000
  H   H1541     1.0  0.21968  0.35445  0.93275  1.0000
  H   H1542     1.0  0.21195  0.34805  0.92744  1.0000
  H   H1543     1.0  0.23619  0.35979  0.91085  1.0000
  H   H1544     1.0  0.19956  0.36853  0.90567  1.0000
  H   H1545     1.0  0.23058  0.34180  0.88780  1.0000
  H   H1546     1.0  0.19787  0.36307  0.88976  1.0000
  H   H1547     1.0  0.21325  0.34976  0.88057  1.0000
  N   N82       1.0  0.15015  0.38521  0.87420  1.0000
  C   C1292     1.0  0.14549  0.38077  0.88602  1.0000
  C   C1293     1.0  0.16242  0.38086  0.87187  1.0000
  C   C1294     1.0  0.14819  0.39749  0.87257  1.0000
  C   C1295     1.0  0.14509  0.38161  0.86700  1.0000
  C   C1296     1.0  0.13897  0.38924  0.85926  1.0000
  C   C1297     1.0  0.14642  0.37011  0.86747  1.0000
  C   C1298     1.0  0.13454  0.38551  0.85244  1.0000
  C   C1299     1.0  0.14205  0.36649  0.86052  1.0000
  C   C1300     1.0  0.13614  0.37418  0.85301  1.0000
  H   H1548     1.0  0.14745  0.37153  0.88820  1.0000
  H   H1549     1.0  0.14901  0.38352  0.89163  1.0000
  H   H1550     1.0  0.13622  0.38362  0.88804  1.0000
  H   H1551     1.0  0.16610  0.38349  0.86290  1.0000
  H   H1552     1.0  0.16477  0.37164  0.87408  1.0000
  H   H1553     1.0  0.16665  0.38391  0.87665  1.0000
  H   H1554     1.0  0.13911  0.40136  0.87445  1.0000
  H   H1555     1.0  0.15212  0.39991  0.87808  1.0000
  H   H1556     1.0  0.15193  0.40135  0.86393  1.0000
  H   H1557     1.0  0.13778  0.39814  0.85803  1.0000
  H   H1558     1.0  0.15105  0.36383  0.87307  1.0000
  H   H1559     1.0  0.13018  0.39145  0.84637  1.0000
  H   H1560     1.0  0.14342  0.35769  0.86078  1.0000
  C   C1301     1.0  0.29599  0.48168  0.88328  1.0000
  H   H1561     1.0  0.23276  0.34702  0.90385  1.0000
  H   H1562     1.0  0.21037  0.37321  0.92692  1.0000
  S   S375      1.0  0.46096  0.24878  0.86596  1.0000
  H   H1563     1.0  0.21848  0.42336  0.97829  1.0000
  H   H1564     1.0  0.30026  0.34822  0.90025  1.0000
  H   H1565     1.0  0.29102  0.33304  0.90900  1.0000
  H   H1566     1.0  0.19557  0.40384  0.79390  1.0000
  H   H1567     1.0  0.20077  0.36774  0.92322  1.0000
  H   H1568     1.0  0.28569  0.45257  0.89338  1.0000
  C   C1302     1.0  0.30824  0.34196  0.89873  1.0000
  H   H1569     1.0  0.31511  0.34621  0.89779  1.0000
  H   H1570     1.0  0.32432  0.27577  0.88057  1.0000
  H   H1571     1.0  0.39513  0.26637  0.90557  1.0000
  C   C1303     1.0  0.22846  0.36627  0.91248  1.0000
  N   N83       1.0  0.30852  0.33195  0.90790  1.0000
  C   C1304     1.0  0.20879  0.37063  0.91996  1.0000
  C   C1305     1.0  0.25203  0.39534  0.86050  1.0000
  H   H1572     1.0  0.31472  0.31234  0.92241  1.0000
  H   H1573     1.0  0.30878  0.33988  0.89071  1.0000
  H   H1574     1.0  0.30052  0.32360  0.90086  1.0000
  H   H1575     1.0  0.22834  0.37291  0.90481  1.0000
  C   C1306     1.0  0.08613  0.37782  0.80028  1.0000
  H   H1576     1.0  0.24945  0.39650  0.95286  1.0000
  C   C1307     1.0  0.31920  0.32358  0.90652  1.0000
  H   H1577     1.0  0.33911  0.27783  0.86517  1.0000
  C   C1308     1.0  0.33457  0.28640  0.86205  1.0000
  C   C1309     1.0  0.32104  0.31384  0.91494  1.0000
  C   C1310     1.0  0.31905  0.28392  0.87734  1.0000
  H   H1578     1.0  0.32003  0.29011  0.88142  1.0000
  H   H1579     1.0  0.29942  0.29498  0.86919  1.0000
  C   C1311     1.0  0.31589  0.29873  0.86124  1.0000
  N   N84       1.0  0.40843  0.25061  0.83487  1.0000
  C   C1312     1.0  0.46225  0.27967  0.90785  1.0000
  C   C1313     1.0  0.32790  0.32464  0.89685  1.0000
  H   H1580     1.0  0.32719  0.33154  0.88983  1.0000
  H   H1581     1.0  0.47718  0.28612  0.90356  1.0000
  N   N85       1.0  0.32226  0.28737  0.86508  1.0000
  C   C1314     1.0  0.31971  0.27942  0.86011  1.0000
  H   H1582     1.0  0.33774  0.28823  0.85292  1.0000
  H   H1583     1.0  0.31071  0.27908  0.86261  1.0000
  C   C1315     1.0  0.46470  0.28225  0.88469  1.0000
  C   C1316     1.0  0.33103  0.30581  0.91384  1.0000
  C   C1317     1.0  0.30401  0.30124  0.86417  1.0000
  H   H1584     1.0  0.33230  0.29844  0.92037  1.0000
  C   C1318     1.0  0.41383  0.25000  0.90283  1.0000
  H   H1585     1.0  0.23912  0.48239  0.89855  1.0000
  H   H1586     1.0  0.47963  0.28813  0.88371  1.0000
  C   C1319     1.0  0.08432  0.37212  0.78438  1.0000
  C   C1320     1.0  0.23704  0.40545  0.85127  1.0000
  H   H1587     1.0  0.25989  0.47729  0.88521  1.0000
  H   H1588     1.0  0.47838  0.27690  0.85928  1.0000
  C   C1321     1.0  0.26057  0.48587  0.88252  1.0000
  C   C1322     1.0  0.07269  0.37345  0.78832  1.0000
  N   N86       1.0  0.40209  0.24911  0.90454  1.0000
  C   C1323     1.0  0.26539  0.40277  0.83930  1.0000
  C   C1324     1.0  0.40785  0.24402  0.97390  1.0000
  N   N87       1.0  0.25015  0.40836  0.96183  1.0000
  C   C1325     1.0  0.25527  0.40127  0.95352  1.0000
  H   H1589     1.0  0.45827  0.28241  0.86017  1.0000
  H   H1590     1.0  0.07067  0.38160  0.81204  1.0000
  H   H1591     1.0  0.25377  0.38860  0.85597  1.0000
  H   H1592     1.0  0.09739  0.34135  0.80676  1.0000
  S   S376      1.0  0.49100  0.24653  0.87201  1.0000
  H   H1593     1.0  0.19315  0.39861  0.81938  1.0000
  H   H1594     1.0  0.27599  0.42037  0.81608  1.0000
  H   H1595     1.0  0.21217  0.41093  0.97052  1.0000
  H   H1596     1.0  0.41075  0.26597  0.82326  1.0000
  H   H1597     1.0  0.27815  0.44697  0.88728  1.0000
  C   C1326     1.0  0.47239  0.28514  0.88906  1.0000
  H   H1598     1.0  0.44959  0.27525  0.89004  1.0000
  C   C1327     1.0  0.06892  0.40804  0.79041  1.0000
  N   N88       1.0  0.28699  0.45915  0.87570  1.0000
  C   C1328     1.0  0.09389  0.34267  0.79932  1.0000
  H   H1599     1.0  0.38658  0.26008  0.90130  1.0000
  H   H1600     1.0  0.43843  0.25598  0.84581  1.0000
  H   H1601     1.0  0.28492  0.46205  0.85891  1.0000
  H   H1602     1.0  0.47639  0.26730  0.87233  1.0000
  C   C1329     1.0  0.36188  0.24523  0.93208  1.0000
  C   C1330     1.0  0.07450  0.37913  0.80422  1.0000
  H   H1603     1.0  0.05096  0.41144  0.79092  1.0000
  C   C1331     1.0  0.28914  0.47010  0.87526  1.0000
  H   H1604     1.0  0.24522  0.42668  0.83944  1.0000
  H   H1605     1.0  0.08980  0.35164  0.79748  1.0000
  Fe  Fe191     1.0  0.47337  0.24320  0.87713  1.0000
  H   H1606     1.0  0.08732  0.33771  0.80179  1.0000
  C   C1332     1.0  0.25526  0.40991  0.84345  1.0000
  H   H1607     1.0  0.25933  0.42078  0.95146  1.0000
  H   H1608     1.0  0.36667  0.24524  0.87363  1.0000
  H   H1609     1.0  0.07908  0.40225  0.81400  1.0000
  C   C1333     1.0  0.25283  0.42084  0.83697  1.0000
  C   C1334     1.0  0.43556  0.25113  0.84183  1.0000
  H   H1610     1.0  0.41446  0.25649  0.90677  1.0000
  H   H1611     1.0  0.39904  0.26406  0.89193  1.0000
  C   C1335     1.0  0.47109  0.28396  0.90045  1.0000
  H   H1612     1.0  0.25996  0.39541  0.86259  1.0000
  C   C1336     1.0  0.40477  0.26281  0.83084  1.0000
  C   C1337     1.0  0.29779  0.45118  0.87329  1.0000
  H   H1613     1.0  0.19701  0.41218  0.80247  1.0000
  H   H1614     1.0  0.10825  0.35493  0.78367  1.0000
  H   H1615     1.0  0.19284  0.38944  0.81122  1.0000
  C   C1338     1.0  0.17420  0.40277  0.80302  1.0000
  H   H1616     1.0  0.35292  0.26434  0.91026  1.0000
  H   H1617     1.0  0.21416  0.47925  0.89025  1.0000
  C   C1339     1.0  0.18756  0.39612  0.81558  1.0000
  C   C1340     1.0  0.17576  0.41441  0.81436  1.0000
  H   H1618     1.0  0.17297  0.42258  0.80898  1.0000
  H   H1619     1.0  0.11400  0.34589  0.79510  1.0000
  H   H1620     1.0  0.16813  0.41199  0.82019  1.0000
  C   C1341     1.0  0.19088  0.41007  0.79904  1.0000
  N   N89       1.0  0.18197  0.40569  0.80797  1.0000
  S   S377      1.0  0.14483  0.37598  0.78980  1.0000
  H   H1621     1.0  0.17692  0.38480  0.81037  1.0000
  H   H1622     1.0  0.18747  0.41778  0.79338  1.0000
  H   H1623     1.0  0.39669  0.25243  0.92107  1.0000
  C   C1342     1.0  0.39797  0.24355  0.88871  1.0000
  C   C1343     1.0  0.16782  0.41115  0.79598  1.0000
  H   H1624     1.0  0.45941  0.30123  0.87040  1.0000
  H   H1625     1.0  0.26585  0.41141  0.96226  1.0000
  H   H1626     1.0  0.39495  0.25207  0.88481  1.0000
  H   H1627     1.0  0.16389  0.38090  0.80204  1.0000
  C   C1344     1.0  0.45578  0.27786  0.89249  1.0000
  H   H1628     1.0  0.05892  0.40412  0.82268  1.0000
  C   C1345     1.0  0.16516  0.38933  0.80022  1.0000
  H   H1629     1.0  0.23938  0.42263  0.85747  1.0000
  H   H1630     1.0  0.24608  0.39287  0.86840  1.0000
  C   C1346     1.0  0.47678  0.27612  0.86839  1.0000
  C   C1347     1.0  0.46692  0.29531  0.86693  1.0000
  H   H1631     1.0  0.30296  0.44984  0.87945  1.0000
  C   C1348     1.0  0.07298  0.40440  0.80886  1.0000
  H   H1632     1.0  0.23917  0.41167  0.86923  1.0000
  C   C1349     1.0  0.25764  0.41605  0.96020  1.0000
  C   C1350     1.0  0.39542  0.26034  0.90061  1.0000
  H   H1633     1.0  0.23089  0.40261  0.85888  1.0000
  C   C1351     1.0  0.28038  0.45959  0.86762  1.0000
  H   H1634     1.0  0.23272  0.41357  0.84688  1.0000
  C   C1352     1.0  0.24442  0.41453  0.86103  1.0000
  H   H1635     1.0  0.25205  0.41620  0.86235  1.0000
  H   H1636     1.0  0.31026  0.28292  0.88031  1.0000
  H   H1637     1.0  0.46741  0.29680  0.85786  1.0000
  C   C1353     1.0  0.09099  0.37447  0.79023  1.0000
  C   C1354     1.0  0.49615  0.25323  0.87940  1.0000
  H   H1638     1.0  0.08057  0.34755  0.78628  1.0000
  C   C1355     1.0  0.39755  0.24579  0.91660  1.0000
  H   H1639     1.0  0.21493  0.47746  0.90866  1.0000
  H   H1640     1.0  0.22135  0.48603  0.91272  1.0000
  H   H1641     1.0  0.23519  0.42064  0.96552  1.0000
  H   H1642     1.0  0.08846  0.46894  0.78586  1.0000
  C   C1356     1.0  0.45707  0.28102  0.86932  1.0000
  H   H1643     1.0  0.16853  0.41972  0.79410  1.0000
  C   C1357     1.0  0.28618  0.47977  0.86709  1.0000
  H   H1644     1.0  0.23945  0.39083  0.96949  1.0000
  C   C1358     1.0  0.16029  0.40866  0.79134  1.0000
  H   H1645     1.0  0.44286  0.24200  0.91113  1.0000
  H   H1646     1.0  0.23338  0.40996  0.95994  1.0000
  H   H1647     1.0  0.15297  0.39593  0.79001  1.0000
  H   H1648     1.0  0.10170  0.32225  0.79452  1.0000
  C   C1359     1.0  0.10784  0.32753  0.79308  1.0000
  Fe  Fe192     1.0  0.13105  0.39101  0.78762  1.0000
  H   H1649     1.0  0.49730  0.24593  0.91213  1.0000
  C   C1360     1.0  0.34924  0.24451  0.87755  1.0000
  H   H1650     1.0  0.40376  0.25003  0.85240  1.0000
  H   H1651     1.0  0.41913  0.24203  0.90634  1.0000
  H   H1652     1.0  0.39238  0.25083  0.84631  1.0000
  C   C1361     1.0  0.40146  0.24730  0.84601  1.0000
  C   C1362     1.0  0.44280  0.24175  0.83847  1.0000
  H   H1653     1.0  0.41507  0.24530  0.96724  1.0000
  H   H1654     1.0  0.39735  0.24782  0.82626  1.0000
  H   H1655     1.0  0.41173  0.24661  0.81889  1.0000
  C   C1363     1.0  0.40618  0.24499  0.82724  1.0000
  C   C1364     1.0  0.36076  0.24028  0.87426  1.0000
  H   H1656     1.0  0.33277  0.24125  0.88092  1.0000
  C   C1365     1.0  0.39972  0.23962  0.97224  1.0000
  H   H1657     1.0  0.22073  0.48851  0.87898  1.0000
  H   H1658     1.0  0.45125  0.23926  0.83989  1.0000
  C   C1366     1.0  0.11314  0.41461  0.78292  1.0000
  S   S378      1.0  0.40932  0.23896  0.94016  1.0000
  Fe  Fe193     1.0  0.25511  0.55751  0.09459  1.0000
  S   S379      1.0  0.27327  0.55250  0.08702  1.0000
  S   S380      1.0  0.24178  0.56180  0.08495  1.0000
  Fe  Fe194     1.0  0.25958  0.55507  0.11713  1.0000
  S   S381      1.0  0.27815  0.54958  0.11143  1.0000
  S   S382      1.0  0.25178  0.55757  0.13437  1.0000
  Fe  Fe195     1.0  0.27582  0.56361  0.09663  1.0000
  S   S383      1.0  0.28507  0.57759  0.08815  1.0000
  Fe  Fe196     1.0  0.27347  0.53906  0.10250  1.0000
  S   S384      1.0  0.28164  0.52096  0.10176  1.0000
  S   S385      1.0  0.25752  0.56959  0.10295  1.0000
  S   S386      1.0  0.25504  0.54362  0.10951  1.0000
  Fe  Fe197     1.0  0.24970  0.60458  0.03650  1.0000
  S   S387      1.0  0.23217  0.60745  0.03447  1.0000
  S   S388      1.0  0.26106  0.58775  0.03743  1.0000
  Fe  Fe198     1.0  0.24773  0.62828  0.03784  1.0000
  S   S389      1.0  0.22985  0.63340  0.03562  1.0000
  S   S390      1.0  0.25789  0.64011  0.03842  1.0000
  Fe  Fe199     1.0  0.22792  0.61724  0.04777  1.0000
  S   S391      1.0  0.21415  0.61319  0.06256  1.0000
  Fe  Fe200     1.0  0.23565  0.62309  0.02250  1.0000
  S   S392      1.0  0.23185  0.62809  0.00521  1.0000
  S   S393      1.0  0.24533  0.61293  0.05078  1.0000
  S   S394      1.0  0.25369  0.61949  0.02366  1.0000
  H   H1659     1.0  0.20376  0.63387  0.00870  1.0000
  C   C1367     1.0  0.38462  0.72945  0.11572  1.0000
  Fe  Fe201     1.0  0.34622  0.70966  0.13833  1.0000
  S   S395      1.0  0.35499  0.69213  0.13643  1.0000
  S   S396      1.0  0.34419  0.71629  0.15374  1.0000
  Fe  Fe202     1.0  0.34157  0.71598  0.11532  1.0000
  S   S397      1.0  0.35042  0.69939  0.11128  1.0000
  S   S398      1.0  0.33470  0.73048  0.10290  1.0000
  Fe  Fe203     1.0  0.34108  0.69240  0.12820  1.0000
  S   S399      1.0  0.33133  0.67844  0.13173  1.0000
  Fe  Fe204     1.0  0.36344  0.70057  0.11960  1.0000
  S   S400      1.0  0.38174  0.69847  0.11074  1.0000
  S   S401      1.0  0.33158  0.70920  0.13184  1.0000
  S   S402      1.0  0.35531  0.71784  0.12201  1.0000
  Fe  Fe205     1.0  0.29110  0.62642  0.10729  1.0000
  S   S403      1.0  0.27611  0.63355  0.09964  1.0000
  S   S404      1.0  0.29475  0.60803  0.11476  1.0000
  Fe  Fe206     1.0  0.29817  0.64883  0.10239  1.0000
  S   S405      1.0  0.28384  0.65749  0.09385  1.0000
  S   S406      1.0  0.31044  0.65949  0.10195  1.0000
  Fe  Fe207     1.0  0.27357  0.64751  0.10808  1.0000
  S   S407      1.0  0.25639  0.65599  0.11572  1.0000
  Fe  Fe208     1.0  0.28761  0.64276  0.08609  1.0000
  S   S408      1.0  0.28877  0.64476  0.06781  1.0000
  S   S409      1.0  0.28750  0.63960  0.11718  1.0000
  S   S410      1.0  0.30297  0.63483  0.09321  1.0000
  Fe  Fe209     1.0  0.20239  0.60425  0.13344  1.0000
  S   S411      1.0  0.18844  0.61752  0.12758  1.0000
  S   S412      1.0  0.20306  0.58663  0.13329  1.0000
  Fe  Fe210     1.0  0.21262  0.62048  0.13851  1.0000
  S   S413      1.0  0.19920  0.63521  0.13352  1.0000
  S   S414      1.0  0.22819  0.62001  0.14389  1.0000
  Fe  Fe211     1.0  0.18725  0.62384  0.14263  1.0000
  S   S415      1.0  0.16912  0.62810  0.15159  1.0000
  Fe  Fe212     1.0  0.20148  0.62755  0.11902  1.0000
  S   S416      1.0  0.20300  0.63831  0.10179  1.0000
  S   S417      1.0  0.20053  0.60982  0.14902  1.0000
  S   S418      1.0  0.21564  0.61360  0.12343  1.0000
  H   H1660     1.0  0.12902  0.65315  0.17077  1.0000
  H   H1661     1.0  0.19064  0.61307  0.99667  1.0000
  Fe  Fe213     1.0  0.45787  0.71671  0.11345  1.0000
  S   S419      1.0  0.47562  0.71169  0.11635  1.0000
  Fe  Fe214     1.0  0.43375  0.71305  0.11857  1.0000
  H   H1662     1.0  0.24391  0.57002  0.98534  1.0000
  S   S420      1.0  0.42052  0.70385  0.13011  1.0000
  Fe  Fe215     1.0  0.44559  0.72072  0.09487  1.0000
  C   C1368     1.0  0.15862  0.64990  0.17547  1.0000
  H   H1663     1.0  0.33218  0.61233  0.12647  1.0000
  S   S421      1.0  0.45001  0.70571  0.10810  1.0000
  S   S422      1.0  0.44204  0.72251  0.12528  1.0000
  H   H1664     1.0  0.20611  0.64632  0.99057  1.0000
  H   H1665     1.0  0.23623  0.63871  0.05421  1.0000
  H   H1666     1.0  0.34281  0.61376  0.11398  1.0000
  H   H1667     1.0  0.45263  0.72919  0.05416  1.0000
  C   C1369     1.0  0.47315  0.72491  0.13117  1.0000
  N   N90       1.0  0.23643  0.64244  0.09499  1.0000
  C   C1370     1.0  0.33838  0.64289  0.11018  1.0000
  H   H1668     1.0  0.14506  0.65320  0.15510  1.0000
  C   C1371     1.0  0.23631  0.63938  0.06241  1.0000
  C   C1372     1.0  0.16219  0.59135  0.17110  1.0000
  H   H1669     1.0  0.26186  0.50837  0.15480  1.0000
  S   S423      1.0  0.49412  0.73437  0.14408  1.0000
  H   H1670     1.0  0.36071  0.72764  0.16849  1.0000
  C   C1373     1.0  0.48048  0.71840  0.12390  1.0000
  C   C1374     1.0  0.27191  0.49499  0.09690  1.0000
  S   S424      1.0  0.45466  0.73110  0.09927  1.0000
  H   H1671     1.0  0.23108  0.62941  0.98278  1.0000
  C   C1375     1.0  0.24851  0.64610  0.12375  1.0000
  C   C1376     1.0  0.23679  0.64904  0.12599  1.0000
  C   C1377     1.0  0.23045  0.64101  0.13195  1.0000
  C   C1378     1.0  0.23585  0.63012  0.13598  1.0000
  C   C1379     1.0  0.24756  0.62724  0.13384  1.0000
  C   C1380     1.0  0.25388  0.63515  0.12754  1.0000
  H   H1672     1.0  0.23260  0.65751  0.12305  1.0000
  H   H1673     1.0  0.22140  0.64329  0.13366  1.0000
  H   H1674     1.0  0.25177  0.61888  0.13707  1.0000
  H   H1675     1.0  0.26293  0.63281  0.12584  1.0000
  S   S425      1.0  0.44808  0.71950  0.07720  1.0000
  C   C1381     1.0  0.16466  0.62444  0.16610  1.0000
  H   H1676     1.0  0.17693  0.57472  0.16278  1.0000
  C   C1382     1.0  0.31579  0.66490  0.11051  1.0000
  C   C1383     1.0  0.32283  0.67253  0.10540  1.0000
  C   C1384     1.0  0.32752  0.67686  0.11171  1.0000
  C   C1385     1.0  0.32531  0.67358  0.12329  1.0000
  C   C1386     1.0  0.31823  0.66598  0.12840  1.0000
  C   C1387     1.0  0.31347  0.66170  0.12210  1.0000
  H   H1677     1.0  0.32473  0.67508  0.09647  1.0000
  H   H1678     1.0  0.33294  0.68265  0.10759  1.0000
  H   H1679     1.0  0.31646  0.66333  0.13733  1.0000
  H   H1680     1.0  0.30817  0.65581  0.12623  1.0000
  C   C1388     1.0  0.34608  0.73065  0.09165  1.0000
  C   C1389     1.0  0.35123  0.72093  0.08769  1.0000
  C   C1390     1.0  0.36138  0.72036  0.07991  1.0000
  C   C1391     1.0  0.36639  0.72953  0.07611  1.0000
  C   C1392     1.0  0.20214  0.63952  0.99167  1.0000
  H   H1681     1.0  0.24877  0.57039  0.00235  1.0000
  H   H1682     1.0  0.34741  0.71379  0.09070  1.0000
  H   H1683     1.0  0.36538  0.71279  0.07693  1.0000
  H   H1684     1.0  0.16401  0.65105  0.15787  1.0000
  C   C1393     1.0  0.49207  0.71698  0.12271  1.0000
  C   C1394     1.0  0.39181  0.70078  0.11655  1.0000
  C   C1395     1.0  0.40048  0.70579  0.10950  1.0000
  C   C1396     1.0  0.40921  0.70690  0.11359  1.0000
  C   C1397     1.0  0.40946  0.70284  0.12479  1.0000
  C   C1398     1.0  0.40071  0.69799  0.13192  1.0000
  C   C1399     1.0  0.39182  0.69709  0.12785  1.0000
  H   H1685     1.0  0.40045  0.70879  0.10081  1.0000
  H   H1686     1.0  0.41588  0.71062  0.10798  1.0000
  H   H1687     1.0  0.40091  0.69472  0.14057  1.0000
  H   H1688     1.0  0.38525  0.69311  0.13335  1.0000
  C   C1400     1.0  0.33360  0.61523  0.11733  1.0000
  C   C1401     1.0  0.23838  0.64894  0.06389  1.0000
  H   H1689     1.0  0.27575  0.50013  0.13008  1.0000
  C   C1402     1.0  0.26596  0.64069  0.04748  1.0000
  C   C1403     1.0  0.27368  0.64756  0.04309  1.0000
  C   C1404     1.0  0.28039  0.64867  0.04955  1.0000
  C   C1405     1.0  0.27933  0.64321  0.06068  1.0000
  C   C1406     1.0  0.27150  0.63635  0.06530  1.0000
  C   C1407     1.0  0.26491  0.63498  0.05864  1.0000
  H   H1690     1.0  0.27458  0.65202  0.03453  1.0000
  H   H1691     1.0  0.28643  0.65390  0.04586  1.0000
  H   H1692     1.0  0.27075  0.63193  0.07385  1.0000
  H   H1693     1.0  0.25899  0.62964  0.06214  1.0000
  C   C1408     1.0  0.21093  0.62028  0.07339  1.0000
  C   C1409     1.0  0.20956  0.63184  0.07120  1.0000
  C   C1410     1.0  0.20698  0.63733  0.07999  1.0000
  C   C1411     1.0  0.20580  0.63128  0.09098  1.0000
  C   C1412     1.0  0.20710  0.61972  0.09318  1.0000
  C   C1413     1.0  0.20954  0.61426  0.08440  1.0000
  H   H1694     1.0  0.21049  0.63656  0.06274  1.0000
  H   H1695     1.0  0.20598  0.64626  0.07824  1.0000
  H   H1696     1.0  0.20615  0.61499  0.10164  1.0000
  H   H1697     1.0  0.21042  0.60533  0.08615  1.0000
  C   C1414     1.0  0.22759  0.61936  0.99925  1.0000
  H   H1698     1.0  0.34372  0.72269  0.05745  1.0000
  C   C1415     1.0  0.48901  0.72837  0.13607  1.0000
  C   C1416     1.0  0.22037  0.60616  0.98922  1.0000
  C   C1417     1.0  0.22007  0.60332  0.00065  1.0000
  C   C1418     1.0  0.22360  0.60993  0.00566  1.0000
  H   H1699     1.0  0.22316  0.52908  0.07667  1.0000
  C   C1419     1.0  0.23629  0.64125  0.08390  1.0000
  H   H1700     1.0  0.21690  0.59609  0.00569  1.0000
  H   H1701     1.0  0.22296  0.60788  0.01451  1.0000
  C   C1420     1.0  0.23808  0.56537  0.13442  1.0000
  C   C1421     1.0  0.23219  0.56447  0.12708  1.0000
  C   C1422     1.0  0.22132  0.57084  0.12695  1.0000
  C   C1423     1.0  0.21650  0.57846  0.13383  1.0000
  C   C1424     1.0  0.22248  0.57958  0.14099  1.0000
  C   C1425     1.0  0.23320  0.57287  0.14144  1.0000
  H   H1702     1.0  0.23594  0.55880  0.12154  1.0000
  H   H1703     1.0  0.21676  0.57006  0.12131  1.0000
  H   H1704     1.0  0.21878  0.58549  0.14630  1.0000
  H   H1705     1.0  0.23778  0.57366  0.14705  1.0000
  C   C1426     1.0  0.28718  0.58604  0.09594  1.0000
  C   C1427     1.0  0.28803  0.59708  0.09087  1.0000
  C   C1428     1.0  0.29031  0.60385  0.09659  1.0000
  C   C1429     1.0  0.29180  0.59964  0.10747  1.0000
  C   C1430     1.0  0.29082  0.58864  0.11262  1.0000
  C   C1431     1.0  0.28845  0.58188  0.10690  1.0000
  H   H1706     1.0  0.28690  0.60045  0.08248  1.0000
  H   H1707     1.0  0.29108  0.61228  0.09249  1.0000
  H   H1708     1.0  0.29195  0.58532  0.12103  1.0000
  H   H1709     1.0  0.28788  0.57337  0.11088  1.0000
  H   H1710     1.0  0.22733  0.65317  0.10636  1.0000
  C   C1432     1.0  0.25530  0.50910  0.10095  1.0000
  C   C1433     1.0  0.26176  0.51587  0.10207  1.0000
  C   C1434     1.0  0.27337  0.51232  0.10061  1.0000
  C   C1435     1.0  0.27842  0.50175  0.09818  1.0000
  H   H1711     1.0  0.24015  0.65556  0.05674  1.0000
  H   H1712     1.0  0.24634  0.51184  0.10232  1.0000
  H   H1713     1.0  0.25769  0.52384  0.10402  1.0000
  H   H1714     1.0  0.24153  0.54877  0.06957  1.0000
  C   C1436     1.0  0.24695  0.56848  0.07144  1.0000
  C   C1437     1.0  0.25768  0.56431  0.06566  1.0000
  C   C1438     1.0  0.26188  0.56996  0.05498  1.0000
  C   C1439     1.0  0.25543  0.57991  0.05018  1.0000
  C   C1440     1.0  0.24463  0.58393  0.05587  1.0000
  C   C1441     1.0  0.24034  0.57816  0.06643  1.0000
  H   H1715     1.0  0.26274  0.55671  0.06936  1.0000
  H   H1716     1.0  0.27022  0.56680  0.05059  1.0000
  H   H1717     1.0  0.23953  0.59155  0.05226  1.0000
  H   H1718     1.0  0.23203  0.58140  0.07084  1.0000
  N   N91       1.0  0.25330  0.58782  0.00776  1.0000
  C   C1442     1.0  0.26395  0.57975  0.00914  1.0000
  C   C1443     1.0  0.25464  0.59888  0.00816  1.0000
  C   C1444     1.0  0.24429  0.58462  0.01735  1.0000
  C   C1445     1.0  0.25057  0.58767  0.99731  1.0000
  H   H1719     1.0  0.41622  0.73586  0.00338  1.0000
  H   H1720     1.0  0.25662  0.59872  0.01612  1.0000
  H   H1721     1.0  0.41002  0.72589  0.12347  1.0000
  S   S426      1.0  0.25144  0.49120  0.09629  1.0000
  C   C1446     1.0  0.25005  0.59703  0.98827  1.0000
  H   H1722     1.0  0.26338  0.57107  0.00980  1.0000
  H   H1723     1.0  0.27090  0.58175  0.00202  1.0000
  H   H1724     1.0  0.26639  0.57979  0.01683  1.0000
  C   C1447     1.0  0.39139  0.73637  0.11633  1.0000
  H   H1725     1.0  0.26163  0.60165  0.00153  1.0000
  C   C1448     1.0  0.35900  0.73565  0.04976  1.0000
  C   C1449     1.0  0.26309  0.49455  0.12656  1.0000
  H   H1726     1.0  0.24573  0.58537  0.02527  1.0000
  H   H1727     1.0  0.36927  0.73706  0.02162  1.0000
  C   C1450     1.0  0.41033  0.73336  0.98698  1.0000
  C   C1451     1.0  0.42849  0.73429  0.07330  1.0000
  C   C1452     1.0  0.25181  0.49636  0.12647  1.0000
  H   H1728     1.0  0.27040  0.50306  0.07016  1.0000
  C   C1453     1.0  0.24430  0.50551  0.13007  1.0000
  C   C1454     1.0  0.23407  0.63268  0.10397  1.0000
  C   C1455     1.0  0.24763  0.64392  0.09489  1.0000
  C   C1456     1.0  0.23419  0.63160  0.08208  1.0000
  C   C1457     1.0  0.23446  0.63065  0.07144  1.0000
  H   H1729     1.0  0.24031  0.62496  0.10253  1.0000
  H   H1730     1.0  0.23426  0.63381  0.11220  1.0000
  H   H1731     1.0  0.25434  0.63701  0.09203  1.0000
  H   H1732     1.0  0.24835  0.64417  0.10323  1.0000
  H   H1733     1.0  0.24954  0.65183  0.08934  1.0000
  H   H1734     1.0  0.23197  0.62481  0.08875  1.0000
  H   H1735     1.0  0.23276  0.62325  0.07024  1.0000
  N   N92       1.0  0.28047  0.59870  0.05599  1.0000
  C   C1458     1.0  0.27749  0.60543  0.04535  1.0000
  C   C1459     1.0  0.28266  0.58678  0.05558  1.0000
  C   C1460     1.0  0.27072  0.60085  0.06514  1.0000
  C   C1461     1.0  0.29009  0.60176  0.05797  1.0000
  C   C1462     1.0  0.29861  0.59372  0.06278  1.0000
  C   C1463     1.0  0.29067  0.61309  0.05597  1.0000
  C   C1464     1.0  0.30717  0.59689  0.06529  1.0000
  C   C1465     1.0  0.29924  0.61617  0.05853  1.0000
  C   C1466     1.0  0.30747  0.60809  0.06320  1.0000
  H   H1736     1.0  0.28497  0.60517  0.03840  1.0000
  H   H1737     1.0  0.27116  0.60238  0.04312  1.0000
  H   H1738     1.0  0.27357  0.61429  0.04563  1.0000
  H   H1739     1.0  0.28321  0.58116  0.06384  1.0000
  H   H1740     1.0  0.29048  0.58441  0.04946  1.0000
  H   H1741     1.0  0.27574  0.58487  0.05317  1.0000
  H   H1742     1.0  0.26837  0.60976  0.06563  1.0000
  H   H1743     1.0  0.26329  0.59854  0.06411  1.0000
  H   H1744     1.0  0.27259  0.59589  0.07329  1.0000
  H   H1745     1.0  0.29862  0.58495  0.06509  1.0000
  H   H1746     1.0  0.28441  0.61974  0.05260  1.0000
  H   H1747     1.0  0.31339  0.59062  0.06923  1.0000
  H   H1748     1.0  0.29937  0.62491  0.05708  1.0000
  H   H1749     1.0  0.31396  0.61054  0.06538  1.0000
  H   H1750     1.0  0.27592  0.53222  0.07621  1.0000
  H   H1751     1.0  0.39037  0.69986  0.15824  1.0000
  C   C1467     1.0  0.38320  0.72337  0.16893  1.0000
  H   H1752     1.0  0.42498  0.73172  0.08202  1.0000
  C   C1468     1.0  0.44406  0.73283  0.05760  1.0000
  H   H1753     1.0  0.16706  0.64852  0.17665  1.0000
  H   H1754     1.0  0.37977  0.73036  0.13796  1.0000
  C   C1469     1.0  0.43962  0.72963  0.06892  1.0000
  C   C1470     1.0  0.49631  0.72215  0.12856  1.0000
  H   H1755     1.0  0.36117  0.72806  0.05617  1.0000
  C   C1471     1.0  0.38224  0.72965  0.10565  1.0000
  H   H1756     1.0  0.37412  0.71170  0.16728  1.0000
  H   H1757     1.0  0.35871  0.73220  0.14065  1.0000
  H   H1758     1.0  0.27129  0.51757  0.15181  1.0000
  H   H1759     1.0  0.27558  0.50536  0.14621  1.0000
  C   C1472     1.0  0.38645  0.73672  0.09599  1.0000
  C   C1473     1.0  0.14622  0.65250  0.16333  1.0000
  H   H1760     1.0  0.25126  0.60495  0.98862  1.0000
  H   H1761     1.0  0.33341  0.73215  0.05025  1.0000
  C   C1474     1.0  0.38209  0.71394  0.16580  1.0000
  N   N93       1.0  0.25286  0.59792  0.11763  1.0000
  C   C1475     1.0  0.25859  0.58625  0.12129  1.0000
  C   C1476     1.0  0.26130  0.60494  0.11428  1.0000
  C   C1477     1.0  0.24445  0.60159  0.12722  1.0000
  C   C1478     1.0  0.24738  0.59853  0.10860  1.0000
  C   C1479     1.0  0.25152  0.60328  0.09730  1.0000
  C   C1480     1.0  0.23793  0.59374  0.11088  1.0000
  C   C1481     1.0  0.24623  0.60351  0.08898  1.0000
  C   C1482     1.0  0.23269  0.59407  0.10251  1.0000
  C   C1483     1.0  0.23681  0.59896  0.09158  1.0000
  H   H1762     1.0  0.26495  0.58314  0.11432  1.0000
  H   H1763     1.0  0.26293  0.58530  0.12805  1.0000
  H   H1764     1.0  0.25263  0.58060  0.12447  1.0000
  H   H1765     1.0  0.26848  0.60201  0.10784  1.0000
  H   H1766     1.0  0.26502  0.60461  0.12132  1.0000
  H   H1767     1.0  0.25758  0.61382  0.11118  1.0000
  H   H1768     1.0  0.23853  0.59598  0.13133  1.0000
  H   H1769     1.0  0.24841  0.60180  0.13388  1.0000
  H   H1770     1.0  0.23946  0.61009  0.12467  1.0000
  H   H1771     1.0  0.25890  0.60675  0.09467  1.0000
  H   H1772     1.0  0.23460  0.58949  0.11913  1.0000
  H   H1773     1.0  0.24941  0.60723  0.08044  1.0000
  H   H1774     1.0  0.22545  0.59036  0.10451  1.0000
  H   H1775     1.0  0.23276  0.59911  0.08510  1.0000
  H   H1776     1.0  0.37719  0.72416  0.10534  1.0000
  C   C1484     1.0  0.17269  0.58125  0.15662  1.0000
  H   H1777     1.0  0.29592  0.68992  0.10507  1.0000
  C   C1485     1.0  0.33317  0.63269  0.12902  1.0000
  C   C1486     1.0  0.17174  0.62316  0.17318  1.0000
  H   H1778     1.0  0.28329  0.51358  0.07190  1.0000
  S   S427      1.0  0.42895  0.72732  0.10488  1.0000
  H   H1779     1.0  0.40836  0.73330  0.13400  1.0000
  H   H1780     1.0  0.23279  0.51693  0.08184  1.0000
  C   C1487     1.0  0.47742  0.72971  0.13736  1.0000
  C   C1488     1.0  0.30174  0.69313  0.11753  1.0000
  H   H1781     1.0  0.26510  0.69287  0.12012  1.0000
  H   H1782     1.0  0.16028  0.60869  0.15410  1.0000
  H   H1783     1.0  0.26097  0.68051  0.11997  1.0000
  C   C1489     1.0  0.40616  0.73396  0.12598  1.0000
  C   C1490     1.0  0.33334  0.63422  0.11760  1.0000
  H   H1784     1.0  0.46421  0.72599  0.13223  1.0000
  H   H1785     1.0  0.33832  0.62846  0.09726  1.0000
  H   H1786     1.0  0.36335  0.73367  0.04155  1.0000
  C   C1491     1.0  0.26831  0.51219  0.14822  1.0000
  H   H1787     1.0  0.38118  0.72363  0.12282  1.0000
  H   H1788     1.0  0.22565  0.53922  0.08900  1.0000
  C   C1492     1.0  0.24800  0.51286  0.13386  1.0000
  C   C1493     1.0  0.25946  0.51119  0.13416  1.0000
  H   H1789     1.0  0.14947  0.58532  0.16730  1.0000
  C   C1494     1.0  0.30106  0.69180  0.12880  1.0000
  H   H1790     1.0  0.40636  0.69824  0.06566  1.0000
  C   C1495     1.0  0.16321  0.60045  0.15176  1.0000
  C   C1496     1.0  0.22800  0.62213  0.98780  1.0000
  H   H1791     1.0  0.38994  0.73786  0.98416  1.0000
  C   C1497     1.0  0.34269  0.64775  0.12527  1.0000
  C   C1498     1.0  0.33778  0.63938  0.13276  1.0000
  H   H1792     1.0  0.40921  0.70395  0.15399  1.0000
  C   C1499     1.0  0.34514  0.72958  0.15476  1.0000
  Fe  Fe216     1.0  0.43844  0.73620  0.11071  1.0000
  C   C1500     1.0  0.29460  0.68896  0.11391  1.0000
  C   C1501     1.0  0.23219  0.52493  0.07555  1.0000
  H   H1793     1.0  0.34215  0.73462  0.06854  1.0000
  C   C1502     1.0  0.39416  0.72538  0.16646  1.0000
  C   C1503     1.0  0.15208  0.58757  0.17357  1.0000
  C   C1504     1.0  0.25114  0.52674  0.07553  1.0000
  H   H1794     1.0  0.22856  0.54663  0.06884  1.0000
  C   C1505     1.0  0.40203  0.70928  0.15818  1.0000
  H   H1795     1.0  0.27861  0.69002  0.10214  1.0000
  H   H1796     1.0  0.17865  0.58152  0.14840  1.0000
  H   H1797     1.0  0.31187  0.62386  0.11613  1.0000
  H   H1798     1.0  0.27564  0.52928  0.13228  1.0000
  H   H1799     1.0  0.31449  0.62609  0.12821  1.0000
  N   N94       1.0  0.41050  0.71034  0.07186  1.0000
  C   C1506     1.0  0.40439  0.72046  0.07615  1.0000
  C   C1507     1.0  0.41935  0.71337  0.06199  1.0000
  C   C1508     1.0  0.40251  0.70640  0.06803  1.0000
  C   C1509     1.0  0.41540  0.70196  0.08075  1.0000
  C   C1510     1.0  0.41018  0.69316  0.08756  1.0000
  C   C1511     1.0  0.42514  0.70296  0.08346  1.0000
  C   C1512     1.0  0.41467  0.68572  0.09629  1.0000
  C   C1513     1.0  0.42959  0.69544  0.09216  1.0000
  C   C1514     1.0  0.42435  0.68684  0.09857  1.0000
  H   H1800     1.0  0.40979  0.72358  0.07956  1.0000
  H   H1801     1.0  0.39703  0.71878  0.08292  1.0000
  H   H1802     1.0  0.42453  0.71831  0.06350  1.0000
  H   H1803     1.0  0.28740  0.49888  0.09707  1.0000
  H   H1804     1.0  0.42503  0.70582  0.05932  1.0000
  H   H1805     1.0  0.39963  0.71240  0.06074  1.0000
  H   H1806     1.0  0.22556  0.63136  0.10476  1.0000
  H   H1807     1.0  0.39466  0.70567  0.07444  1.0000
  H   H1808     1.0  0.40237  0.69212  0.08663  1.0000
  H   H1809     1.0  0.42934  0.70967  0.07908  1.0000
  H   H1810     1.0  0.41033  0.67931  0.10160  1.0000
  H   H1811     1.0  0.43700  0.69648  0.09408  1.0000
  H   H1812     1.0  0.42763  0.68124  0.10552  1.0000
  H   H1813     1.0  0.15575  0.59790  0.15118  1.0000
  C   C1515     1.0  0.32939  0.62959  0.10168  1.0000
  H   H1814     1.0  0.23917  0.53984  0.08982  1.0000
  N   N95       1.0  0.32824  0.62712  0.11389  1.0000
  C   C1516     1.0  0.28638  0.68342  0.12158  1.0000
  H   H1815     1.0  0.22961  0.66020  0.09215  1.0000
  H   H1816     1.0  0.17815  0.60425  0.16034  1.0000
  C   C1517     1.0  0.31613  0.62874  0.11903  1.0000
  C   C1518     1.0  0.34302  0.64947  0.11402  1.0000
  H   H1817     1.0  0.30815  0.69707  0.11158  1.0000
  H   H1818     1.0  0.25596  0.54056  0.07860  1.0000
  H   H1819     1.0  0.23601  0.59002  0.01628  1.0000
  C   C1519     1.0  0.22786  0.65231  0.09783  1.0000
  H   H1820     1.0  0.34594  0.65317  0.12822  1.0000
  H   H1821     1.0  0.27532  0.66276  0.11964  1.0000
  H   H1822     1.0  0.33718  0.73443  0.13599  1.0000
  H   H1823     1.0  0.18035  0.62392  0.16977  1.0000
  H   H1824     1.0  0.28966  0.66262  0.11909  1.0000
  N   N96       1.0  0.16941  0.59220  0.15981  1.0000
  H   H1825     1.0  0.29284  0.68516  0.14529  1.0000
  C   C1520     1.0  0.17989  0.59574  0.15877  1.0000
  C   C1521     1.0  0.23847  0.64987  0.07446  1.0000
  H   H1826     1.0  0.33184  0.72948  0.16930  1.0000
  C   C1522     1.0  0.28081  0.66656  0.12227  1.0000
  H   H1827     1.0  0.35557  0.73375  0.18028  1.0000
  C   C1523     1.0  0.39140  0.70702  0.16054  1.0000
  H   H1828     1.0  0.33019  0.60970  0.11433  1.0000
  N   N97       1.0  0.39389  0.73662  0.12685  1.0000
  H   H1829     1.0  0.16858  0.60177  0.14324  1.0000
  C   C1524     1.0  0.28011  0.68095  0.10588  1.0000
  H   H1830     1.0  0.32496  0.63824  0.09857  1.0000
  H   H1831     1.0  0.25130  0.53362  0.13451  1.0000
  C   C1525     1.0  0.26689  0.50182  0.13035  1.0000
  H   H1832     1.0  0.19588  0.61733  0.01199  1.0000
  C   C1526     1.0  0.26030  0.49875  0.09819  1.0000
  H   H1833     1.0  0.26480  0.68145  0.13193  1.0000
  H   H1834     1.0  0.31192  0.63767  0.11699  1.0000
  H   H1835     1.0  0.18518  0.59610  0.15025  1.0000
  H   H1836     1.0  0.32932  0.62641  0.13517  1.0000
  H   H1837     1.0  0.41576  0.71878  0.05484  1.0000
  H   H1838     1.0  0.18511  0.58986  0.16449  1.0000
  H   H1839     1.0  0.34709  0.72625  0.04276  1.0000
  H   H1840     1.0  0.25843  0.53377  0.14458  1.0000
  C   C1527     1.0  0.25569  0.51600  0.07306  1.0000
  H   H1841     1.0  0.23489  0.52688  0.09461  1.0000
  H   H1842     1.0  0.25056  0.51077  0.07253  1.0000
  H   H1843     1.0  0.26974  0.52733  0.12196  1.0000
  C   C1528     1.0  0.15350  0.62349  0.17060  1.0000
  H   H1844     1.0  0.16544  0.57845  0.15590  1.0000
  C   C1529     1.0  0.29316  0.68637  0.13653  1.0000
  N   N98       1.0  0.23906  0.53201  0.07686  1.0000
  C   C1530     1.0  0.19649  0.62303  0.00398  1.0000
  H   H1845     1.0  0.34654  0.65624  0.10829  1.0000
  H   H1846     1.0  0.24132  0.54108  0.05990  1.0000
  H   H1847     1.0  0.38442  0.73686  0.08828  1.0000
  C   C1531     1.0  0.20087  0.63239  0.00212  1.0000
  H   H1848     1.0  0.41167  0.72023  0.15923  1.0000
  H   H1849     1.0  0.21941  0.65168  0.09742  1.0000
  H   H1850     1.0  0.24026  0.65740  0.07516  1.0000
  H   H1851     1.0  0.24682  0.60533  0.00747  1.0000
  C   C1532     1.0  0.23452  0.53459  0.08803  1.0000
  H   H1852     1.0  0.17207  0.59764  0.17875  1.0000
  H   H1853     1.0  0.27914  0.66414  0.13145  1.0000
  N   N99       1.0  0.27874  0.67878  0.11809  1.0000
  C   C1533     1.0  0.24847  0.57785  0.99588  1.0000
  H   H1854     1.0  0.27408  0.67757  0.10356  1.0000
  C   C1534     1.0  0.13712  0.65239  0.17239  1.0000
  H   H1855     1.0  0.38867  0.73712  0.99861  1.0000
  H   H1856     1.0  0.24810  0.52557  0.14852  1.0000
  H   H1857     1.0  0.30694  0.69467  0.13154  1.0000
  S   S428      1.0  0.37889  0.72890  0.06615  1.0000
  H   H1858     1.0  0.33855  0.64502  0.10142  1.0000
  C   C1535     1.0  0.22439  0.61558  0.98282  1.0000
  C   C1536     1.0  0.28590  0.68226  0.13301  1.0000
  C   C1537     1.0  0.25881  0.53248  0.07650  1.0000
  C   C1538     1.0  0.23755  0.54255  0.06842  1.0000
  C   C1539     1.0  0.26692  0.68363  0.12274  1.0000
  C   C1540     1.0  0.25496  0.52825  0.14164  1.0000
  H   H1859     1.0  0.39568  0.73239  0.16855  1.0000
  C   C1541     1.0  0.26718  0.51142  0.07163  1.0000
  H   H1860     1.0  0.23484  0.52301  0.06715  1.0000
  H   H1861     1.0  0.33736  0.63823  0.14153  1.0000
  C   C1542     1.0  0.40340  0.71845  0.16113  1.0000
  H   H1862     1.0  0.28002  0.67798  0.13933  1.0000
  H   H1863     1.0  0.14800  0.62444  0.16515  1.0000
  H   H1864     1.0  0.32564  0.62400  0.09915  1.0000
  H   H1865     1.0  0.28864  0.67688  0.10187  1.0000
  H   H1866     1.0  0.23558  0.50700  0.12971  1.0000
  C   C1543     1.0  0.27028  0.52783  0.07506  1.0000
  N   N100      1.0  0.26369  0.51861  0.13836  1.0000
  H   H1867     1.0  0.24174  0.51983  0.13638  1.0000
  H   H1868     1.0  0.39253  0.71990  0.13551  1.0000
  H   H1869     1.0  0.40119  0.72730  0.06954  1.0000
  C   C1544     1.0  0.38905  0.72864  0.13654  1.0000
  H   H1870     1.0  0.28021  0.51658  0.12751  1.0000
  C   C1545     1.0  0.27271  0.52311  0.12971  1.0000
  H   H1871     1.0  0.24363  0.57588  0.01858  1.0000
  C   C1546     1.0  0.27445  0.51732  0.07262  1.0000
  N   N101      1.0  0.37355  0.73100  0.17438  1.0000
  C   C1547     1.0  0.19349  0.62068  0.99535  1.0000
  H   H1872     1.0  0.32263  0.73674  0.13601  1.0000
  C   C1548     1.0  0.36268  0.72775  0.17637  1.0000
  C   C1549     1.0  0.15693  0.65133  0.16487  1.0000
  C   C1550     1.0  0.33793  0.73400  0.16362  1.0000
  H   H1873     1.0  0.40878  0.72699  0.99477  1.0000
  C   C1551     1.0  0.34252  0.72972  0.05021  1.0000
  H   H1874     1.0  0.39103  0.72913  0.14426  1.0000
  H   H1875     1.0  0.47169  0.73449  0.14318  1.0000
  C   C1552     1.0  0.24579  0.57750  0.98614  1.0000
  H   H1876     1.0  0.33281  0.73515  0.12371  1.0000
  C   C1553     1.0  0.35307  0.73553  0.14753  1.0000
  H   H1877     1.0  0.41917  0.73425  0.98501  1.0000
  C   C1554     1.0  0.16476  0.59437  0.17985  1.0000
  C   C1555     1.0  0.19879  0.63761  0.98278  1.0000
  H   H1878     1.0  0.48887  0.73670  0.10407  1.0000
  H   H1879     1.0  0.24898  0.49087  0.12321  1.0000
  C   C1556     1.0  0.19463  0.62780  0.98488  1.0000
  S   S429      1.0  0.21557  0.59783  0.98324  1.0000
  H   H1880     1.0  0.36262  0.71942  0.18200  1.0000
  Fe  Fe217     1.0  0.10481  0.54834  0.27510  1.0000
  S   S430      1.0  0.10218  0.54096  0.29337  1.0000
  S   S431      1.0  0.12186  0.54673  0.26394  1.0000
  Fe  Fe218     1.0  0.08016  0.55469  0.27543  1.0000
  S   S432      1.0  0.07549  0.54797  0.29362  1.0000
  S   S433      1.0  0.06739  0.56114  0.26496  1.0000
  Fe  Fe219     1.0  0.08848  0.55635  0.29466  1.0000
  S   S434      1.0  0.08361  0.56581  0.30841  1.0000
  Fe  Fe220     1.0  0.08944  0.53343  0.29041  1.0000
  S   S435      1.0  0.08720  0.51570  0.29728  1.0000
  S   S436      1.0  0.09205  0.56425  0.27654  1.0000
  S   S437      1.0  0.09325  0.53965  0.27209  1.0000
  Fe  Fe221     1.0  0.02657  0.61070  0.26868  1.0000
  S   S438      1.0  0.02391  0.60955  0.25251  1.0000
  S   S439      1.0  0.02702  0.59677  0.28363  1.0000
  Fe  Fe222     1.0  0.03098  0.63379  0.26026  1.0000
  S   S440      1.0  0.02845  0.63495  0.24325  1.0000
  S   S441      1.0  0.03735  0.64700  0.26386  1.0000
  Fe  Fe223     1.0  0.01376  0.62689  0.25214  1.0000
  Fe  Fe224     1.0  0.03872  0.61752  0.24492  1.0000
  S   S442      1.0  0.05227  0.61064  0.23153  1.0000
  S   S443      1.0  0.01530  0.62750  0.26905  1.0000
  S   S444      1.0  0.04236  0.61696  0.26115  1.0000
  H   H1881     1.0  0.06973  0.57325  0.22729  1.0000
  Fe  Fe225     1.0  0.09014  0.70718  0.37068  1.0000
  H   H1882     1.0  0.03988  0.72408  0.38152  1.0000
  H   H1883     1.0  0.38268  0.73477  0.18438  1.0000
  Fe  Fe226     1.0  0.11180  0.71512  0.36248  1.0000
  H   H1884     1.0  0.06773  0.68502  0.37351  1.0000
  S   S445      1.0  0.12112  0.72928  0.35491  1.0000
  Fe  Fe227     1.0  0.10998  0.69224  0.35936  1.0000
  S   S446      1.0  0.11468  0.67884  0.34894  1.0000
  H   H1885     1.0  0.06941  0.58608  0.23056  1.0000
  S   S447      1.0  0.10129  0.70997  0.35383  1.0000
  H   H1886     1.0  0.06325  0.52702  0.30048  1.0000
  Fe  Fe228     1.0  0.08655  0.64629  0.31722  1.0000
  S   S448      1.0  0.07677  0.65413  0.30362  1.0000
  S   S449      1.0  0.08605  0.65855  0.32788  1.0000
  Fe  Fe229     1.0  0.09279  0.62348  0.31034  1.0000
  S   S450      1.0  0.08366  0.62998  0.29656  1.0000
  S   S451      1.0  0.10275  0.60581  0.31074  1.0000
  Fe  Fe230     1.0  0.09125  0.64472  0.29297  1.0000
  S   S452      1.0  0.09895  0.65122  0.27523  1.0000
  Fe  Fe231     1.0  0.07011  0.63852  0.30851  1.0000
  S   S453      1.0  0.05285  0.63627  0.30935  1.0000
  S   S454      1.0  0.10147  0.63780  0.30597  1.0000
  S   S455      1.0  0.07870  0.63112  0.32289  1.0000
  Fe  Fe232     1.0  0.12104  0.59754  0.21953  1.0000
  S   S456      1.0  0.12200  0.61198  0.20497  1.0000
  S   S457      1.0  0.12200  0.58038  0.21775  1.0000
  Fe  Fe233     1.0  0.12032  0.61079  0.23610  1.0000
  S   S458      1.0  0.12142  0.62640  0.22305  1.0000
  S   S459      1.0  0.11852  0.60855  0.25447  1.0000
  Fe  Fe234     1.0  0.10903  0.62151  0.21677  1.0000
  S   S460      1.0  0.09359  0.63412  0.21322  1.0000
  Fe  Fe235     1.0  0.13436  0.61548  0.21247  1.0000
  S   S461      1.0  0.15099  0.62005  0.20354  1.0000
  S   S462      1.0  0.10692  0.60673  0.23063  1.0000
  S   S463      1.0  0.13437  0.60022  0.22619  1.0000
  S   S464      1.0  0.12179  0.69758  0.36635  1.0000
  H   H1887     1.0  0.08990  0.57196  0.21698  1.0000
  H   H1888     1.0  0.09092  0.62154  0.25191  1.0000
  C   C1557     1.0  0.08261  0.54196  0.24456  1.0000
  C   C1558     1.0  0.12369  0.64149  0.19402  1.0000
  H   H1889     1.0  0.03018  0.62160  0.22517  1.0000
  H   H1890     1.0  0.37656  0.72282  0.19063  1.0000
  H   H1891     1.0  0.14249  0.58899  0.20073  1.0000
  H   H1892     1.0  0.08280  0.58769  0.23952  1.0000
  H   H1893     1.0  0.11608  0.64137  0.20084  1.0000
  C   C1559     1.0  0.10540  0.63960  0.26920  1.0000
  C   C1560     1.0  0.10740  0.64071  0.25772  1.0000
  C   C1561     1.0  0.11160  0.63124  0.25307  1.0000
  C   C1562     1.0  0.11396  0.62067  0.25987  1.0000
  C   C1563     1.0  0.11233  0.61964  0.27130  1.0000
  C   C1564     1.0  0.10805  0.62906  0.27594  1.0000
  H   H1894     1.0  0.10545  0.64885  0.25247  1.0000
  H   H1895     1.0  0.11293  0.63213  0.24425  1.0000
  H   H1896     1.0  0.11424  0.61153  0.27664  1.0000
  H   H1897     1.0  0.10684  0.62812  0.28478  1.0000
  H   H1898     1.0  0.03564  0.53435  0.28061  1.0000
  S   S465      1.0  0.06685  0.49466  0.26979  1.0000
  C   C1565     1.0  0.10649  0.67319  0.34333  1.0000
  C   C1566     1.0  0.09508  0.67763  0.34362  1.0000
  C   C1567     1.0  0.08900  0.67295  0.33899  1.0000
  C   C1568     1.0  0.09421  0.66384  0.33387  1.0000
  C   C1569     1.0  0.10562  0.65936  0.33363  1.0000
  C   C1570     1.0  0.11168  0.66402  0.33831  1.0000
  H   H1899     1.0  0.09100  0.68483  0.34719  1.0000
  H   H1900     1.0  0.08022  0.67656  0.33919  1.0000
  H   H1901     1.0  0.10978  0.65225  0.32994  1.0000
  H   H1902     1.0  0.12048  0.66046  0.33802  1.0000
  H   H1903     1.0  0.04158  0.49922  0.28397  1.0000
  H   H1904     1.0  0.07658  0.53671  0.24695  1.0000
  H   H1905     1.0  0.03203  0.53543  0.30790  1.0000
  H   H1906     1.0  0.03721  0.54808  0.30315  1.0000
  C   C1571     1.0  0.10592  0.49988  0.26774  1.0000
  C   C1572     1.0  0.02159  0.62552  0.22380  1.0000
  H   H1907     1.0  0.06076  0.53731  0.28139  1.0000
  C   C1573     1.0  0.01056  0.59620  0.21622  1.0000
  C   C1574     1.0  0.99827  0.59088  0.26685  1.0000
  H   H1908     1.0  0.12384  0.51821  0.24444  1.0000
  C   C1575     1.0  0.09143  0.64279  0.23772  1.0000
  H   H1909     1.0  0.00167  0.62901  0.21852  1.0000
  H   H1910     1.0  0.07324  0.62726  0.27166  1.0000
  C   C1576     1.0  0.04149  0.64404  0.27660  1.0000
  C   C1577     1.0  0.03719  0.63633  0.28571  1.0000
  C   C1578     1.0  0.04052  0.63422  0.29580  1.0000
  C   C1579     1.0  0.04853  0.63941  0.29670  1.0000
  C   C1580     1.0  0.05298  0.64698  0.28754  1.0000
  C   C1581     1.0  0.04923  0.64950  0.27762  1.0000
  H   H1911     1.0  0.03108  0.63221  0.28506  1.0000
  H   H1912     1.0  0.03692  0.62851  0.30292  1.0000
  H   H1913     1.0  0.05903  0.65115  0.28823  1.0000
  H   H1914     1.0  0.05232  0.65574  0.27075  1.0000
  C   C1582     1.0  0.06364  0.61734  0.22662  1.0000
  C   C1583     1.0  0.07401  0.61163  0.22156  1.0000
  C   C1584     1.0  0.08323  0.61672  0.21759  1.0000
  C   C1585     1.0  0.08202  0.62774  0.21824  1.0000
  C   C1586     1.0  0.07159  0.63356  0.22310  1.0000
  C   C1587     1.0  0.06246  0.62829  0.22750  1.0000
  H   H1915     1.0  0.07492  0.60326  0.22069  1.0000
  H   H1916     1.0  0.09122  0.61222  0.21374  1.0000
  H   H1917     1.0  0.07061  0.64210  0.22359  1.0000
  H   H1918     1.0  0.05446  0.63279  0.23133  1.0000
  H   H1919     1.0  0.09608  0.52841  0.24888  1.0000
  C   C1588     1.0  0.04589  0.52466  0.29259  1.0000
  C   C1589     1.0  0.12205  0.55618  0.25117  1.0000
  C   C1590     1.0  0.11605  0.56717  0.25062  1.0000
  C   C1591     1.0  0.11654  0.57477  0.24040  1.0000
  C   C1592     1.0  0.12243  0.57120  0.23062  1.0000
  C   C1593     1.0  0.12825  0.56015  0.23114  1.0000
  C   C1594     1.0  0.12829  0.55271  0.24144  1.0000
  H   H1920     1.0  0.11111  0.56983  0.25807  1.0000
  H   H1921     1.0  0.11203  0.58328  0.24005  1.0000
  H   H1922     1.0  0.13285  0.55738  0.22360  1.0000
  H   H1923     1.0  0.13297  0.54422  0.24184  1.0000
  C   C1595     1.0  0.08838  0.57762  0.30828  1.0000
  C   C1596     1.0  0.09500  0.58306  0.29887  1.0000
  C   C1597     1.0  0.09892  0.59217  0.29943  1.0000
  C   C1598     1.0  0.09603  0.59603  0.30929  1.0000
  C   C1599     1.0  0.08898  0.59090  0.31850  1.0000
  C   C1600     1.0  0.08519  0.58175  0.31800  1.0000
  H   H1924     1.0  0.09733  0.58005  0.29130  1.0000
  H   H1925     1.0  0.10448  0.59603  0.29233  1.0000
  H   H1926     1.0  0.08684  0.59368  0.32620  1.0000
  H   H1927     1.0  0.07998  0.57767  0.32528  1.0000
  C   C1601     1.0  0.08183  0.50977  0.28946  1.0000
  H   H1928     1.0  0.11397  0.56539  0.31996  1.0000
  C   C1602     1.0  0.14499  0.72926  0.37880  1.0000
  H   H1929     1.0  0.02058  0.63460  0.22311  1.0000
  C   C1603     1.0  0.07330  0.51145  0.27414  1.0000
  C   C1604     1.0  0.07783  0.51622  0.28008  1.0000
  C   C1605     1.0  0.12017  0.66149  0.19065  1.0000
  H   H1930     1.0  0.07002  0.51656  0.26702  1.0000
  H   H1931     1.0  0.07813  0.52490  0.27745  1.0000
  C   C1606     1.0  0.05583  0.57044  0.27065  1.0000
  C   C1607     1.0  0.05461  0.57222  0.28124  1.0000
  C   C1608     1.0  0.04527  0.57978  0.28559  1.0000
  C   C1609     1.0  0.03749  0.58591  0.27914  1.0000
  C   C1610     1.0  0.03866  0.58400  0.26864  1.0000
  C   C1611     1.0  0.04774  0.57617  0.26446  1.0000
  H   H1932     1.0  0.06089  0.56791  0.28603  1.0000
  H   H1933     1.0  0.04427  0.58119  0.29376  1.0000
  H   H1934     1.0  0.03254  0.58851  0.26374  1.0000
  H   H1935     1.0  0.04856  0.57472  0.25633  1.0000
  H   H1936     1.0  0.01938  0.57947  0.22154  1.0000
  H   H1937     1.0  0.14450  0.71563  0.36546  1.0000
  H   H1938     1.0  0.08632  0.63176  0.26729  1.0000
  H   H1939     1.0  0.10983  0.54044  0.24396  1.0000
  C   C1612     1.0  0.01046  0.60753  0.21423  1.0000
  H   H1940     1.0  0.00906  0.63963  0.21064  1.0000
  C   C1613     1.0  0.03786  0.51705  0.28163  1.0000
  C   C1614     1.0  0.11731  0.56748  0.31111  1.0000
  H   H1941     1.0  0.03703  0.62092  0.20589  1.0000
  C   C1615     1.0  0.11614  0.56137  0.30420  1.0000
  C   C1616     1.0  0.10131  0.54403  0.24290  1.0000
  H   H1942     1.0  0.12381  0.66893  0.18899  1.0000
  H   H1943     1.0  0.09756  0.66848  0.22866  1.0000
  C   C1617     1.0  0.07292  0.50014  0.27738  1.0000
  C   C1618     1.0  0.09354  0.66181  0.23381  1.0000
  C   C1619     1.0  0.08304  0.64432  0.24740  1.0000
  H   H1944     1.0  0.14231  0.58372  0.27507  1.0000
  C   C1620     1.0  0.02868  0.62579  0.20435  1.0000
  H   H1945     1.0  0.11967  0.58407  0.26203  1.0000
  H   H1946     1.0  0.13045  0.56115  0.27174  1.0000
  N   N102      1.0  0.01952  0.62313  0.21395  1.0000
  H   H1947     1.0  0.08299  0.67166  0.24542  1.0000
  H   H1948     1.0  0.03313  0.51835  0.27536  1.0000
  H   H1949     1.0  0.13803  0.57030  0.26149  1.0000
  H   H1950     1.0  0.07324  0.64147  0.26961  1.0000
  H   H1951     1.0  0.06103  0.64686  0.25567  1.0000
  H   H1952     1.0  0.11835  0.55964  0.28774  1.0000
  H   H1953     1.0  0.00384  0.60900  0.24515  1.0000
  C   C1621     1.0  0.06532  0.63876  0.25336  1.0000
  H   H1954     1.0  0.08210  0.68507  0.36724  1.0000
  H   H1955     1.0  0.08716  0.66159  0.36320  1.0000
  C   C1622     1.0  0.11654  0.50377  0.24887  1.0000
  C   C1623     1.0  0.37528  0.73131  0.18524  1.0000
  C   C1624     1.0  0.04252  0.50626  0.28654  1.0000
  H   H1956     1.0  0.06463  0.63971  0.24468  1.0000
  H   H1957     1.0  0.14258  0.56376  0.27431  1.0000
  C   C1625     1.0  0.09653  0.65145  0.23104  1.0000
  C   C1626     1.0  0.12236  0.57658  0.30660  1.0000
  H   H1958     1.0  0.03074  0.54416  0.29454  1.0000
  C   C1627     1.0  0.07752  0.63393  0.26621  1.0000
  C   C1628     1.0  0.08007  0.65504  0.24989  1.0000
  C   C1629     1.0  0.11778  0.58145  0.27124  1.0000
  C   C1630     1.0  0.11003  0.49685  0.25729  1.0000
  C   C1631     1.0  0.08194  0.62448  0.25135  1.0000
  H   H1959     1.0  0.00718  0.63010  0.20379  1.0000
  H   H1960     1.0  0.14078  0.62074  0.18546  1.0000
  H   H1961     1.0  0.00349  0.59364  0.21519  1.0000
  C   C1632     1.0  0.04014  0.73275  0.38135  1.0000
  C   C1633     1.0  0.07925  0.55344  0.24072  1.0000
  C   C1634     1.0  0.13453  0.58623  0.27180  1.0000
  C   C1635     1.0  0.08148  0.49843  0.29271  1.0000
  C   C1636     1.0  0.04875  0.50450  0.29447  1.0000
  H   H1962     1.0  0.09422  0.63498  0.23511  1.0000
  H   H1963     1.0  0.05034  0.72643  0.36155  1.0000
  C   C1637     1.0  0.13510  0.56771  0.27063  1.0000
  H   H1964     1.0  0.09432  0.57658  0.24247  1.0000
  C   C1638     1.0  0.09058  0.57640  0.22302  1.0000
  H   H1965     1.0  0.04729  0.54540  0.27937  1.0000
  H   H1966     1.0  0.12963  0.58705  0.29223  1.0000
  H   H1967     1.0  0.12941  0.59409  0.27428  1.0000
  H   H1968     1.0  0.05582  0.51148  0.30332  1.0000
  N   N103      1.0  0.06168  0.60283  0.29387  1.0000
  C   C1639     1.0  0.05132  0.60797  0.28953  1.0000
  C   C1640     1.0  0.06038  0.59200  0.30145  1.0000
  C   C1641     1.0  0.06274  0.61018  0.30055  1.0000
  C   C1642     1.0  0.07140  0.60104  0.28458  1.0000
  C   C1643     1.0  0.08117  0.60522  0.28283  1.0000
  C   C1644     1.0  0.07132  0.59487  0.27695  1.0000
  C   C1645     1.0  0.09018  0.60336  0.27395  1.0000
  C   C1646     1.0  0.08039  0.59304  0.26813  1.0000
  C   C1647     1.0  0.08983  0.59724  0.26664  1.0000
  H   H1969     1.0  0.04897  0.60235  0.28570  1.0000
  H   H1970     1.0  0.04394  0.61012  0.29620  1.0000
  H   H1971     1.0  0.05225  0.61576  0.28319  1.0000
  H   H1972     1.0  0.05285  0.59293  0.30830  1.0000
  H   H1973     1.0  0.06773  0.58812  0.30530  1.0000
  H   H1974     1.0  0.05962  0.58590  0.29714  1.0000
  H   H1975     1.0  0.06377  0.61852  0.29537  1.0000
  H   H1976     1.0  0.05518  0.61168  0.30726  1.0000
  H   H1977     1.0  0.06992  0.60648  0.30476  1.0000
  H   H1978     1.0  0.08216  0.60980  0.28830  1.0000
  H   H1979     1.0  0.06425  0.59132  0.27782  1.0000
  H   H1980     1.0  0.09753  0.60660  0.27282  1.0000
  H   H1981     1.0  0.08010  0.58821  0.26252  1.0000
  H   H1982     1.0  0.09690  0.59580  0.25982  1.0000
  H   H1983     1.0  0.09960  0.57477  0.22316  1.0000
  H   H1984     1.0  0.02759  0.62390  0.19680  1.0000
  C   C1648     1.0  0.05463  0.53148  0.30379  1.0000
  H   H1985     1.0  0.07053  0.55653  0.24039  1.0000
  N   N104      1.0  0.07714  0.63547  0.25442  1.0000
  C   C1649     1.0  0.03637  0.54079  0.30051  1.0000
  C   C1650     1.0  0.09803  0.55550  0.23907  1.0000
  C   C1651     1.0  0.03944  0.52614  0.28464  1.0000
  H   H1986     1.0  0.10281  0.65005  0.22364  1.0000
  H   H1987     1.0  0.05108  0.52618  0.31171  1.0000
  C   C1652     1.0  0.05262  0.54184  0.28558  1.0000
  C   C1653     1.0  0.07167  0.57686  0.23332  1.0000
  H   H1988     1.0  0.11250  0.58881  0.27456  1.0000
  N   N105      1.0  0.08360  0.57284  0.23413  1.0000
  H   H1989     1.0  0.11184  0.55453  0.30773  1.0000
  H   H1990     1.0  0.08456  0.49339  0.29996  1.0000
  H   H1991     1.0  0.08058  0.57574  0.25048  1.0000
  H   H1992     1.0  0.08811  0.58550  0.21969  1.0000
  C   C1654     1.0  0.09361  0.53727  0.24566  1.0000
  H   H1993     1.0  0.12284  0.58159  0.31198  1.0000
  N   N106      1.0  0.12813  0.57723  0.27561  1.0000
  H   H1994     1.0  0.08125  0.62476  0.24282  1.0000
  H   H1995     1.0  0.13701  0.58848  0.26259  1.0000
  H   H1996     1.0  0.06037  0.63256  0.25874  1.0000
  H   H1997     1.0  0.07360  0.65693  0.25698  1.0000
  H   H1998     1.0  0.07737  0.61805  0.25689  1.0000
  C   C1655     1.0  0.05054  0.51352  0.29743  1.0000
  H   H1999     1.0  0.15574  0.70545  0.37079  1.0000
  C   C1656     1.0  0.02835  0.59154  0.22148  1.0000
  C   C1657     1.0  0.12503  0.57367  0.28783  1.0000
  N   N107      1.0  0.10787  0.67214  0.29789  1.0000
  C   C1658     1.0  0.11475  0.67601  0.28685  1.0000
  C   C1659     1.0  0.11321  0.66054  0.30247  1.0000
  C   C1660     1.0  0.09683  0.67189  0.29625  1.0000
  C   C1661     1.0  0.10714  0.67943  0.30539  1.0000
  C   C1662     1.0  0.11699  0.68033  0.30797  1.0000
  C   C1663     1.0  0.09684  0.68582  0.31025  1.0000
  C   C1664     1.0  0.11653  0.68703  0.31512  1.0000
  C   C1665     1.0  0.09650  0.69265  0.31724  1.0000
  C   C1666     1.0  0.10631  0.69319  0.31973  1.0000
  H   H2000     1.0  0.12356  0.67534  0.28718  1.0000
  H   H2001     1.0  0.11506  0.67100  0.28085  1.0000
  H   H2002     1.0  0.11126  0.68487  0.28333  1.0000
  H   H2003     1.0  0.10810  0.65725  0.31067  1.0000
  H   H2004     1.0  0.12173  0.65974  0.30366  1.0000
  H   H2005     1.0  0.11411  0.65492  0.29687  1.0000
  H   H2006     1.0  0.09248  0.68024  0.29231  1.0000
  H   H2007     1.0  0.09764  0.66617  0.29076  1.0000
  H   H2008     1.0  0.09129  0.66884  0.30425  1.0000
  H   H2009     1.0  0.12513  0.67571  0.30463  1.0000
  H   H2010     1.0  0.08887  0.68550  0.30903  1.0000
  H   H2011     1.0  0.12409  0.68727  0.31734  1.0000
  H   H2012     1.0  0.08854  0.69723  0.32109  1.0000
  H   H2013     1.0  0.10597  0.69813  0.32551  1.0000
  H   H2014     1.0  0.03550  0.60499  0.22081  1.0000
  H   H2015     1.0  0.13744  0.64224  0.20592  1.0000
  C   C1667     1.0  0.11879  0.51308  0.25091  1.0000
  H   H2016     1.0  0.10427  0.56038  0.23713  1.0000
  C   C1668     1.0  0.14903  0.73744  0.38091  1.0000
  C   C1669     1.0  0.16749  0.62157  0.18469  1.0000
  H   H2017     1.0  0.10502  0.51130  0.27775  1.0000
  H   H2018     1.0  0.17288  0.62104  0.19011  1.0000
  H   H2019     1.0  0.01562  0.62249  0.23142  1.0000
  H   H2020     1.0  0.09099  0.49537  0.25366  1.0000
  N   N108      1.0  0.07934  0.66918  0.37738  1.0000
  C   C1670     1.0  0.13152  0.65024  0.20349  1.0000
  C   C1671     1.0  0.02837  0.60285  0.21949  1.0000
  C   C1672     1.0  0.10822  0.50919  0.26967  1.0000
  C   C1673     1.0  0.01945  0.58823  0.21988  1.0000
  C   C1674     1.0  0.12619  0.57967  0.29514  1.0000
  H   H2021     1.0  0.36798  0.73669  0.18973  1.0000
  H   H2022     1.0  0.03526  0.58533  0.22435  1.0000
  C   C1675     1.0  0.00889  0.63075  0.21160  1.0000
  H   H2023     1.0  0.12113  0.64151  0.18642  1.0000
  H   H2024     1.0  0.11292  0.66202  0.19784  1.0000
  C   C1676     1.0  0.14647  0.70807  0.37199  1.0000
  H   H2025     1.0  0.14092  0.73158  0.37189  1.0000
  H   H2026     1.0  0.10092  0.49503  0.27455  1.0000
  H   H2027     1.0  0.05558  0.53897  0.30597  1.0000
  C   C1677     1.0  0.08688  0.56061  0.23794  1.0000
  C   C1678     1.0  0.11991  0.56439  0.29274  1.0000
  C   C1679     1.0  0.08533  0.66360  0.24324  1.0000
  C   C1680     1.0  0.08542  0.57846  0.24197  1.0000
  H   H2028     1.0  0.11263  0.57508  0.27357  1.0000
  N   N109      1.0  0.04741  0.53445  0.29561  1.0000
  C   C1681     1.0  0.00358  0.59418  0.27317  1.0000
  H   H2029     1.0  0.05423  0.54908  0.28762  1.0000
  H   H2030     1.0  0.06600  0.57481  0.24155  1.0000
  H   H2031     1.0  0.01213  0.59012  0.27380  1.0000
  H   H2032     1.0  0.14336  0.70150  0.37028  1.0000
  C   C1682     1.0  0.08909  0.66258  0.37079  1.0000
  C   C1683     1.0  0.07714  0.49359  0.28662  1.0000
  H   H2033     1.0  0.07431  0.67858  0.36209  1.0000
  N   N110      1.0  0.12871  0.65107  0.19275  1.0000
  S   S466      1.0  0.09852  0.68943  0.37604  1.0000
  C   C1684     1.0  0.15772  0.59347  0.19039  1.0000
  C   C1685     1.0  0.07571  0.67989  0.36979  1.0000
  H   H2034     1.0  0.13531  0.65724  0.20315  1.0000
  H   H2035     1.0  0.12005  0.50216  0.24067  1.0000
  H   H2036     1.0  0.12398  0.65042  0.21038  1.0000
  H   H2037     1.0  0.11646  0.52295  0.26287  1.0000
  H   H2038     1.0  0.02902  0.63474  0.20248  1.0000
  H   H2039     1.0  0.15976  0.59598  0.19690  1.0000
  H   H2040     1.0  0.05261  0.49607  0.29803  1.0000
  C   C1686     1.0  0.15624  0.62093  0.18918  1.0000
  C   C1687     1.0  0.01934  0.61121  0.21594  1.0000
  C   C1688     1.0  0.11466  0.51577  0.26129  1.0000
  H   H2041     1.0  0.12978  0.63353  0.19598  1.0000
  H   H2042     1.0  0.03142  0.73166  0.36429  1.0000
  H   H2043     1.0  0.09637  0.66672  0.36794  1.0000
  H   H2044     1.0  0.00212  0.60524  0.28363  1.0000
  H   H2045     1.0  0.00314  0.61319  0.21167  1.0000
  C   C1689     1.0  0.05118  0.73445  0.36274  1.0000
  C   C1690     1.0  0.14794  0.58963  0.19255  1.0000
  H   H2046     1.0  0.06816  0.66114  0.37398  1.0000
  H   H2047     1.0  0.00274  0.58425  0.26251  1.0000
  S   S467      1.0  0.07172  0.70949  0.37250  1.0000
  H   H2048     1.0  0.15165  0.64811  0.19259  1.0000
  H   H2049     1.0  0.09174  0.65399  0.37554  1.0000
  H   H2050     1.0  0.05872  0.73209  0.36636  1.0000
  H   H2051     1.0  0.11660  0.66214  0.18345  1.0000
  H   H2052     1.0  0.13743  0.58379  0.18589  1.0000
  H   H2053     1.0  0.10833  0.49212  0.23803  1.0000
  H   H2054     1.0  0.12711  0.72151  0.37745  1.0000
  S   S468      1.0  0.09962  0.71401  0.37885  1.0000
  C   C1691     1.0  0.07018  0.66304  0.38109  1.0000
  C   C1692     1.0  0.99790  0.60272  0.27873  1.0000
  C   C1693     1.0  0.14511  0.58670  0.18415  1.0000
  C   C1694     1.0  0.14961  0.64969  0.18460  1.0000
  C   C1695     1.0  0.13851  0.65107  0.18331  1.0000
  C   C1696     1.0  0.14935  0.62154  0.18212  1.0000
  S   S469      1.0  0.11581  0.68943  0.39836  1.0000
  Fe  Fe236     1.0  0.11882  0.72694  0.55335  1.0000
  S   S470      1.0  0.11425  0.71155  0.56536  1.0000
  H   H2055     1.0  0.09805  0.73416  0.39127  1.0000
  C   C1697     1.0  0.11897  0.69715  0.51795  1.0000
  H   H2056     1.0  0.07409  0.72229  0.44426  1.0000
  S   S471      1.0  0.08906  0.72395  0.46221  1.0000
  H   H2057     1.0  0.05693  0.71091  0.43928  1.0000
  Fe  Fe237     1.0  0.12071  0.71836  0.45000  1.0000
  S   S472      1.0  0.11238  0.70525  0.46230  1.0000
  Fe  Fe238     1.0  0.09922  0.71136  0.45199  1.0000
  S   S473      1.0  0.09062  0.70236  0.44480  1.0000
  Fe  Fe239     1.0  0.10329  0.71929  0.47112  1.0000
  S   S474      1.0  0.09985  0.71834  0.48966  1.0000
  S   S475      1.0  0.10827  0.72346  0.43924  1.0000
  H   H2058     1.0  0.12269  0.70912  0.54247  1.0000
  S   S476      1.0  0.13022  0.73464  0.51165  1.0000
  C   C1698     1.0  0.06598  0.72695  0.44201  1.0000
  C   C1699     1.0  0.12467  0.73017  0.49428  1.0000
  H   H2059     1.0  0.07156  0.70888  0.46192  1.0000
  C   C1700     1.0  0.13603  0.73536  0.42953  1.0000
  C   C1701     1.0  0.10415  0.72522  0.50635  1.0000
  C   C1702     1.0  0.10783  0.72400  0.49530  1.0000
  C   C1703     1.0  0.05451  0.71756  0.40610  1.0000
  H   H2060     1.0  0.05387  0.70152  0.38919  1.0000
  H   H2061     1.0  0.10763  0.72990  0.51980  1.0000
  H   H2062     1.0  0.13418  0.71609  0.56858  1.0000
  C   C1704     1.0  0.11805  0.72671  0.48922  1.0000
  H   H2063     1.0  0.06628  0.70552  0.44839  1.0000
  C   C1705     1.0  0.10851  0.69307  0.41119  1.0000
  C   C1706     1.0  0.09696  0.69744  0.41341  1.0000
  C   C1707     1.0  0.09148  0.69999  0.42385  1.0000
  C   C1708     1.0  0.09757  0.69865  0.43194  1.0000
  C   C1709     1.0  0.10912  0.69434  0.42966  1.0000
  C   C1710     1.0  0.11451  0.69139  0.41942  1.0000
  H   H2064     1.0  0.09223  0.69869  0.40717  1.0000
  H   H2065     1.0  0.08252  0.70321  0.42557  1.0000
  H   H2066     1.0  0.11387  0.69315  0.43587  1.0000
  H   H2067     1.0  0.12341  0.68789  0.41783  1.0000
  C   C1711     1.0  0.12205  0.71761  0.41479  1.0000
  S   S477      1.0  0.04708  0.72156  0.41842  1.0000
  H   H2068     1.0  0.06546  0.72896  0.40211  1.0000
  C   C1712     1.0  0.14286  0.69907  0.39124  1.0000
  C   C1713     1.0  0.08793  0.72865  0.41260  1.0000
  C   C1714     1.0  0.12163  0.70884  0.53424  1.0000
  C   C1715     1.0  0.08183  0.67120  0.38721  1.0000
  H   H2069     1.0  0.06234  0.66787  0.38545  1.0000
  C   C1716     1.0  0.05658  0.70729  0.39212  1.0000
  H   H2070     1.0  0.05754  0.72155  0.49131  1.0000
  C   C1717     1.0  0.05784  0.71078  0.44772  1.0000
  N   N111      1.0  0.13073  0.70055  0.52909  1.0000
  C   C1718     1.0  0.06486  0.71441  0.46626  1.0000
  H   H2071     1.0  0.09840  0.65993  0.38683  1.0000
  C   C1719     1.0  0.05133  0.70971  0.40254  1.0000
  C   C1720     1.0  0.06531  0.71238  0.38552  1.0000
  C   C1721     1.0  0.06313  0.72276  0.39942  1.0000
  H   H2072     1.0  0.09624  0.72322  0.51109  1.0000
  C   C1722     1.0  0.09419  0.66827  0.39998  1.0000
  S   S478      1.0  0.13563  0.72644  0.54193  1.0000
  H   H2073     1.0  0.10212  0.66442  0.40244  1.0000
  C   C1723     1.0  0.12078  0.70746  0.57673  1.0000
  C   C1724     1.0  0.10688  0.73263  0.40857  1.0000
  H   H2074     1.0  0.12488  0.70908  0.41893  1.0000
  H   H2075     1.0  0.16029  0.72231  0.40291  1.0000
  N   N112      1.0  0.05647  0.72217  0.44937  1.0000
  H   H2076     1.0  0.04164  0.73540  0.46392  1.0000
  H   H2077     1.0  0.04251  0.73481  0.48265  1.0000
  H   H2078     1.0  0.09067  0.72167  0.40818  1.0000
  H   H2079     1.0  0.15334  0.70789  0.39962  1.0000
  C   C1725     1.0  0.14613  0.71832  0.38547  1.0000
  C   C1726     1.0  0.15607  0.72419  0.39611  1.0000
  H   H2080     1.0  0.08803  0.72520  0.42154  1.0000
  H   H2081     1.0  0.12292  0.69895  0.49029  1.0000
  C   C1727     1.0  0.14369  0.72583  0.43335  1.0000
  C   C1728     1.0  0.12914  0.72498  0.41175  1.0000
  C   C1729     1.0  0.12110  0.73116  0.50541  1.0000
  C   C1730     1.0  0.15198  0.71596  0.39412  1.0000
  H   H2082     1.0  0.06500  0.73571  0.44253  1.0000
  C   C1731     1.0  0.15517  0.72523  0.42932  1.0000
  C   C1732     1.0  0.05635  0.72185  0.46102  1.0000
  C   C1733     1.0  0.06517  0.71425  0.47710  1.0000
  H   H2083     1.0  0.13276  0.68934  0.54473  1.0000
  H   H2084     1.0  0.11321  0.70711  0.53559  1.0000
  H   H2085     1.0  0.10924  0.69474  0.50772  1.0000
  H   H2086     1.0  0.14275  0.70372  0.53631  1.0000
  S   S479      1.0  0.13912  0.71448  0.44294  1.0000
  H   H2087     1.0  0.13738  0.72220  0.41365  1.0000
  H   H2088     1.0  0.12152  0.71731  0.52893  1.0000
  H   H2089     1.0  0.14387  0.70555  0.50744  1.0000
  Fe  Fe240     1.0  0.12596  0.73766  0.52919  1.0000
  H   H2090     1.0  0.13904  0.69305  0.38944  1.0000
  C   C1734     1.0  0.13087  0.68948  0.53670  1.0000
  H   H2091     1.0  0.14171  0.71215  0.52290  1.0000
  C   C1735     1.0  0.11698  0.69662  0.50794  1.0000
  H   H2092     1.0  0.14877  0.69761  0.52447  1.0000
  H   H2093     1.0  0.07250  0.65500  0.38693  1.0000
  Fe  Fe241     1.0  0.09904  0.73556  0.44998  1.0000
  H   H2094     1.0  0.06671  0.72682  0.43322  1.0000
  C   C1736     1.0  0.13641  0.70272  0.50809  1.0000
  H   H2095     1.0  0.04453  0.70583  0.40766  1.0000
  S   S480      1.0  0.10905  0.73724  0.54046  1.0000
  H   H2096     1.0  0.07191  0.70864  0.48082  1.0000
  H   H2097     1.0  0.12106  0.72570  0.48075  1.0000
  H   H2098     1.0  0.13728  0.68290  0.53293  1.0000
  H   H2099     1.0  0.07904  0.73234  0.41206  1.0000
  C   C1737     1.0  0.11066  0.72892  0.51134  1.0000
  C   C1738     1.0  0.07396  0.67866  0.39347  1.0000
  H   H2100     1.0  0.13272  0.73188  0.48962  1.0000
  C   C1739     1.0  0.07633  0.68110  0.40245  1.0000
  C   C1740     1.0  0.08646  0.67597  0.40565  1.0000
  H   H2101     1.0  0.05149  0.70646  0.45386  1.0000
  H   H2102     1.0  0.12265  0.68707  0.53884  1.0000
  S   S481      1.0  0.11255  0.73194  0.45936  1.0000
  H   H2103     1.0  0.10600  0.71525  0.41583  1.0000
  C   C1741     1.0  0.14148  0.70361  0.52810  1.0000
  C   C1742     1.0  0.12878  0.70018  0.51835  1.0000
  H   H2104     1.0  0.04734  0.73238  0.38488  1.0000
  C   C1743     1.0  0.12470  0.69900  0.49807  1.0000
  H   H2105     1.0  0.16108  0.71787  0.43228  1.0000
  H   H2106     1.0  0.07527  0.72413  0.38398  1.0000
  C   C1744     1.0  0.13035  0.71114  0.57622  1.0000
  H   H2107     1.0  0.03853  0.72607  0.45126  1.0000
  H   H2108     1.0  0.07034  0.68713  0.40686  1.0000
  H   H2109     1.0  0.08838  0.67801  0.41249  1.0000
  C   C1745     1.0  0.11112  0.72131  0.41311  1.0000
  H   H2110     1.0  0.08535  0.69678  0.57896  1.0000
  H   H2111     1.0  0.14015  0.70428  0.49037  1.0000
  H   H2112     1.0  0.11264  0.69538  0.52534  1.0000
  C   C1746     1.0  0.15449  0.73493  0.38960  1.0000
  C   C1747     1.0  0.13439  0.70203  0.49815  1.0000
  C   C1748     1.0  0.04606  0.72901  0.44581  1.0000
  C   C1749     1.0  0.04867  0.72900  0.47811  1.0000
  H   H2113     1.0  0.03251  0.73615  0.38710  1.0000
  C   C1750     1.0  0.06868  0.72002  0.38920  1.0000
  H   H2114     1.0  0.09694  0.72980  0.57193  1.0000
  C   C1751     1.0  0.04825  0.72920  0.46728  1.0000
  C   C1752     1.0  0.05712  0.72155  0.48300  1.0000
  Fe  Fe242     1.0  0.10917  0.69638  0.38257  1.0000
  H   H2115     1.0  0.01191  0.73372  0.39316  1.0000
  H   H2116     1.0  0.12489  0.71666  0.39222  1.0000
  H   H2117     1.0  0.13870  0.69988  0.39991  1.0000
  H   H2118     1.0  0.06597  0.68281  0.39138  1.0000
  H   H2119     1.0  0.04614  0.72875  0.43722  1.0000
  C   C1753     1.0  0.09192  0.66579  0.39095  1.0000
  H   H2120     1.0  0.04504  0.73795  0.44566  1.0000
  C   C1754     1.0  0.12905  0.71423  0.38417  1.0000
  H   H2121     1.0  0.16792  0.73378  0.41869  1.0000
  C   C1755     1.0  0.15902  0.73421  0.42162  1.0000
  C   C1756     1.0  0.12554  0.73596  0.40653  1.0000
  C   C1757     1.0  0.08966  0.73374  0.57772  1.0000
  H   H2122     1.0  0.08185  0.73397  0.57527  1.0000
  H   H2123     1.0  0.08782  0.71567  0.57460  1.0000
  H   H2124     1.0  0.12715  0.73584  0.43263  1.0000
  N   N113      1.0  0.09505  0.73701  0.40766  1.0000
  H   H2125     1.0  0.13193  0.73199  0.58120  1.0000
  H   H2126     1.0  0.15188  0.69512  0.39080  1.0000
  H   H2127     1.0  0.12495  0.70788  0.38347  1.0000
  N   N114      1.0  0.14127  0.71000  0.38333  1.0000
  Fe  Fe243     1.0  0.10021  0.62982  0.72138  1.0000
  S   S482      1.0  0.09773  0.62454  0.70719  1.0000
  S   S483      1.0  0.08689  0.64282  0.72904  1.0000
  Fe  Fe244     1.0  0.12325  0.61485  0.72101  1.0000
  S   S484      1.0  0.12280  0.60843  0.70649  1.0000
  S   S485      1.0  0.13733  0.60675  0.73007  1.0000
  Fe  Fe245     1.0  0.11544  0.62632  0.69945  1.0000
  S   S486      1.0  0.11877  0.63418  0.68109  1.0000
  Fe  Fe246     1.0  0.10523  0.60733  0.71540  1.0000
  S   S487      1.0  0.09624  0.59351  0.71878  1.0000
  S   S488      1.0  0.11744  0.63287  0.71319  1.0000
  S   S489      1.0  0.10615  0.61246  0.73035  1.0000
  H   H2128     1.0  0.12388  0.62528  0.74008  1.0000
  Fe  Fe247     1.0  0.12229  0.70144  0.62284  1.0000
  S   S490      1.0  0.10669  0.71451  0.62170  1.0000
  S   S491      1.0  0.13555  0.69931  0.60748  1.0000
  Fe  Fe248     1.0  0.11617  0.69523  0.64790  1.0000
  S   S492      1.0  0.10005  0.70807  0.64891  1.0000
  S   S493      1.0  0.12193  0.68490  0.66348  1.0000
  Fe  Fe249     1.0  0.09821  0.70213  0.63478  1.0000
  S   S494      1.0  0.08183  0.70057  0.63282  1.0000
  Fe  Fe250     1.0  0.10989  0.71945  0.63576  1.0000
  H   H2129     1.0  0.13683  0.52352  0.69568  1.0000
  S   S495      1.0  0.11354  0.68840  0.63467  1.0000
  S   S496      1.0  0.12629  0.70723  0.63600  1.0000
  H   H2130     1.0  0.00684  0.72427  0.60167  1.0000
  H   H2131     1.0  0.12210  0.52597  0.70243  1.0000
  H   H2132     1.0  0.16877  0.54074  0.78039  1.0000
  Fe  Fe251     1.0  0.05676  0.58715  0.76799  1.0000
  S   S497      1.0  0.06536  0.57818  0.75432  1.0000
  S   S498      1.0  0.04410  0.60327  0.76600  1.0000
  C   C1758     1.0  0.07982  0.73388  0.59648  1.0000
  Fe  Fe252     1.0  0.12151  0.53325  0.74115  1.0000
  S   S499      1.0  0.11807  0.53865  0.75717  1.0000
  S   S500      1.0  0.12589  0.54468  0.72462  1.0000
  Fe  Fe253     1.0  0.12230  0.50875  0.75196  1.0000
  Fe  Fe254     1.0  0.10658  0.52668  0.76326  1.0000
  H   H2133     1.0  0.14433  0.52219  0.71628  1.0000
  Fe  Fe255     1.0  0.13113  0.52360  0.76171  1.0000
  S   S501      1.0  0.10847  0.52283  0.74672  1.0000
  S   S502      1.0  0.13555  0.51890  0.74519  1.0000
  H   H2134     1.0  0.08591  0.68900  0.65472  1.0000
  N   N115      1.0  0.08774  0.66532  0.69631  1.0000
  H   H2135     1.0  0.09217  0.66857  0.65804  1.0000
  C   C1759     1.0  0.09992  0.72810  0.59207  1.0000
  C   C1760     1.0  0.06500  0.72815  0.64433  1.0000
  C   C1761     1.0  0.09965  0.63826  0.75309  1.0000
  H   H2136     1.0  0.13679  0.58179  0.75406  1.0000
  H   H2137     1.0  0.02445  0.73268  0.62365  1.0000
  H   H2138     1.0  0.11602  0.51565  0.72133  1.0000
  C   C1762     1.0  0.07231  0.56495  0.76010  1.0000
  C   C1763     1.0  0.07220  0.56203  0.77144  1.0000
  C   C1764     1.0  0.11893  0.57205  0.76663  1.0000
  C   C1765     1.0  0.08348  0.54385  0.76946  1.0000
  N   N116      1.0  0.08943  0.72772  0.58939  1.0000
  H   H2139     1.0  0.14711  0.57488  0.74424  1.0000
  C   C1766     1.0  0.07263  0.71329  0.63429  1.0000
  C   C1767     1.0  0.06693  0.71955  0.62592  1.0000
  C   C1768     1.0  0.13719  0.49336  0.71646  1.0000
  H   H2140     1.0  0.01383  0.56537  0.77292  1.0000
  S   S503      1.0  0.09062  0.53083  0.77538  1.0000
  C   C1769     1.0  0.07162  0.71758  0.64350  1.0000
  H   H2141     1.0  0.06762  0.71620  0.61883  1.0000
  H   H2142     1.0  0.14017  0.49283  0.72374  1.0000
  H   H2143     1.0  0.07586  0.71271  0.65005  1.0000
  C   C1770     1.0  0.12992  0.70225  0.59565  1.0000
  H   H2144     1.0  0.14708  0.63446  0.66965  1.0000
  C   C1771     1.0  0.08979  0.67268  0.66494  1.0000
  C   C1772     1.0  0.14812  0.63927  0.65204  1.0000
  C   C1773     1.0  0.12030  0.69867  0.59620  1.0000
  C   C1774     1.0  0.14725  0.65911  0.64356  1.0000
  S   S504      1.0  0.11937  0.51192  0.76902  1.0000
  H   H2145     1.0  0.11631  0.69393  0.60390  1.0000
  H   H2146     1.0  0.08092  0.69858  0.67024  1.0000
  H   H2147     1.0  0.13658  0.55414  0.74989  1.0000
  H   H2148     1.0  0.12969  0.72905  0.63424  1.0000
  C   C1775     1.0  0.11962  0.64829  0.67633  1.0000
  C   C1776     1.0  0.12203  0.65404  0.68292  1.0000
  C   C1777     1.0  0.12271  0.66527  0.67885  1.0000
  C   C1778     1.0  0.12075  0.67088  0.66831  1.0000
  C   C1779     1.0  0.11829  0.66515  0.66175  1.0000
  C   C1780     1.0  0.11785  0.65385  0.66570  1.0000
  H   H2149     1.0  0.12356  0.64978  0.69105  1.0000
  H   H2150     1.0  0.12479  0.66962  0.68390  1.0000
  H   H2151     1.0  0.11683  0.66937  0.65360  1.0000
  H   H2152     1.0  0.11605  0.64942  0.66055  1.0000
  C   C1781     1.0  0.07840  0.63748  0.74159  1.0000
  C   C1782     1.0  0.07235  0.64456  0.74877  1.0000
  C   C1783     1.0  0.06575  0.64044  0.75896  1.0000
  C   C1784     1.0  0.06491  0.62930  0.76188  1.0000
  C   C1785     1.0  0.07077  0.62223  0.75461  1.0000
  C   C1786     1.0  0.07765  0.62629  0.74453  1.0000
  H   H2153     1.0  0.07293  0.65321  0.74656  1.0000
  H   H2154     1.0  0.06123  0.64593  0.76456  1.0000
  H   H2155     1.0  0.07010  0.61362  0.75682  1.0000
  H   H2156     1.0  0.08226  0.62083  0.73896  1.0000
  C   C1787     1.0  0.10457  0.57999  0.72051  1.0000
  C   C1788     1.0  0.09991  0.57114  0.72756  1.0000
  C   C1789     1.0  0.10646  0.56026  0.72903  1.0000
  C   C1790     1.0  0.11757  0.55820  0.72318  1.0000
  C   C1791     1.0  0.12218  0.56704  0.71607  1.0000
  C   C1792     1.0  0.11573  0.57795  0.71484  1.0000
  H   H2157     1.0  0.09127  0.57270  0.73197  1.0000
  H   H2158     1.0  0.10285  0.55347  0.73454  1.0000
  H   H2159     1.0  0.13077  0.56547  0.71152  1.0000
  H   H2160     1.0  0.11933  0.58472  0.70930  1.0000
  C   C1793     1.0  0.13574  0.60975  0.74307  1.0000
  C   C1794     1.0  0.14182  0.60231  0.75070  1.0000
  C   C1795     1.0  0.13994  0.60398  0.76149  1.0000
  C   C1796     1.0  0.13247  0.61349  0.76447  1.0000
  C   C1797     1.0  0.12705  0.62135  0.75656  1.0000
  C   C1798     1.0  0.12839  0.61933  0.74600  1.0000
  H   H2161     1.0  0.14790  0.59515  0.74831  1.0000
  H   H2162     1.0  0.14434  0.59795  0.76746  1.0000
  H   H2163     1.0  0.12160  0.62888  0.75871  1.0000
  C   C1799     1.0  0.08735  0.71124  0.58312  1.0000
  H   H2164     1.0  0.12525  0.51101  0.69545  1.0000
  C   C1800     1.0  0.12012  0.57110  0.75556  1.0000
  C   C1801     1.0  0.12781  0.73061  0.60365  1.0000
  H   H2165     1.0  0.10393  0.66808  0.69530  1.0000
  H   H2166     1.0  0.09256  0.67780  0.70147  1.0000
  H   H2167     1.0  0.14419  0.72976  0.58662  1.0000
  C   C1802     1.0  0.08579  0.50311  0.75644  1.0000
  H   H2168     1.0  0.09331  0.65755  0.67644  1.0000
  H   H2169     1.0  0.15785  0.67389  0.61825  1.0000
  C   C1803     1.0  0.08402  0.68342  0.68255  1.0000
  C   C1804     1.0  0.09977  0.60374  0.75973  1.0000
  C   C1805     1.0  0.01489  0.57974  0.77801  1.0000
  C   C1806     1.0  0.00917  0.57288  0.77575  1.0000
  H   H2170     1.0  0.16016  0.65907  0.62301  1.0000
  H   H2171     1.0  0.10835  0.59255  0.77710  1.0000
  C   C1807     1.0  0.06062  0.73032  0.62655  1.0000
  H   H2172     1.0  0.14048  0.66092  0.62393  1.0000
  H   H2173     1.0  0.14341  0.68631  0.62873  1.0000
  C   C1808     1.0  0.09543  0.66897  0.70075  1.0000
  C   C1809     1.0  0.12434  0.51566  0.72258  1.0000
  H   H2174     1.0  0.14294  0.56159  0.73666  1.0000
  C   C1810     1.0  0.09958  0.62693  0.75551  1.0000
  H   H2175     1.0  0.12435  0.58922  0.74027  1.0000
  H   H2176     1.0  0.12218  0.57986  0.73328  1.0000
  C   C1811     1.0  0.08397  0.54686  0.75805  1.0000
  H   H2177     1.0  0.09257  0.56752  0.77797  1.0000
  H   H2178     1.0  0.10838  0.50125  0.73666  1.0000
  C   C1812     1.0  0.12807  0.58122  0.73751  1.0000
  C   C1813     1.0  0.13923  0.54479  0.77489  1.0000
  C   C1814     1.0  0.08348  0.68958  0.67181  1.0000
  S   S505      1.0  0.14449  0.52357  0.77021  1.0000
  H   H2179     1.0  0.08140  0.61252  0.77406  1.0000
  C   C1815     1.0  0.08560  0.69381  0.59618  1.0000
  H   H2180     1.0  0.09941  0.62363  0.74872  1.0000
  C   C1816     1.0  0.14175  0.55292  0.77888  1.0000
  C   C1817     1.0  0.09038  0.66643  0.67564  1.0000
  H   H2181     1.0  0.09630  0.66395  0.70919  1.0000
  C   C1818     1.0  0.14689  0.66074  0.65418  1.0000
  H   H2182     1.0  0.16418  0.52621  0.77425  1.0000
  C   C1819     1.0  0.13078  0.52432  0.70367  1.0000
  H   H2183     1.0  0.08861  0.54103  0.75284  1.0000
  H   H2184     1.0  0.11103  0.56840  0.74474  1.0000
  H   H2185     1.0  0.13577  0.58244  0.73103  1.0000
  H   H2186     1.0  0.12911  0.55965  0.73892  1.0000
  H   H2187     1.0  0.07026  0.66501  0.70021  1.0000
  C   C1820     1.0  0.09156  0.65311  0.69723  1.0000
  C   C1821     1.0  0.14415  0.67952  0.63625  1.0000
  H   H2188     1.0  0.08176  0.68798  0.68907  1.0000
  C   C1822     1.0  0.13815  0.66808  0.62801  1.0000
  H   H2189     1.0  0.15112  0.51200  0.70787  1.0000
  H   H2190     1.0  0.12549  0.57374  0.76932  1.0000
  H   H2191     1.0  0.14231  0.56696  0.75767  1.0000
  C   C1823     1.0  0.10025  0.63701  0.77197  1.0000
  C   C1824     1.0  0.07823  0.55738  0.75338  1.0000
  C   C1825     1.0  0.08799  0.70917  0.60225  1.0000
  H   H2192     1.0  0.01341  0.72443  0.61647  1.0000
  H   H2193     1.0  0.10016  0.65204  0.75932  1.0000
  H   H2194     1.0  0.12363  0.52361  0.72490  1.0000
  H   H2195     1.0  0.00489  0.53756  0.76099  1.0000
  H   H2196     1.0  0.13606  0.68087  0.64234  1.0000
  H   H2197     1.0  0.06812  0.56796  0.77660  1.0000
  C   C1826     1.0  0.08745  0.67164  0.68482  1.0000
  C   C1827     1.0  0.12804  0.49348  0.69900  1.0000
  H   H2198     1.0  0.13098  0.54585  0.77345  1.0000
  C   C1828     1.0  0.10881  0.60146  0.77444  1.0000
  H   H2199     1.0  0.12239  0.72590  0.60214  1.0000
  C   C1829     1.0  0.13953  0.57397  0.75097  1.0000
  C   C1830     1.0  0.14408  0.51404  0.71486  1.0000
  H   H2200     1.0  0.10098  0.73677  0.59040  1.0000
  H   H2201     1.0  0.14880  0.64607  0.63489  1.0000
  H   H2202     1.0  0.13004  0.66758  0.63403  1.0000
  H   H2203     1.0  0.14844  0.63093  0.65131  1.0000
  H   H2204     1.0  0.09250  0.60797  0.75580  1.0000
  C   C1831     1.0  0.00888  0.58933  0.78194  1.0000
  H   H2205     1.0  0.13667  0.67564  0.62131  1.0000
  C   C1832     1.0  0.10095  0.56803  0.76094  1.0000
  N   N117      1.0  0.14683  0.66833  0.63364  1.0000
  C   C1833     1.0  0.14703  0.65187  0.66340  1.0000
  H   H2206     1.0  0.07323  0.67620  0.70407  1.0000
  N   N118      1.0  0.06286  0.60587  0.72952  1.0000
  C   C1834     1.0  0.07165  0.60141  0.73609  1.0000
  C   C1835     1.0  0.05508  0.59812  0.73320  1.0000
  C   C1836     1.0  0.06815  0.60583  0.71769  1.0000
  C   C1837     1.0  0.05735  0.61733  0.73098  1.0000
  C   C1838     1.0  0.04626  0.62008  0.73726  1.0000
  C   C1839     1.0  0.06336  0.62600  0.72672  1.0000
  C   C1840     1.0  0.04160  0.63082  0.73916  1.0000
  C   C1841     1.0  0.05858  0.63672  0.72859  1.0000
  C   C1842     1.0  0.04775  0.63910  0.73487  1.0000
  H   H2207     1.0  0.07833  0.60625  0.73319  1.0000
  H   H2208     1.0  0.06808  0.60143  0.74501  1.0000
  H   H2209     1.0  0.07590  0.59267  0.73549  1.0000
  H   H2210     1.0  0.05155  0.59685  0.74228  1.0000
  H   H2211     1.0  0.05946  0.58964  0.73177  1.0000
  H   H2212     1.0  0.04810  0.60112  0.72873  1.0000
  H   H2213     1.0  0.07527  0.61011  0.71457  1.0000
  H   H2214     1.0  0.07189  0.59720  0.71638  1.0000
  H   H2215     1.0  0.06198  0.60983  0.71233  1.0000
  H   H2216     1.0  0.04107  0.61404  0.74100  1.0000
  H   H2217     1.0  0.07197  0.62445  0.72226  1.0000
  H   H2218     1.0  0.03322  0.63266  0.74417  1.0000
  H   H2219     1.0  0.06347  0.64310  0.72551  1.0000
  H   H2220     1.0  0.04419  0.64734  0.73656  1.0000
  C   C1843     1.0  0.16050  0.54194  0.77890  1.0000
  H   H2221     1.0  0.08637  0.69316  0.61283  1.0000
  H   H2222     1.0  0.10079  0.49349  0.72515  1.0000
  S   S506      1.0  0.05684  0.62432  0.77484  1.0000
  H   H2223     1.0  0.99788  0.71666  0.62056  1.0000
  S   S507      1.0  0.06677  0.59256  0.77666  1.0000
  C   C1844     1.0  0.11597  0.70096  0.58666  1.0000
  C   C1845     1.0  0.11076  0.56918  0.75297  1.0000
  H   H2224     1.0  0.12419  0.49345  0.69244  1.0000
  H   H2225     1.0  0.12608  0.50885  0.72982  1.0000
  H   H2226     1.0  0.09403  0.56643  0.75868  1.0000
  C   C1846     1.0  0.10913  0.57064  0.77463  1.0000
  C   C1847     1.0  0.13508  0.70826  0.58558  1.0000
  H   H2227     1.0  0.13588  0.72465  0.60467  1.0000
  H   H2228     1.0  0.07172  0.73307  0.59532  1.0000
  H   H2229     1.0  0.08458  0.68531  0.59800  1.0000
  C   C1848     1.0  0.08835  0.71605  0.59148  1.0000
  N   N119      1.0  0.09932  0.60834  0.76931  1.0000
  H   H2230     1.0  0.08553  0.51674  0.76338  1.0000
  C   C1849     1.0  0.12869  0.50354  0.70086  1.0000
  C   C1850     1.0  0.09986  0.62026  0.76631  1.0000
  Fe  Fe256     1.0  0.05303  0.60781  0.77642  1.0000
  C   C1851     1.0  0.01620  0.73724  0.62235  1.0000
  S   S508      1.0  0.12884  0.61514  0.77828  1.0000
  H   H2231     1.0  0.15078  0.68075  0.63965  1.0000
  H   H2232     1.0  0.14640  0.65336  0.67149  1.0000
  H   H2233     1.0  0.07625  0.66239  0.71211  1.0000
  C   C1852     1.0  0.11140  0.49262  0.73610  1.0000
  C   C1853     1.0  0.07759  0.55142  0.77615  1.0000
  H   H2234     1.0  0.13134  0.53201  0.70583  1.0000
  N   N120      1.0  0.13052  0.57192  0.74697  1.0000
  C   C1854     1.0  0.14745  0.64121  0.66237  1.0000
  H   H2235     1.0  0.10019  0.72439  0.60088  1.0000
  H   H2236     1.0  0.09180  0.64864  0.70591  1.0000
  N   N121      1.0  0.13317  0.51430  0.71253  1.0000
  H   H2237     1.0  0.14613  0.66884  0.65572  1.0000
  C   C1855     1.0  0.14817  0.64803  0.64272  1.0000
  C   C1856     1.0  0.09152  0.50092  0.77345  1.0000
  C   C1857     1.0  0.13495  0.56140  0.74295  1.0000
  H   H2238     1.0  0.10021  0.65089  0.69235  1.0000
  C   C1858     1.0  0.08828  0.49156  0.75761  1.0000
  C   C1859     1.0  0.08633  0.68421  0.66304  1.0000
  H   H2239     1.0  0.09958  0.59473  0.76219  1.0000
  C   C1860     1.0  0.10014  0.56867  0.77178  1.0000
  H   H2240     1.0  0.16459  0.66718  0.62974  1.0000
  C   C1861     1.0  0.09995  0.64330  0.76130  1.0000
  C   C1862     1.0  0.08741  0.50778  0.76434  1.0000
  C   C1863     1.0  0.07637  0.66734  0.70347  1.0000
  H   H2241     1.0  0.08869  0.71222  0.60905  1.0000
  H   H2242     1.0  0.10086  0.64085  0.77825  1.0000
  H   H2243     1.0  0.07846  0.55965  0.74458  1.0000
  H   H2244     1.0  0.10765  0.60452  0.75340  1.0000
  C   C1864     1.0  0.13331  0.50378  0.70969  1.0000
  H   H2245     1.0  0.08593  0.64964  0.69446  1.0000
  C   C1865     1.0  0.15784  0.66705  0.62582  1.0000
  C   C1866     1.0  0.08664  0.69823  0.60452  1.0000
  C   C1867     1.0  0.12843  0.73790  0.63093  1.0000
  H   H2246     1.0  0.08268  0.50849  0.74931  1.0000
  H   H2247     1.0  0.09956  0.64314  0.74475  1.0000
  H   H2248     1.0  0.12418  0.73288  0.61183  1.0000
  C   C1868     1.0  0.00185  0.53464  0.75517  1.0000
  C   C1869     1.0  0.10016  0.62568  0.77447  1.0000
  C   C1870     1.0  0.08597  0.70029  0.58549  1.0000
  H   H2249     1.0  0.11691  0.60195  0.76848  1.0000
  C   C1871     1.0  0.08872  0.60700  0.77739  1.0000
  C   C1872     1.0  0.15243  0.55149  0.78087  1.0000
  H   H2250     1.0  0.08760  0.59832  0.77936  1.0000
  C   C1873     1.0  0.14730  0.53502  0.77338  1.0000
  H   H2251     1.0  0.07989  0.73082  0.60543  1.0000
  H   H2252     1.0  0.14576  0.50792  0.72255  1.0000
  H   H2253     1.0  0.10873  0.69791  0.58706  1.0000
  H   H2254     1.0  0.00307  0.52542  0.75779  1.0000
  S   S509      1.0  0.10605  0.73799  0.63440  1.0000
  H   H2255     1.0  0.00748  0.53666  0.74692  1.0000
  C   C1874     1.0  0.15790  0.53371  0.77536  1.0000
  S   S510      1.0  0.12583  0.49099  0.74963  1.0000
  H   H2256     1.0  0.14593  0.73812  0.62783  1.0000
  H   H2257     1.0  0.02389  0.57748  0.77695  1.0000
  H   H2258     1.0  0.05643  0.73525  0.61997  1.0000
  H   H2259     1.0  0.10732  0.72354  0.58695  1.0000
  C   C1875     1.0  0.05968  0.73461  0.63577  1.0000
  H   H2260     1.0  0.06416  0.73138  0.65154  1.0000
  C   C1876     1.0  0.00982  0.73262  0.61820  1.0000
  H   H2261     1.0  0.13544  0.56017  0.78060  1.0000
  H   H2262     1.0  0.09284  0.50465  0.77951  1.0000
  H   H2263     1.0  0.10921  0.60400  0.78190  1.0000
  H   H2264     1.0  0.14265  0.71086  0.58507  1.0000
  C   C1877     1.0  0.99919  0.73089  0.60084  1.0000
  C   C1878     1.0  0.09403  0.48935  0.77472  1.0000
  H   H2265     1.0  0.00190  0.73839  0.59508  1.0000
  C   C1879     1.0  0.13658  0.73599  0.58464  1.0000
  C   C1880     1.0  0.99909  0.73851  0.61622  1.0000
  H   H2266     1.0  0.03703  0.54916  0.78205  1.0000
  Fe  Fe257     1.0  0.21636  0.60177  0.96471  1.0000
  S   S511      1.0  0.22975  0.61007  0.95299  1.0000
  Fe  Fe258     1.0  0.20623  0.60113  0.94553  1.0000
  S   S512      1.0  0.21870  0.60968  0.93265  1.0000
  S   S513      1.0  0.19333  0.59520  0.94074  1.0000
  Fe  Fe259     1.0  0.23106  0.59824  0.94245  1.0000
  S   S514      1.0  0.24752  0.59069  0.93279  1.0000
  Fe  Fe260     1.0  0.21595  0.62051  0.94460  1.0000
  S   S515      1.0  0.21410  0.63893  0.94027  1.0000
  S   S516      1.0  0.21883  0.58887  0.95476  1.0000
  S   S517      1.0  0.20231  0.61300  0.95690  1.0000
  Fe  Fe261     1.0  0.24389  0.54242  0.89647  1.0000
  S   S518      1.0  0.25907  0.53970  0.88289  1.0000
  S   S519      1.0  0.22589  0.54786  0.89551  1.0000
  Fe  Fe262     1.0  0.25734  0.53846  0.91389  1.0000
  S   S520      1.0  0.27382  0.53484  0.90194  1.0000
  S   S521      1.0  0.25353  0.54027  0.93159  1.0000
  Fe  Fe263     1.0  0.26622  0.54981  0.89015  1.0000
  S   S522      1.0  0.27314  0.56504  0.87968  1.0000
  Fe  Fe264     1.0  0.26518  0.52505  0.89576  1.0000
  S   S523      1.0  0.27164  0.50727  0.89324  1.0000
  S   S524      1.0  0.25034  0.55367  0.90244  1.0000
  S   S525      1.0  0.24947  0.52742  0.90892  1.0000
  Fe  Fe265     1.0  0.27151  0.63553  0.87342  1.0000
  S   S526      1.0  0.28920  0.62639  0.87468  1.0000
  S   S527      1.0  0.26425  0.63402  0.85960  1.0000
  Fe  Fe266     1.0  0.26720  0.64193  0.89561  1.0000
  S   S528      1.0  0.28387  0.63233  0.89913  1.0000
  S   S529      1.0  0.25629  0.65367  0.90632  1.0000
  Fe  Fe267     1.0  0.29054  0.64049  0.88160  1.0000
  S   S530      1.0  0.30430  0.65067  0.87714  1.0000
  Fe  Fe268     1.0  0.28106  0.61917  0.89204  1.0000
  S   S531      1.0  0.28327  0.60074  0.90008  1.0000
  S   S532      1.0  0.27371  0.65034  0.87821  1.0000
  S   S533      1.0  0.26355  0.62805  0.89066  1.0000
  Fe  Fe269     1.0  0.20576  0.62249  0.86078  1.0000
  S   S534      1.0  0.18721  0.62286  0.86621  1.0000
  S   S535      1.0  0.21268  0.63621  0.86298  1.0000
  Fe  Fe270     1.0  0.21091  0.59914  0.85746  1.0000
  S   S536      1.0  0.19312  0.59722  0.86322  1.0000
  S   S537      1.0  0.22464  0.58522  0.85216  1.0000
  Fe  Fe271     1.0  0.18922  0.61411  0.85241  1.0000
  S   S538      1.0  0.17680  0.61797  0.84097  1.0000
  Fe  Fe272     1.0  0.19249  0.60589  0.87652  1.0000
  S   S539      1.0  0.18273  0.59981  0.89371  1.0000
  S   S540      1.0  0.20731  0.61561  0.84586  1.0000
  S   S541      1.0  0.21075  0.60596  0.87182  1.0000
  Fe  Fe273     1.0  0.14438  0.58883  0.81091  1.0000
  H   H2267     1.0  0.13044  0.53293  0.82739  1.0000
  S   S542      1.0  0.15405  0.58814  0.82409  1.0000
  Fe  Fe274     1.0  0.12302  0.58266  0.80863  1.0000
  C   C1881     1.0  0.14063  0.59806  0.85150  1.0000
  S   S543      1.0  0.10750  0.57629  0.81863  1.0000
  H   H2268     1.0  0.49678  0.70446  0.93812  1.0000
  H   H2269     1.0  0.40486  0.72804  0.92038  1.0000
  H   H2270     1.0  0.21821  0.58740  0.89134  1.0000
  S   S544      1.0  0.13963  0.57265  0.81222  1.0000
  S   S545      1.0  0.12706  0.59865  0.80892  1.0000
  Fe  Fe275     1.0  0.33869  0.70109  0.91570  1.0000
  S   S546      1.0  0.34591  0.68317  0.91473  1.0000
  S   S547      1.0  0.33181  0.70663  0.93211  1.0000
  Fe  Fe276     1.0  0.34131  0.70827  0.89091  1.0000
  S   S548      1.0  0.34897  0.69101  0.88790  1.0000
  S   S549      1.0  0.33846  0.72249  0.87648  1.0000
  Fe  Fe277     1.0  0.33538  0.68557  0.90226  1.0000
  S   S550      1.0  0.32515  0.67226  0.90475  1.0000
  Fe  Fe278     1.0  0.35873  0.69007  0.90047  1.0000
  S   S551      1.0  0.37710  0.68175  0.89855  1.0000
  S   S552      1.0  0.32710  0.70309  0.90445  1.0000
  S   S553      1.0  0.35217  0.70775  0.90226  1.0000
  H   H2271     1.0  0.38108  0.73558  0.92077  1.0000
  H   H2272     1.0  0.00632  0.57433  0.81565  1.0000
  H   H2273     1.0  0.20818  0.49178  0.90823  1.0000
  H   H2274     1.0  0.22060  0.59395  0.82861  1.0000
  H   H2275     1.0  0.04878  0.62649  0.80273  1.0000
  H   H2276     1.0  0.40659  0.71471  0.91716  1.0000
  C   C1882     1.0  0.12130  0.53442  0.79605  1.0000
  H   H2277     1.0  0.22098  0.58095  0.91743  1.0000
  H   H2278     1.0  0.38825  0.67967  0.92276  1.0000
  Fe  Fe279     1.0  0.42469  0.71188  0.89959  1.0000
  S   S554      1.0  0.41543  0.72874  0.89245  1.0000
  S   S555      1.0  0.41683  0.69686  0.90723  1.0000
  Fe  Fe280     1.0  0.44681  0.71964  0.89443  1.0000
  H   H2279     1.0  0.47276  0.69571  0.92325  1.0000
  S   S556      1.0  0.46541  0.71518  0.89404  1.0000
  C   C1883     1.0  0.28799  0.49005  0.86718  1.0000
  H   H2280     1.0  0.09354  0.55602  0.80200  1.0000
  C   C1884     1.0  0.03269  0.56022  0.80483  1.0000
  Fe  Fe281     1.0  0.36120  0.72819  0.96814  1.0000
  S   S557      1.0  0.43288  0.71810  0.90951  1.0000
  S   S558      1.0  0.43948  0.71167  0.88529  1.0000
  H   H2281     1.0  0.40578  0.68046  0.92658  1.0000
  C   C1885     1.0  0.05840  0.61439  0.81998  1.0000
  H   H2282     1.0  0.38260  0.70664  0.96638  1.0000
  C   C1886     1.0  0.28600  0.69933  0.90577  1.0000
  H   H2283     1.0  0.28835  0.70493  0.90930  1.0000
  S   S559      1.0  0.06183  0.57589  0.80751  1.0000
  C   C1887     1.0  0.36490  0.69156  0.92703  1.0000
  C   C1888     1.0  0.22522  0.61944  0.89996  1.0000
  C   C1889     1.0  0.29410  0.69067  0.90189  1.0000
  H   H2284     1.0  0.26863  0.70749  0.90819  1.0000
  C   C1890     1.0  0.05736  0.62728  0.80254  1.0000
  H   H2285     1.0  0.27950  0.64286  0.92820  1.0000
  C   C1891     1.0  0.09814  0.61766  0.80638  1.0000
  C   C1892     1.0  0.04390  0.55678  0.80628  1.0000
  H   H2286     1.0  0.13870  0.61555  0.84448  1.0000
  H   H2287     1.0  0.13852  0.54881  0.81361  1.0000
  C   C1893     1.0  0.40576  0.73722  0.94709  1.0000
  C   C1894     1.0  0.25804  0.49205  0.87237  1.0000
  C   C1895     1.0  0.29274  0.49103  0.87533  1.0000
  H   H2288     1.0  0.18525  0.64377  0.96789  1.0000
  H   H2289     1.0  0.06135  0.62967  0.79361  1.0000
  H   H2290     1.0  0.42095  0.72460  0.94561  1.0000
  C   C1896     1.0  0.47955  0.72496  0.91841  1.0000
  C   C1897     1.0  0.48653  0.72196  0.90873  1.0000
  C   C1898     1.0  0.48203  0.71930  0.90117  1.0000
  C   C1899     1.0  0.47056  0.71945  0.90330  1.0000
  C   C1900     1.0  0.46359  0.72235  0.91303  1.0000
  C   C1901     1.0  0.46810  0.72501  0.92059  1.0000
  C   C1902     1.0  0.22467  0.50054  0.89189  1.0000
  H   H2291     1.0  0.48748  0.71690  0.89374  1.0000
  H   H2292     1.0  0.45476  0.72241  0.91479  1.0000
  C   C1903     1.0  0.37872  0.72687  0.87181  1.0000
  H   H2293     1.0  0.42704  0.73139  0.92537  1.0000
  H   H2294     1.0  0.23989  0.57221  0.94949  1.0000
  H   H2295     1.0  0.22588  0.62731  0.90166  1.0000
  H   H2296     1.0  0.01652  0.56519  0.82969  1.0000
  C   C1904     1.0  0.33891  0.70910  0.94099  1.0000
  C   C1905     1.0  0.34810  0.71425  0.93713  1.0000
  C   C1906     1.0  0.35334  0.71598  0.94475  1.0000
  C   C1907     1.0  0.34935  0.71266  0.95622  1.0000
  C   C1908     1.0  0.34009  0.70768  0.95995  1.0000
  C   C1909     1.0  0.33480  0.70612  0.95242  1.0000
  H   H2297     1.0  0.35110  0.71693  0.92831  1.0000
  H   H2298     1.0  0.36049  0.71977  0.94179  1.0000
  H   H2299     1.0  0.05475  0.60746  0.80360  1.0000
  H   H2300     1.0  0.32761  0.70230  0.95550  1.0000
  C   C1910     1.0  0.38809  0.68702  0.89975  1.0000
  C   C1911     1.0  0.39829  0.67953  0.90057  1.0000
  C   C1912     1.0  0.40711  0.68284  0.90243  1.0000
  C   C1913     1.0  0.40606  0.69382  0.90305  1.0000
  C   C1914     1.0  0.39604  0.70157  0.90168  1.0000
  C   C1915     1.0  0.38696  0.69813  0.90023  1.0000
  H   H2301     1.0  0.39925  0.67095  0.90020  1.0000
  H   H2302     1.0  0.41475  0.67677  0.90358  1.0000
  H   H2303     1.0  0.39521  0.71011  0.90201  1.0000
  H   H2304     1.0  0.37915  0.70403  0.89946  1.0000
  H   H2305     1.0  0.38917  0.71105  0.84452  1.0000
  S   S560      1.0  0.37298  0.72601  0.97918  1.0000
  H   H2306     1.0  0.00975  0.56168  0.81080  1.0000
  H   H2307     1.0  0.08189  0.58371  0.79300  1.0000
  H   H2308     1.0  0.24922  0.60775  0.84592  1.0000
  H   H2309     1.0  0.12878  0.52823  0.79393  1.0000
  H   H2310     1.0  0.09983  0.58421  0.79736  1.0000
  C   C1916     1.0  0.20030  0.58856  0.83845  1.0000
  H   H2311     1.0  0.05883  0.62076  0.82420  1.0000
  H   H2312     1.0  0.30275  0.68948  0.90244  1.0000
  C   C1917     1.0  0.19431  0.64336  0.96416  1.0000
  C   C1918     1.0  0.08329  0.58051  0.80130  1.0000
  H   H2313     1.0  0.13409  0.55406  0.80077  1.0000
  C   C1919     1.0  0.26234  0.64239  0.93596  1.0000
  H   H2314     1.0  0.21958  0.61547  0.90735  1.0000
  N   N122      1.0  0.20018  0.64530  0.97178  1.0000
  H   H2315     1.0  0.20464  0.57330  0.91820  1.0000
  C   C1920     1.0  0.22577  0.58872  0.89270  1.0000
  C   C1921     1.0  0.22595  0.59897  0.89449  1.0000
  C   C1922     1.0  0.09525  0.57635  0.81457  1.0000
  C   C1923     1.0  0.22199  0.50753  0.89959  1.0000
  H   H2316     1.0  0.40995  0.71072  0.88350  1.0000
  C   C1924     1.0  0.07496  0.57603  0.80967  1.0000
  C   C1925     1.0  0.07694  0.57161  0.82034  1.0000
  C   C1926     1.0  0.08697  0.57178  0.82276  1.0000
  H   H2317     1.0  0.22474  0.61779  0.97403  1.0000
  H   H2318     1.0  0.19442  0.58280  0.84163  1.0000
  H   H2319     1.0  0.07064  0.56808  0.82685  1.0000
  H   H2320     1.0  0.08828  0.56836  0.83112  1.0000
  C   C1927     1.0  0.17046  0.60952  0.83647  1.0000
  C   C1928     1.0  0.16425  0.61448  0.82814  1.0000
  C   C1929     1.0  0.15924  0.60814  0.82418  1.0000
  C   C1930     1.0  0.16038  0.59667  0.82848  1.0000
  C   C1931     1.0  0.16651  0.59174  0.83689  1.0000
  C   C1932     1.0  0.17141  0.59810  0.84093  1.0000
  H   H2321     1.0  0.16335  0.62331  0.82466  1.0000
  H   H2322     1.0  0.15451  0.61212  0.81778  1.0000
  H   H2323     1.0  0.16735  0.58292  0.84041  1.0000
  H   H2324     1.0  0.17579  0.59417  0.84758  1.0000
  C   C1933     1.0  0.31069  0.65599  0.88492  1.0000
  C   C1934     1.0  0.30968  0.65236  0.89640  1.0000
  C   C1935     1.0  0.31428  0.65732  0.90223  1.0000
  C   C1936     1.0  0.32011  0.66592  0.89672  1.0000
  C   C1937     1.0  0.32134  0.66939  0.88520  1.0000
  C   C1938     1.0  0.31670  0.66444  0.87938  1.0000
  H   H2325     1.0  0.30526  0.64578  0.90082  1.0000
  H   H2326     1.0  0.31329  0.65450  0.91112  1.0000
  H   H2327     1.0  0.32579  0.67594  0.88078  1.0000
  H   H2328     1.0  0.31767  0.66730  0.87050  1.0000
  C   C1939     1.0  0.24985  0.63469  0.86079  1.0000
  C   C1940     1.0  0.24140  0.64057  0.86793  1.0000
  C   C1941     1.0  0.23005  0.64090  0.86859  1.0000
  C   C1942     1.0  0.22704  0.63516  0.86231  1.0000
  C   C1943     1.0  0.23549  0.62926  0.85521  1.0000
  C   C1944     1.0  0.24680  0.62928  0.85426  1.0000
  H   H2329     1.0  0.24360  0.64503  0.87279  1.0000
  H   H2330     1.0  0.22357  0.64568  0.87393  1.0000
  H   H2331     1.0  0.23326  0.62512  0.85008  1.0000
  H   H2332     1.0  0.25323  0.62518  0.84835  1.0000
  C   C1945     1.0  0.22500  0.55760  0.88312  1.0000
  C   C1946     1.0  0.21645  0.56712  0.88305  1.0000
  C   C1947     1.0  0.21628  0.57551  0.87346  1.0000
  C   C1948     1.0  0.22448  0.57428  0.86383  1.0000
  C   C1949     1.0  0.23283  0.56456  0.86377  1.0000
  C   C1950     1.0  0.23316  0.55627  0.87347  1.0000
  H   H2333     1.0  0.21015  0.56818  0.89052  1.0000
  H   H2334     1.0  0.20986  0.58297  0.87367  1.0000
  H   H2335     1.0  0.23916  0.56354  0.85633  1.0000
  H   H2336     1.0  0.23968  0.54881  0.87346  1.0000
  C   C1951     1.0  0.27595  0.57488  0.88550  1.0000
  C   C1952     1.0  0.27711  0.58545  0.87893  1.0000
  C   C1953     1.0  0.27902  0.59355  0.88335  1.0000
  C   C1954     1.0  0.28025  0.59102  0.89431  1.0000
  C   C1955     1.0  0.27933  0.58039  0.90082  1.0000
  C   C1956     1.0  0.27706  0.57241  0.89649  1.0000
  H   H2337     1.0  0.27666  0.58736  0.87034  1.0000
  H   H2338     1.0  0.27990  0.60163  0.87815  1.0000
  H   H2339     1.0  0.28039  0.57827  0.90928  1.0000
  H   H2340     1.0  0.27651  0.56423  0.90157  1.0000
  C   C1957     1.0  0.26534  0.50190  0.88566  1.0000
  C   C1958     1.0  0.26238  0.50820  0.87572  1.0000
  C   C1959     1.0  0.25893  0.50324  0.86903  1.0000
  C   C1960     1.0  0.10977  0.54864  0.80595  1.0000
  H   H2341     1.0  0.26322  0.51677  0.87295  1.0000
  H   H2342     1.0  0.25705  0.50809  0.86118  1.0000
  C   C1961     1.0  0.22576  0.64283  0.93056  1.0000
  C   C1962     1.0  0.22713  0.65371  0.92862  1.0000
  C   C1963     1.0  0.23655  0.65694  0.92113  1.0000
  C   C1964     1.0  0.24452  0.64936  0.91541  1.0000
  C   C1965     1.0  0.24312  0.63848  0.91723  1.0000
  C   C1966     1.0  0.23377  0.63517  0.92492  1.0000
  H   H2343     1.0  0.22095  0.65964  0.93296  1.0000
  H   H2344     1.0  0.23763  0.66535  0.91971  1.0000
  H   H2345     1.0  0.24936  0.63262  0.91289  1.0000
  H   H2346     1.0  0.23277  0.62673  0.92649  1.0000
  C   C1967     1.0  0.19096  0.59708  0.92728  1.0000
  C   C1968     1.0  0.19728  0.60255  0.91755  1.0000
  C   C1969     1.0  0.19491  0.60354  0.90710  1.0000
  C   C1970     1.0  0.18636  0.59892  0.90638  1.0000
  C   C1971     1.0  0.18018  0.59346  0.91611  1.0000
  C   C1972     1.0  0.18243  0.59258  0.92644  1.0000
  H   H2347     1.0  0.20382  0.60613  0.91810  1.0000
  H   H2348     1.0  0.19943  0.60808  0.89965  1.0000
  H   H2349     1.0  0.17353  0.58992  0.91570  1.0000
  H   H2350     1.0  0.17749  0.58837  0.93386  1.0000
  C   C1973     1.0  0.24924  0.57660  0.93280  1.0000
  C   C1974     1.0  0.25550  0.57266  0.92334  1.0000
  C   C1975     1.0  0.25697  0.56148  0.92305  1.0000
  C   C1976     1.0  0.25223  0.55414  0.93223  1.0000
  C   C1977     1.0  0.24618  0.55803  0.94182  1.0000
  C   C1978     1.0  0.24457  0.56928  0.94207  1.0000
  H   H2351     1.0  0.25916  0.57829  0.91618  1.0000
  H   H2352     1.0  0.26197  0.55845  0.91580  1.0000
  H   H2353     1.0  0.24269  0.55235  0.94904  1.0000
  H   H2354     1.0  0.05624  0.63427  0.80661  1.0000
  H   H2355     1.0  0.19323  0.60646  0.81938  1.0000
  H   H2356     1.0  0.26644  0.61566  0.91410  1.0000
  H   H2357     1.0  0.25362  0.60734  0.86384  1.0000
  C   C1979     1.0  0.34273  0.73846  0.88450  1.0000
  H   H2358     1.0  0.21842  0.60533  0.89417  1.0000
  H   H2359     1.0  0.20075  0.65985  0.97704  1.0000
  H   H2360     1.0  0.13795  0.52277  0.80797  1.0000
  H   H2361     1.0  0.37737  0.71486  0.94862  1.0000
  H   H2362     1.0  0.11665  0.54040  0.82588  1.0000
  C   C1980     1.0  0.48571  0.69259  0.90906  1.0000
  H   H2363     1.0  0.39499  0.72909  0.83974  1.0000
  H   H2364     1.0  0.20625  0.57315  0.94758  1.0000
  C   C1981     1.0  0.41589  0.73185  0.94130  1.0000
  N   N123      1.0  0.40849  0.70944  0.86762  1.0000
  C   C1982     1.0  0.41311  0.69725  0.86961  1.0000
  C   C1983     1.0  0.41277  0.71426  0.85582  1.0000
  C   C1984     1.0  0.41300  0.71398  0.87455  1.0000
  C   C1985     1.0  0.39609  0.71248  0.87020  1.0000
  C   C1986     1.0  0.39041  0.72381  0.86944  1.0000
  C   C1987     1.0  0.38931  0.70447  0.87323  1.0000
  C   C1988     1.0  0.38293  0.71870  0.84496  1.0000
  C   C1989     1.0  0.37763  0.70765  0.87549  1.0000
  C   C1990     1.0  0.37234  0.71881  0.87478  1.0000
  C   C1991     1.0  0.36350  0.72823  0.84913  1.0000
  H   H2365     1.0  0.41074  0.69327  0.86414  1.0000
  H   H2366     1.0  0.42243  0.69527  0.86795  1.0000
  H   H2367     1.0  0.40970  0.71103  0.85025  1.0000
  H   H2368     1.0  0.42210  0.71235  0.85361  1.0000
  H   H2369     1.0  0.41015  0.72348  0.85387  1.0000
  H   H2370     1.0  0.09365  0.63513  0.79955  1.0000
  H   H2371     1.0  0.40946  0.72988  0.98026  1.0000
  N   N124      1.0  0.02403  0.56686  0.81224  1.0000
  H   H2372     1.0  0.06081  0.54836  0.80045  1.0000
  H   H2373     1.0  0.39277  0.69564  0.87416  1.0000
  H   H2374     1.0  0.21795  0.54410  0.97068  1.0000
  H   H2375     1.0  0.37262  0.70137  0.87796  1.0000
  N   N125      1.0  0.27021  0.60911  0.93025  1.0000
  C   C1992     1.0  0.26655  0.60098  0.94046  1.0000
  C   C1993     1.0  0.26397  0.60960  0.92188  1.0000
  C   C1994     1.0  0.28226  0.60475  0.92586  1.0000
  C   C1995     1.0  0.26783  0.62033  0.93259  1.0000
  C   C1996     1.0  0.25685  0.62522  0.93769  1.0000
  C   C1997     1.0  0.27599  0.62698  0.92932  1.0000
  C   C1998     1.0  0.25419  0.63607  0.93937  1.0000
  H   H2376     1.0  0.25734  0.60274  0.94356  1.0000
  H   H2377     1.0  0.26869  0.59239  0.93893  1.0000
  H   H2378     1.0  0.27055  0.60084  0.94720  1.0000
  H   H2379     1.0  0.25477  0.61205  0.92486  1.0000
  H   H2380     1.0  0.26564  0.60135  0.91968  1.0000
  H   H2381     1.0  0.28542  0.60989  0.91765  1.0000
  H   H2382     1.0  0.28749  0.60428  0.93170  1.0000
  H   H2383     1.0  0.28376  0.59622  0.92435  1.0000
  H   H2384     1.0  0.25010  0.62087  0.94000  1.0000
  H   H2385     1.0  0.28451  0.62409  0.92522  1.0000
  H   H2386     1.0  0.24566  0.63973  0.94293  1.0000
  N   N126      1.0  0.23636  0.61186  0.89759  1.0000
  C   C1999     1.0  0.24202  0.61054  0.90672  1.0000
  C   C2000     1.0  0.24292  0.61730  0.88711  1.0000
  C   C2001     1.0  0.23571  0.60090  0.89636  1.0000
  C   C2002     1.0  0.24529  0.59207  0.89604  1.0000
  C   C2003     1.0  0.24507  0.58195  0.89408  1.0000
  C   C2004     1.0  0.23533  0.58024  0.89243  1.0000
  H   H2387     1.0  0.22107  0.62214  0.89276  1.0000
  H   H2388     1.0  0.23821  0.60515  0.91442  1.0000
  H   H2389     1.0  0.24149  0.61865  0.90864  1.0000
  H   H2390     1.0  0.23912  0.61817  0.87999  1.0000
  H   H2391     1.0  0.24323  0.62580  0.88742  1.0000
  H   H2392     1.0  0.25172  0.61255  0.88520  1.0000
  H   H2393     1.0  0.25319  0.59296  0.89696  1.0000
  H   H2394     1.0  0.25262  0.57548  0.89365  1.0000
  H   H2395     1.0  0.23523  0.57239  0.89079  1.0000
  N   N127      1.0  0.36732  0.68194  0.93621  1.0000
  C   C2005     1.0  0.36837  0.67153  0.93262  1.0000
  C   C2006     1.0  0.35754  0.68274  0.94567  1.0000
  C   C2007     1.0  0.37792  0.68199  0.93889  1.0000
  C   C2008     1.0  0.37845  0.68370  0.94921  1.0000
  C   C2009     1.0  0.38807  0.68083  0.93082  1.0000
  C   C2010     1.0  0.38859  0.68407  0.95126  1.0000
  C   C2011     1.0  0.39813  0.68129  0.93293  1.0000
  C   C2012     1.0  0.39839  0.68294  0.94312  1.0000
  H   H2396     1.0  0.40620  0.68337  0.94469  1.0000
  H   H2397     1.0  0.37448  0.67094  0.92462  1.0000
  H   H2398     1.0  0.36030  0.67094  0.93124  1.0000
  H   H2399     1.0  0.37107  0.66406  0.93894  1.0000
  H   H2400     1.0  0.35592  0.69063  0.94848  1.0000
  H   H2401     1.0  0.34968  0.68275  0.94339  1.0000
  H   H2402     1.0  0.35875  0.67563  0.95281  1.0000
  H   H2403     1.0  0.37118  0.68483  0.95585  1.0000
  H   H2404     1.0  0.38881  0.68531  0.95920  1.0000
  H   H2405     1.0  0.21719  0.64529  0.97173  1.0000
  H   H2406     1.0  0.41264  0.71203  0.93271  1.0000
  H   H2407     1.0  0.19500  0.64958  0.95614  1.0000
  S   S561      1.0  0.04648  0.57862  0.78342  1.0000
  H   H2408     1.0  0.22248  0.52334  0.90232  1.0000
  H   H2409     1.0  0.25112  0.60678  0.90474  1.0000
  N   N128      1.0  0.27712  0.67661  0.89182  1.0000
  C   C2013     1.0  0.26515  0.67905  0.89125  1.0000
  C   C2014     1.0  0.28387  0.67669  0.88038  1.0000
  C   C2015     1.0  0.27970  0.66527  0.89873  1.0000
  C   C2016     1.0  0.27995  0.68457  0.89655  1.0000
  C   C2017     1.0  0.29115  0.68342  0.89733  1.0000
  C   C2018     1.0  0.27186  0.69348  0.90062  1.0000
  C   C2019     1.0  0.27491  0.70074  0.90513  1.0000
  H   H2410     1.0  0.26263  0.68738  0.88597  1.0000
  H   H2411     1.0  0.26341  0.67286  0.88763  1.0000
  H   H2412     1.0  0.25957  0.67849  0.89965  1.0000
  H   H2413     1.0  0.28247  0.68516  0.87500  1.0000
  H   H2414     1.0  0.28188  0.67090  0.87647  1.0000
  H   H2415     1.0  0.29299  0.67390  0.88011  1.0000
  H   H2416     1.0  0.27815  0.65894  0.89521  1.0000
  H   H2417     1.0  0.28856  0.66262  0.89939  1.0000
  H   H2418     1.0  0.27449  0.66473  0.90729  1.0000
  H   H2419     1.0  0.29774  0.67683  0.89447  1.0000
  H   H2420     1.0  0.26313  0.69499  0.90043  1.0000
  H   H2421     1.0  0.21373  0.64969  0.95829  1.0000
  C   C2020     1.0  0.13922  0.53133  0.80675  1.0000
  H   H2422     1.0  0.07740  0.54917  0.78493  1.0000
  C   C2021     1.0  0.02706  0.57761  0.81097  1.0000
  H   H2423     1.0  0.20283  0.57126  0.81856  1.0000
  H   H2424     1.0  0.42232  0.71179  0.87283  1.0000
  C   C2022     1.0  0.33596  0.73584  0.87903  1.0000
  H   H2425     1.0  0.28522  0.49742  0.86118  1.0000
  C   C2023     1.0  0.38910  0.70776  0.95893  1.0000
  C   C2024     1.0  0.10293  0.54374  0.79247  1.0000
  H   H2426     1.0  0.10019  0.60020  0.81365  1.0000
  C   C2025     1.0  0.11287  0.53596  0.79037  1.0000
  S   S562      1.0  0.35645  0.71306  0.96615  1.0000
  C   C2026     1.0  0.22442  0.51813  0.89634  1.0000
  C   C2027     1.0  0.37814  0.73870  0.84294  1.0000
  H   H2427     1.0  0.06733  0.59937  0.80730  1.0000
  H   H2428     1.0  0.01239  0.57456  0.80146  1.0000
  C   C2028     1.0  0.24752  0.59652  0.97851  1.0000
  H   H2429     1.0  0.41071  0.72318  0.87302  1.0000
  H   H2430     1.0  0.10858  0.57093  0.78313  1.0000
  C   C2029     1.0  0.13147  0.54990  0.80955  1.0000
  H   H2431     1.0  0.36328  0.72118  0.87649  1.0000
  C   C2030     1.0  0.21225  0.64388  0.96651  1.0000
  C   C2031     1.0  0.22954  0.52209  0.88544  1.0000
  H   H2432     1.0  0.11404  0.53105  0.78429  1.0000
  H   H2433     1.0  0.26889  0.57245  0.85655  1.0000
  C   C2032     1.0  0.27225  0.57985  0.85294  1.0000
  C   C2033     1.0  0.07573  0.61717  0.80714  1.0000
  C   C2034     1.0  0.08342  0.60746  0.81108  1.0000
  C   C2035     1.0  0.07974  0.62720  0.80294  1.0000
  C   C2036     1.0  0.12414  0.53457  0.82227  1.0000
  C   C2037     1.0  0.09076  0.62739  0.80269  1.0000
  Fe  Fe282     1.0  0.13386  0.59942  0.79063  1.0000
  Fe  Fe283     1.0  0.14531  0.57527  0.79378  1.0000
  H   H2434     1.0  0.22070  0.57518  0.83433  1.0000
  C   C2038     1.0  0.24910  0.58257  0.86347  1.0000
  H   H2435     1.0  0.22135  0.55168  0.92061  1.0000
  C   C2039     1.0  0.27322  0.63785  0.93099  1.0000
  H   H2436     1.0  0.22935  0.57458  0.92765  1.0000
  C   C2040     1.0  0.19979  0.58868  0.81986  1.0000
  H   H2437     1.0  0.21918  0.59522  0.81470  1.0000
  N   N129      1.0  0.21689  0.56579  0.92837  1.0000
  H   H2438     1.0  0.03530  0.57654  0.81302  1.0000
  H   H2439     1.0  0.07452  0.63505  0.79988  1.0000
  H   H2440     1.0  0.33701  0.70495  0.96876  1.0000
  H   H2441     1.0  0.37461  0.73556  0.87129  1.0000
  H   H2442     1.0  0.23257  0.49990  0.87461  1.0000
  N   N130      1.0  0.39097  0.72000  0.92812  1.0000
  C   C2041     1.0  0.38550  0.71263  0.92527  1.0000
  H   H2443     1.0  0.24289  0.58662  0.97007  1.0000
  C   C2042     1.0  0.40044  0.72242  0.91878  1.0000
  C   C2043     1.0  0.39439  0.71459  0.93880  1.0000
  C   C2044     1.0  0.38617  0.71258  0.94868  1.0000
  C   C2045     1.0  0.40577  0.71094  0.93974  1.0000
  H   H2444     1.0  0.40255  0.70106  0.96760  1.0000
  C   C2046     1.0  0.40862  0.70601  0.95003  1.0000
  H   H2445     1.0  0.21816  0.50496  0.90820  1.0000
  H   H2446     1.0  0.37828  0.71042  0.93190  1.0000
  H   H2447     1.0  0.38230  0.71661  0.91755  1.0000
  H   H2448     1.0  0.39150  0.70468  0.92400  1.0000
  H   H2449     1.0  0.34882  0.73196  0.88834  1.0000
  H   H2450     1.0  0.46267  0.72724  0.92811  1.0000
  C   C2047     1.0  0.48170  0.69420  0.91985  1.0000
  H   H2451     1.0  0.21579  0.63531  0.96501  1.0000
  C   C2048     1.0  0.28896  0.58715  0.84406  1.0000
  C   C2049     1.0  0.19570  0.65703  0.97295  1.0000
  H   H2452     1.0  0.35625  0.69298  0.92580  1.0000
  H   H2453     1.0  0.18036  0.60910  0.80748  1.0000
  C   C2050     1.0  0.03041  0.55718  0.79593  1.0000
  C   C2051     1.0  0.38300  0.73079  0.92894  1.0000
  H   H2454     1.0  0.02219  0.55950  0.79406  1.0000
  C   C2052     1.0  0.41928  0.73563  0.92983  1.0000
  N   N131      1.0  0.20728  0.58709  0.82746  1.0000
  H   H2455     1.0  0.20210  0.56082  0.92822  1.0000
  C   C2053     1.0  0.09345  0.58071  0.80375  1.0000
  C   C2054     1.0  0.19307  0.59933  0.81650  1.0000
  C   C2055     1.0  0.28378  0.57814  0.84857  1.0000
  C   C2056     1.0  0.22409  0.55944  0.91994  1.0000
  H   H2456     1.0  0.19941  0.57366  0.93250  1.0000
  C   C2057     1.0  0.18553  0.60092  0.80978  1.0000
  C   C2058     1.0  0.22992  0.50484  0.88085  1.0000
  S   S563      1.0  0.15139  0.59067  0.79249  1.0000
  H   H2457     1.0  0.47988  0.69285  0.90414  1.0000
  H   H2458     1.0  0.33419  0.73239  0.94907  1.0000
  H   H2459     1.0  0.19523  0.59719  0.83818  1.0000
  C   C2059     1.0  0.20527  0.56851  0.92675  1.0000
  H   H2460     1.0  0.21522  0.58208  0.93142  1.0000
  C   C2060     1.0  0.22076  0.57629  0.92615  1.0000
  H   H2461     1.0  0.22391  0.56430  0.91134  1.0000
  H   H2462     1.0  0.23296  0.55717  0.92079  1.0000
  H   H2463     1.0  0.22829  0.54389  0.93633  1.0000
  H   H2464     1.0  0.05638  0.54343  0.78504  1.0000
  H   H2465     1.0  0.24225  0.60076  0.87120  1.0000
  C   C2061     1.0  0.21721  0.55963  0.93990  1.0000
  C   C2062     1.0  0.18420  0.59195  0.80649  1.0000
  H   H2466     1.0  0.17800  0.59315  0.80166  1.0000
  C   C2063     1.0  0.40031  0.70454  0.95961  1.0000
  C   C2064     1.0  0.22332  0.54849  0.94257  1.0000
  C   C2065     1.0  0.21120  0.56476  0.94892  1.0000
  H   H2467     1.0  0.14570  0.53059  0.81141  1.0000
  H   H2468     1.0  0.24836  0.59507  0.84303  1.0000
  H   H2469     1.0  0.23779  0.60125  0.85338  1.0000
  H   H2470     1.0  0.24004  0.58446  0.86741  1.0000
  H   H2471     1.0  0.18693  0.65817  0.97785  1.0000
  C   C2066     1.0  0.25127  0.59914  0.86705  1.0000
  C   C2067     1.0  0.22352  0.54300  0.95356  1.0000
  C   C2068     1.0  0.27109  0.59974  0.84822  1.0000
  C   C2069     1.0  0.19058  0.58137  0.80970  1.0000
  H   H2472     1.0  0.24995  0.57764  0.85726  1.0000
  H   H2473     1.0  0.14918  0.61390  0.88857  1.0000
  H   H2474     1.0  0.22851  0.53462  0.95532  1.0000
  C   C2070     1.0  0.19831  0.57970  0.81626  1.0000
  C   C2071     1.0  0.24696  0.59954  0.84977  1.0000
  C   C2072     1.0  0.02337  0.56072  0.82393  1.0000
  H   H2475     1.0  0.13861  0.60804  0.88671  1.0000
  H   H2476     1.0  0.25350  0.57720  0.87011  1.0000
  H   H2477     1.0  0.39496  0.73042  0.86696  1.0000
  C   C2073     1.0  0.26556  0.59074  0.85308  1.0000
  N   N132      1.0  0.06397  0.61675  0.80809  1.0000
  H   H2478     1.0  0.10672  0.61784  0.80604  1.0000
  N   N133      1.0  0.25346  0.59287  0.85826  1.0000
  C   C2074     1.0  0.14585  0.61200  0.88227  1.0000
  H   H2479     1.0  0.14260  0.62013  0.87706  1.0000
  C   C2075     1.0  0.10136  0.55007  0.80026  1.0000
  H   H2480     1.0  0.41734  0.70362  0.95060  1.0000
  H   H2481     1.0  0.25617  0.59441  0.87346  1.0000
  H   H2482     1.0  0.16280  0.59670  0.88934  1.0000
  H   H2483     1.0  0.16844  0.61140  0.87553  1.0000
  H   H2484     1.0  0.08094  0.59959  0.81478  1.0000
  H   H2485     1.0  0.15254  0.59001  0.88859  1.0000
  C   C2076     1.0  0.16386  0.61043  0.86970  1.0000
  N   N134      1.0  0.15457  0.60466  0.87561  1.0000
  C   C2077     1.0  0.15914  0.59457  0.88342  1.0000
  H   H2486     1.0  0.16101  0.61894  0.86491  1.0000
  H   H2487     1.0  0.15182  0.58411  0.87367  1.0000
  H   H2488     1.0  0.26661  0.60826  0.84800  1.0000
  H   H2489     1.0  0.16604  0.58884  0.87893  1.0000
  H   H2490     1.0  0.16995  0.60573  0.86368  1.0000
  C   C2078     1.0  0.26439  0.49071  0.88903  1.0000
  H   H2491     1.0  0.24683  0.60385  0.97185  1.0000
  H   H2492     1.0  0.48555  0.69577  0.93435  1.0000
  C   C2079     1.0  0.14975  0.60221  0.86748  1.0000
  C   C2080     1.0  0.06352  0.60778  0.80305  1.0000
  H   H2493     1.0  0.14295  0.53423  0.79785  1.0000
  C   C2081     1.0  0.14891  0.59130  0.86764  1.0000
  H   H2494     1.0  0.12161  0.52660  0.82328  1.0000
  H   H2495     1.0  0.29361  0.49913  0.87569  1.0000
  H   H2496     1.0  0.02179  0.55229  0.82505  1.0000
  H   H2497     1.0  0.28876  0.56973  0.84898  1.0000
  H   H2498     1.0  0.13753  0.59642  0.84516  1.0000
  C   C2082     1.0  0.21147  0.55920  0.95988  1.0000
  H   H2499     1.0  0.28666  0.60495  0.84043  1.0000
  H   H2500     1.0  0.14628  0.61941  0.85822  1.0000
  S   S564      1.0  0.12847  0.58419  0.79032  1.0000
  C   C2083     1.0  0.14575  0.61093  0.85900  1.0000
  C   C2084     1.0  0.21765  0.54835  0.96219  1.0000
  H   H2501     1.0  0.12439  0.55582  0.81354  1.0000
  C   C2085     1.0  0.28261  0.59794  0.84383  1.0000
  H   H2502     1.0  0.06770  0.60911  0.79413  1.0000
  H   H2503     1.0  0.20692  0.56340  0.96659  1.0000
  H   H2504     1.0  0.29792  0.58576  0.84087  1.0000
  C   C2086     1.0  0.12004  0.54079  0.80400  1.0000
  C   C2087     1.0  0.14442  0.58932  0.85973  1.0000
  C   C2088     1.0  0.14131  0.60884  0.85113  1.0000
  H   H2505     1.0  0.14410  0.58092  0.85978  1.0000
  H   H2506     1.0  0.02756  0.58246  0.80229  1.0000
  H   H2507     1.0  0.10809  0.55363  0.81203  1.0000
  H   H2508     1.0  0.23639  0.51850  0.86926  1.0000
  C   C2089     1.0  0.37162  0.71840  0.84844  1.0000
  H   H2509     1.0  0.02072  0.58292  0.81633  1.0000
  H   H2510     1.0  0.10057  0.62113  0.78278  1.0000
  H   H2511     1.0  0.36574  0.69933  0.92867  1.0000
  C   C2090     1.0  0.01266  0.56939  0.80994  1.0000
  H   H2512     1.0  0.03119  0.55963  0.82676  1.0000
  C   C2091     1.0  0.21444  0.59544  0.82334  1.0000
  C   C2092     1.0  0.05229  0.55072  0.79927  1.0000
  H   H2513     1.0  0.18935  0.57439  0.80724  1.0000
  H   H2514     1.0  0.39752  0.72665  0.91096  1.0000
  H   H2515     1.0  0.23153  0.53025  0.88301  1.0000
  H   H2516     1.0  0.19809  0.63519  0.96179  1.0000
  H   H2517     1.0  0.36910  0.71048  0.85081  1.0000
  C   C2093     1.0  0.03889  0.55118  0.78893  1.0000
  C   C2094     1.0  0.21484  0.57590  0.82897  1.0000
  H   H2518     1.0  0.22005  0.57411  0.82089  1.0000
  C   C2095     1.0  0.23223  0.51548  0.87770  1.0000
  H   H2519     1.0  0.37063  0.69044  0.91899  1.0000
  H   H2520     1.0  0.26017  0.65091  0.93696  1.0000
  S   S565      1.0  0.01555  0.59740  0.78621  1.0000
  N   N135      1.0  0.12863  0.53913  0.81045  1.0000
  C   C2096     1.0  0.48911  0.69432  0.92608  1.0000
  H   H2521     1.0  0.21011  0.56922  0.83322  1.0000
  H   H2522     1.0  0.41020  0.69316  0.87841  1.0000
  H   H2523     1.0  0.04941  0.61433  0.82110  1.0000
  C   C2097     1.0  0.09447  0.60772  0.81058  1.0000
  H   H2524     1.0  0.19245  0.62527  0.97853  1.0000
  H   H2525     1.0  0.06235  0.60612  0.82447  1.0000
  S   S566      1.0  0.40080  0.73177  0.96109  1.0000
  H   H2526     1.0  0.20957  0.60407  0.82349  1.0000
  S   S567      1.0  0.04230  0.60102  0.79248  1.0000
  H   H2527     1.0  0.19574  0.66290  0.96474  1.0000
  H   H2528     1.0  0.20550  0.58684  0.84465  1.0000
  Fe  Fe284     1.0  0.05554  0.58538  0.79203  1.0000
  Fe  Fe285     1.0  0.43066  0.72902  0.87873  1.0000
  H   H2529     1.0  0.20809  0.49394  0.88802  1.0000
  H   H2530     1.0  0.04638  0.55901  0.81265  1.0000
  Fe  Fe286     1.0  0.42480  0.73504  0.90110  1.0000
  C   C2098     1.0  0.32353  0.73798  0.92006  1.0000
  H   H2531     1.0  0.32056  0.73074  0.92018  1.0000
  S   S568      1.0  0.48478  0.72869  0.92797  1.0000
  C   C2099     1.0  0.24528  0.58683  0.97748  1.0000
  Fe  Fe287     1.0  0.38210  0.73704  0.96511  1.0000
  H   H2532     1.0  0.37484  0.72975  0.93449  1.0000
  H   H2533     1.0  0.35494  0.72729  0.85219  1.0000
  C   C2100     1.0  0.04980  0.54795  0.79059  1.0000
  H   H2534     1.0  0.09643  0.54478  0.78807  1.0000
  H   H2535     1.0  0.32534  0.73210  0.93662  1.0000
  H   H2536     1.0  0.08841  0.60907  0.78534  1.0000
  N   N136      1.0  0.22269  0.48909  0.89507  1.0000
  Fe  Fe288     1.0  0.03440  0.59506  0.78216  1.0000
  S   S569      1.0  0.15629  0.56101  0.78608  1.0000
  C   C2101     1.0  0.38619  0.72883  0.84227  1.0000
  H   H2537     1.0  0.35015  0.73852  0.93483  1.0000
  H   H2538     1.0  0.49541  0.72154  0.90713  1.0000
  H   H2539     1.0  0.38654  0.73613  0.93204  1.0000
  S   S570      1.0  0.43919  0.73704  0.88660  1.0000
  S   S571      1.0  0.37123  0.73794  0.95371  1.0000
  S   S572      1.0  0.42976  0.73348  0.86076  1.0000
  C   C2102     1.0  0.49712  0.69119  0.90442  1.0000
  Fe  Fe289     1.0  0.38443  0.76787  0.15582  1.0000
  S   S573      1.0  0.38637  0.78507  0.14712  1.0000
  S   S574      1.0  0.39944  0.75438  0.15845  1.0000
  Fe  Fe290     1.0  0.35993  0.77269  0.15606  1.0000
  S   S575      1.0  0.35977  0.79067  0.14731  1.0000
  S   S576      1.0  0.34583  0.76342  0.16059  1.0000
  Fe  Fe291     1.0  0.37582  0.78367  0.13627  1.0000
  S   S577      1.0  0.38321  0.78728  0.11772  1.0000
  Fe  Fe292     1.0  0.37056  0.79072  0.15890  1.0000
  S   S578      1.0  0.36869  0.80615  0.16600  1.0000
  S   S579      1.0  0.37501  0.76606  0.14433  1.0000
  S   S580      1.0  0.36927  0.77323  0.16851  1.0000
  S   S581      1.0  0.39249  0.75031  0.04270  1.0000
  H   H2540     1.0  0.32327  0.76467  0.13653  1.0000
  S   S582      1.0  0.36835  0.76135  0.05727  1.0000
  Fe  Fe293     1.0  0.40022  0.75873  0.05092  1.0000
  S   S583      1.0  0.38826  0.77527  0.04780  1.0000
  S   S584      1.0  0.41892  0.75624  0.04625  1.0000
  Fe  Fe294     1.0  0.37810  0.76876  0.06460  1.0000
  S   S585      1.0  0.36829  0.77814  0.07822  1.0000
  Fe  Fe295     1.0  0.37966  0.76623  0.04086  1.0000
  S   S586      1.0  0.37333  0.77318  0.02491  1.0000
  S   S587      1.0  0.39077  0.75297  0.06806  1.0000
  C   C2103     1.0  0.36753  0.76825  0.00792  1.0000
  S   S588      1.0  0.43131  0.75410  0.11142  1.0000
  C   C2104     1.0  0.37082  0.76402  0.01813  1.0000
  H   H2541     1.0  0.41255  0.82165  0.14368  1.0000
  C   C2105     1.0  0.40152  0.82957  0.15661  1.0000
  C   C2106     1.0  0.39560  0.74343  0.10631  1.0000
  H   H2542     1.0  0.34949  0.76050  0.04844  1.0000
  C   C2107     1.0  0.48314  0.75438  0.11146  1.0000
  N   N137      1.0  0.40683  0.85168  0.16836  1.0000
  C   C2108     1.0  0.34450  0.74915  0.04163  1.0000
  H   H2543     1.0  0.35986  0.75032  0.14379  1.0000
  C   C2109     1.0  0.39988  0.83741  0.16296  1.0000
  H   H2544     1.0  0.33251  0.74764  0.17196  1.0000
  C   C2110     1.0  0.37173  0.75268  0.02289  1.0000
  C   C2111     1.0  0.40502  0.75958  0.01271  1.0000
  H   H2545     1.0  0.47819  0.76132  0.11562  1.0000
  C   C2112     1.0  0.34147  0.74211  0.06166  1.0000
  C   C2113     1.0  0.40869  0.75469  0.14551  1.0000
  C   C2114     1.0  0.40562  0.76226  0.13610  1.0000
  C   C2115     1.0  0.41279  0.76234  0.12570  1.0000
  C   C2116     1.0  0.42303  0.75475  0.12463  1.0000
  Fe  Fe296     1.0  0.36274  0.74196  0.98400  1.0000
  C   C2117     1.0  0.39567  0.85357  0.17593  1.0000
  H   H2546     1.0  0.39766  0.76798  0.13671  1.0000
  H   H2547     1.0  0.41024  0.76811  0.11846  1.0000
  C   C2118     1.0  0.41905  0.74724  0.14446  1.0000
  H   H2548     1.0  0.39243  0.77309  0.00660  1.0000
  C   C2119     1.0  0.37866  0.78283  0.10807  1.0000
  C   C2120     1.0  0.36760  0.78657  0.10674  1.0000
  C   C2121     1.0  0.36456  0.78480  0.09771  1.0000
  C   C2122     1.0  0.37248  0.77918  0.08994  1.0000
  C   C2123     1.0  0.38344  0.77495  0.09155  1.0000
  C   C2124     1.0  0.38653  0.77687  0.10052  1.0000
  H   H2549     1.0  0.36149  0.79132  0.11236  1.0000
  H   H2550     1.0  0.35606  0.78807  0.09657  1.0000
  H   H2551     1.0  0.38959  0.77058  0.08565  1.0000
  H   H2552     1.0  0.39511  0.77401  0.10144  1.0000
  C   C2125     1.0  0.34627  0.75026  0.15814  1.0000
  C   C2126     1.0  0.36523  0.75004  0.00773  1.0000
  C   C2127     1.0  0.39291  0.80810  0.18088  1.0000
  C   C2128     1.0  0.38932  0.74788  0.12918  1.0000
  C   C2129     1.0  0.32476  0.75544  0.13827  1.0000
  H   H2553     1.0  0.40553  0.76349  0.01902  1.0000
  C   C2130     1.0  0.39673  0.75990  0.99774  1.0000
  H   H2554     1.0  0.32995  0.75188  0.14464  1.0000
  H   H2555     1.0  0.38881  0.85672  0.17131  1.0000
  N   N138      1.0  0.43015  0.76530  0.07854  1.0000
  C   C2131     1.0  0.42502  0.75650  0.08684  1.0000
  C   C2132     1.0  0.43955  0.75983  0.07066  1.0000
  C   C2133     1.0  0.43504  0.77086  0.08424  1.0000
  C   C2134     1.0  0.42134  0.77336  0.07317  1.0000
  C   C2135     1.0  0.41240  0.78011  0.07937  1.0000
  C   C2136     1.0  0.42085  0.77414  0.06205  1.0000
  C   C2137     1.0  0.40357  0.78721  0.07470  1.0000
  C   C2138     1.0  0.41190  0.78113  0.05754  1.0000
  C   C2139     1.0  0.40325  0.78762  0.06385  1.0000
  C   C2140     1.0  0.39314  0.74358  0.09631  1.0000
  C   C2141     1.0  0.34469  0.76883  0.03323  1.0000
  H   H2556     1.0  0.41891  0.75978  0.09385  1.0000
  C   C2142     1.0  0.36119  0.73931  0.07997  1.0000
  H   H2557     1.0  0.40268  0.86598  0.15558  1.0000
  H   H2558     1.0  0.44356  0.76605  0.06399  1.0000
  H   H2559     1.0  0.42897  0.77384  0.09142  1.0000
  H   H2560     1.0  0.44207  0.76503  0.08784  1.0000
  H   H2561     1.0  0.43824  0.77808  0.07844  1.0000
  H   H2562     1.0  0.41199  0.77973  0.08797  1.0000
  H   H2563     1.0  0.42713  0.76923  0.05671  1.0000
  H   H2564     1.0  0.39672  0.79215  0.07965  1.0000
  H   H2565     1.0  0.41156  0.78131  0.04913  1.0000
  H   H2566     1.0  0.39620  0.79284  0.06038  1.0000
  N   N139      1.0  0.38442  0.81705  0.12740  1.0000
  C   C2143     1.0  0.37424  0.81264  0.13318  1.0000
  C   C2144     1.0  0.38281  0.82826  0.12963  1.0000
  C   C2145     1.0  0.38554  0.81848  0.11529  1.0000
  C   C2146     1.0  0.39416  0.80932  0.13153  1.0000
  C   C2147     1.0  0.40200  0.80167  0.12542  1.0000
  C   C2148     1.0  0.39559  0.80869  0.14230  1.0000
  C   C2149     1.0  0.41087  0.79416  0.12973  1.0000
  C   C2150     1.0  0.40457  0.80124  0.14647  1.0000
  C   C2151     1.0  0.41219  0.79399  0.14019  1.0000
  H   H2567     1.0  0.37497  0.80442  0.13139  1.0000
  H   H2568     1.0  0.37278  0.81147  0.14233  1.0000
  H   H2569     1.0  0.36660  0.81827  0.13058  1.0000
  H   H2570     1.0  0.37990  0.82832  0.13861  1.0000
  H   H2571     1.0  0.37624  0.83448  0.12565  1.0000
  H   H2572     1.0  0.39071  0.83136  0.12650  1.0000
  H   H2573     1.0  0.39348  0.82104  0.11050  1.0000
  H   H2574     1.0  0.38523  0.81071  0.11313  1.0000
  H   H2575     1.0  0.37851  0.82487  0.11222  1.0000
  H   H2576     1.0  0.40121  0.80099  0.11749  1.0000
  H   H2577     1.0  0.38947  0.81349  0.14785  1.0000
  H   H2578     1.0  0.41652  0.78815  0.12509  1.0000
  H   H2579     1.0  0.40534  0.80074  0.15480  1.0000
  H   H2580     1.0  0.41888  0.78793  0.14361  1.0000
  C   C2152     1.0  0.32291  0.75623  0.11994  1.0000
  H   H2581     1.0  0.42402  0.84626  0.17021  1.0000
  C   C2153     1.0  0.35670  0.76248  0.12141  1.0000
  H   H2582     1.0  0.40701  0.86894  0.16650  1.0000
  S   S589      1.0  0.36038  0.74128  0.00237  1.0000
  C   C2154     1.0  0.41938  0.83392  0.14669  1.0000
  H   H2583     1.0  0.39531  0.82463  0.15827  1.0000
  C   C2155     1.0  0.41535  0.84727  0.17526  1.0000
  H   H2584     1.0  0.33738  0.75723  0.01620  1.0000
  H   H2585     1.0  0.44619  0.75404  0.07489  1.0000
  C   C2156     1.0  0.41785  0.84171  0.15307  1.0000
  H   H2586     1.0  0.41728  0.74493  0.01728  1.0000
  C   C2157     1.0  0.43758  0.74092  0.05074  1.0000
  C   C2158     1.0  0.37630  0.81011  0.17374  1.0000
  H   H2587     1.0  0.39314  0.75437  0.12272  1.0000
  C   C2159     1.0  0.37257  0.74238  0.16733  1.0000
  N   N140      1.0  0.33017  0.75104  0.12807  1.0000
  H   H2588     1.0  0.36003  0.76787  0.12430  1.0000
  H   H2589     1.0  0.33242  0.74604  0.06224  1.0000
  C   C2160     1.0  0.34150  0.75331  0.12299  1.0000
  H   H2590     1.0  0.41719  0.86239  0.15639  1.0000
  H   H2591     1.0  0.42456  0.84595  0.15163  1.0000
  H   H2592     1.0  0.39103  0.74824  0.13711  1.0000
  C   C2161     1.0  0.42624  0.74731  0.13402  1.0000
  H   H2593     1.0  0.42046  0.75274  0.08309  1.0000
  C   C2162     1.0  0.35093  0.73995  0.08760  1.0000
  C   C2163     1.0  0.36885  0.74575  0.01776  1.0000
  H   H2594     1.0  0.34701  0.74748  0.09066  1.0000
  H   H2595     1.0  0.38446  0.75013  0.98960  1.0000
  C   C2164     1.0  0.41124  0.82784  0.14847  1.0000
  C   C2165     1.0  0.34115  0.74859  0.03212  1.0000
  H   H2596     1.0  0.48998  0.77301  0.10296  1.0000
  H   H2597     1.0  0.39228  0.83809  0.16928  1.0000
  H   H2598     1.0  0.31645  0.75327  0.14214  1.0000
  H   H2599     1.0  0.38012  0.75033  0.12970  1.0000
  H   H2600     1.0  0.37437  0.74932  0.03068  1.0000
  H   H2601     1.0  0.36268  0.74215  0.05082  1.0000
  H   H2602     1.0  0.34038  0.77516  0.01728  1.0000
  C   C2166     1.0  0.36481  0.76128  0.00269  1.0000
  C   C2167     1.0  0.38704  0.80428  0.17523  1.0000
  H   H2603     1.0  0.36682  0.77701  0.00418  1.0000
  C   C2168     1.0  0.42647  0.74560  0.05504  1.0000
  H   H2604     1.0  0.36195  0.76470  0.99501  1.0000
  H   H2605     1.0  0.31423  0.75490  0.12346  1.0000
  H   H2606     1.0  0.47908  0.75472  0.10469  1.0000
  C   C2169     1.0  0.41161  0.74909  0.01172  1.0000
  C   C2170     1.0  0.34126  0.76804  0.02412  1.0000
  H   H2607     1.0  0.49436  0.76135  0.12148  1.0000
  H   H2608     1.0  0.42702  0.83241  0.14049  1.0000
  H   H2609     1.0  0.40077  0.74894  0.10616  1.0000
  H   H2610     1.0  0.41337  0.74587  0.06975  1.0000
  H   H2611     1.0  0.36520  0.74630  0.07736  1.0000
  C   C2171     1.0  0.40802  0.84374  0.16139  1.0000
  H   H2612     1.0  0.43145  0.74971  0.09047  1.0000
  H   H2613     1.0  0.36338  0.74784  0.10128  1.0000
  H   H2614     1.0  0.43677  0.75461  0.06677  1.0000
  C   C2172     1.0  0.33836  0.74430  0.16517  1.0000
  C   C2173     1.0  0.34814  0.74881  0.11377  1.0000
  H   H2615     1.0  0.32603  0.75265  0.11237  1.0000
  C   C2174     1.0  0.40852  0.86269  0.16136  1.0000
  C   C2175     1.0  0.34607  0.76034  0.12662  1.0000
  C   C2176     1.0  0.35865  0.75114  0.10851  1.0000
  Fe  Fe297     1.0  0.38192  0.74608  0.05957  1.0000
  H   H2616     1.0  0.39083  0.79682  0.17202  1.0000
  H   H2617     1.0  0.39640  0.74911  0.08883  1.0000
  C   C2177     1.0  0.39766  0.76499  0.00569  1.0000
  H   H2618     1.0  0.36495  0.74825  0.17073  1.0000
  H   H2619     1.0  0.37977  0.74606  0.16661  1.0000
  H   H2620     1.0  0.37114  0.75966  0.10827  1.0000
  C   C2178     1.0  0.35376  0.74578  0.14933  1.0000
  H   H2621     1.0  0.34516  0.74354  0.11046  1.0000
  H   H2622     1.0  0.32250  0.76534  0.11719  1.0000
  C   C2179     1.0  0.34636  0.75953  0.04183  1.0000
  C   C2180     1.0  0.39089  0.74225  0.99013  1.0000
  H   H2623     1.0  0.48226  0.74657  0.11781  1.0000
  H   H2624     1.0  0.34657  0.77656  0.03340  1.0000
  H   H2625     1.0  0.42154  0.74146  0.15171  1.0000
  C   C2181     1.0  0.33953  0.75794  0.02355  1.0000
  H   H2626     1.0  0.34167  0.76423  0.13354  1.0000
  C   C2182     1.0  0.36298  0.75787  0.11239  1.0000
  C   C2183     1.0  0.42187  0.74217  0.06633  1.0000
  N   N141      1.0  0.40237  0.74419  0.98774  1.0000
  H   H2627     1.0  0.39062  0.76431  0.99276  1.0000
  H   H2628     1.0  0.44121  0.74355  0.04204  1.0000
  C   C2184     1.0  0.41088  0.74397  0.00368  1.0000
  C   C2185     1.0  0.40340  0.74928  0.99639  1.0000
  H   H2629     1.0  0.34552  0.74783  0.06357  1.0000
  C   C2186     1.0  0.37155  0.81974  0.17816  1.0000
  H   H2630     1.0  0.37211  0.74240  0.15882  1.0000
  H   H2631     1.0  0.43436  0.74177  0.13330  1.0000
  H   H2632     1.0  0.36327  0.82435  0.17713  1.0000
  H   H2633     1.0  0.40123  0.80354  0.18184  1.0000
  H   H2634     1.0  0.41035  0.74039  0.11988  1.0000
  N   N142      1.0  0.34676  0.73930  0.05064  1.0000
  H   H2635     1.0  0.49278  0.76614  0.09164  1.0000
  H   H2636     1.0  0.34006  0.74098  0.03090  1.0000
  H   H2637     1.0  0.40464  0.89366  0.18024  1.0000
  H   H2638     1.0  0.41463  0.85292  0.18080  1.0000
  H   H2639     1.0  0.41437  0.83894  0.18059  1.0000
  H   H2640     1.0  0.39490  0.85980  0.18085  1.0000
  C   C2187     1.0  0.49547  0.76594  0.09926  1.0000
  N   N143      1.0  0.49508  0.75511  0.10719  1.0000
  C   C2188     1.0  0.33073  0.73887  0.13106  1.0000
  C   C2189     1.0  0.38841  0.98102  0.28150  1.0000
  Fe  Fe298     1.0  0.40253  0.92738  0.24030  1.0000
  S   S590      1.0  0.40937  0.93520  0.22267  1.0000
  S   S591      1.0  0.41107  0.92029  0.25461  1.0000
  Fe  Fe299     1.0  0.37906  0.93195  0.23693  1.0000
  S   S592      1.0  0.38360  0.94031  0.21906  1.0000
  S   S593      1.0  0.36223  0.92870  0.24652  1.0000
  Fe  Fe300     1.0  0.39869  0.92610  0.21838  1.0000
  S   S594      1.0  0.40475  0.91744  0.20389  1.0000
  Fe  Fe301     1.0  0.39380  0.94862  0.22491  1.0000
  S   S595      1.0  0.39287  0.96719  0.22042  1.0000
  S   S596      1.0  0.39339  0.91714  0.23577  1.0000
  S   S597      1.0  0.38782  0.94142  0.24281  1.0000
  Fe  Fe302     1.0  0.47306  0.85572  0.26464  1.0000
  S   S598      1.0  0.47125  0.86079  0.24695  1.0000
  Fe  Fe303     1.0  0.44775  0.86035  0.27314  1.0000
  S   S599      1.0  0.44387  0.86648  0.25624  1.0000
  S   S600      1.0  0.43437  0.85984  0.28888  1.0000
  Fe  Fe304     1.0  0.45720  0.85179  0.25214  1.0000
  S   S601      1.0  0.45597  0.84201  0.24045  1.0000
  Fe  Fe305     1.0  0.45821  0.87498  0.25228  1.0000
  S   S602      1.0  0.45882  0.89133  0.24044  1.0000
  S   S603      1.0  0.46036  0.84492  0.26941  1.0000
  S   S604      1.0  0.46069  0.87064  0.26967  1.0000
  C   C2190     1.0  0.39012  0.83878  0.26130  1.0000
  H   H2641     1.0  0.41100  0.89203  0.30231  1.0000
  S   S605      1.0  0.13472  0.77005  0.36398  1.0000
  H   H2642     1.0  0.38218  0.97435  0.26415  1.0000
  H   H2643     1.0  0.42424  0.88332  0.21051  1.0000
  C   C2191     1.0  0.49622  0.85866  0.27319  1.0000
  H   H2644     1.0  0.42800  0.83734  0.26676  1.0000
  H   H2645     1.0  0.36455  0.87058  0.21168  1.0000
  H   H2646     1.0  0.35449  0.91639  0.23717  1.0000
  S   S606      1.0  0.39889  0.87365  0.19340  1.0000
  C   C2192     1.0  0.30464  0.88796  0.36176  1.0000
  C   C2193     1.0  0.30539  0.88029  0.38095  1.0000
  Fe  Fe306     1.0  0.27357  0.86214  0.36835  1.0000
  C   C2194     1.0  0.38213  0.82567  0.28456  1.0000
  S   S607      1.0  0.26390  0.87352  0.35586  1.0000
  Fe  Fe307     1.0  0.29690  0.84932  0.37096  1.0000
  S   S608      1.0  0.31470  0.84303  0.36231  1.0000
  H   H2647     1.0  0.37263  0.92478  0.28584  1.0000
  S   S609      1.0  0.28297  0.84492  0.36656  1.0000
  H   H2648     1.0  0.37074  0.91996  0.22482  1.0000
  Fe  Fe308     1.0  0.37116  0.87226  0.28663  1.0000
  S   S610      1.0  0.37376  0.86587  0.30394  1.0000
  S   S611      1.0  0.38163  0.88415  0.27604  1.0000
  Fe  Fe309     1.0  0.35706  0.85597  0.28885  1.0000
  S   S612      1.0  0.35894  0.84769  0.30629  1.0000
  S   S613      1.0  0.34544  0.85101  0.28161  1.0000
  Fe  Fe310     1.0  0.35556  0.86515  0.30866  1.0000
  S   S614      1.0  0.34251  0.87275  0.32205  1.0000
  Fe  Fe311     1.0  0.37696  0.84925  0.29976  1.0000
  S   S615      1.0  0.39285  0.83687  0.30257  1.0000
  S   S616      1.0  0.35272  0.87335  0.29151  1.0000
  S   S617      1.0  0.37530  0.85571  0.28218  1.0000
  Fe  Fe312     1.0  0.39449  0.85786  0.20492  1.0000
  S   S618      1.0  0.38965  0.85488  0.22341  1.0000
  C   C2195     1.0  0.49447  0.86827  0.28772  1.0000
  Fe  Fe313     1.0  0.39302  0.83441  0.20375  1.0000
  S   S619      1.0  0.38861  0.82945  0.22243  1.0000
  H   H2649     1.0  0.38194  0.89501  0.23379  1.0000
  Fe  Fe314     1.0  0.37722  0.84633  0.22168  1.0000
  S   S620      1.0  0.35941  0.84799  0.23116  1.0000
  Fe  Fe315     1.0  0.40152  0.83838  0.22275  1.0000
  S   S621      1.0  0.41191  0.83194  0.23588  1.0000
  S   S622      1.0  0.38077  0.85089  0.20308  1.0000
  S   S623      1.0  0.40719  0.84178  0.20426  1.0000
  S   S624      1.0  0.49101  0.85097  0.26688  1.0000
  C   C2196     1.0  0.41671  0.97798  0.20176  1.0000
  N   N144      1.0  0.38771  0.82754  0.26388  1.0000
  C   C2197     1.0  0.43113  0.88084  0.21510  1.0000
  H   H2650     1.0  0.45674  0.82145  0.27058  1.0000
  C   C2198     1.0  0.39825  0.81911  0.26490  1.0000
  C   C2199     1.0  0.34968  0.85049  0.26751  1.0000
  C   C2200     1.0  0.35928  0.85406  0.26073  1.0000
  C   C2201     1.0  0.36253  0.85321  0.24954  1.0000
  C   C2202     1.0  0.35605  0.84892  0.24514  1.0000
  C   C2203     1.0  0.34636  0.84560  0.25190  1.0000
  C   C2204     1.0  0.34324  0.84630  0.26305  1.0000
  H   H2651     1.0  0.36410  0.85757  0.26409  1.0000
  H   H2652     1.0  0.36990  0.85601  0.24428  1.0000
  H   H2653     1.0  0.34127  0.84240  0.24851  1.0000
  H   H2654     1.0  0.33577  0.84359  0.26821  1.0000
  C   C2205     1.0  0.32225  0.85147  0.35114  1.0000
  C   C2206     1.0  0.33262  0.84652  0.34528  1.0000
  C   C2207     1.0  0.33889  0.85295  0.33632  1.0000
  C   C2208     1.0  0.33489  0.86442  0.33327  1.0000
  C   C2209     1.0  0.32450  0.86939  0.33913  1.0000
  C   C2210     1.0  0.31814  0.86292  0.34798  1.0000
  H   H2655     1.0  0.33584  0.83767  0.34771  1.0000
  H   H2656     1.0  0.34690  0.84906  0.33191  1.0000
  H   H2657     1.0  0.32133  0.87825  0.33674  1.0000
  H   H2658     1.0  0.31009  0.86675  0.35236  1.0000
  C   C2211     1.0  0.03118  0.73990  0.36580  1.0000
  C   C2212     1.0  0.49142  0.89455  0.27344  1.0000
  C   C2213     1.0  0.11983  0.74367  0.36876  1.0000
  H   H2659     1.0  0.21430  0.89275  0.36423  1.0000
  S   S625      1.0  0.42067  0.98733  0.24139  1.0000
  C   C2214     1.0  0.41688  0.81552  0.29721  1.0000
  H   H2660     1.0  0.41633  0.96962  0.20171  1.0000
  H   H2661     1.0  0.39025  0.82666  0.28476  1.0000
  H   H2662     1.0  0.40684  0.91055  0.18430  1.0000
  H   H2663     1.0  0.22985  0.88090  0.34620  1.0000
  H   H2664     1.0  0.10441  0.80203  0.37416  1.0000
  H   H2665     1.0  0.44249  0.83817  0.26276  1.0000
  C   C2215     1.0  0.42624  0.89833  0.22052  1.0000
  H   H2666     1.0  0.21073  0.88285  0.35893  1.0000
  N   N145      1.0  0.39693  0.98192  0.27098  1.0000
  C   C2216     1.0  0.37732  0.82341  0.18404  1.0000
  H   H2667     1.0  0.43596  0.88630  0.23760  1.0000
  C   C2217     1.0  0.37337  0.89924  0.23744  1.0000
  H   H2668     1.0  0.41531  0.87082  0.22534  1.0000
  H   H2669     1.0  0.43336  0.87160  0.21759  1.0000
  C   C2218     1.0  0.24756  0.90731  0.36479  1.0000
  C   C2219     1.0  0.24886  0.90593  0.35404  1.0000
  C   C2220     1.0  0.25397  0.89556  0.35132  1.0000
  C   C2221     1.0  0.25795  0.88654  0.35929  1.0000
  H   H2670     1.0  0.43560  0.82160  0.25615  1.0000
  H   H2671     1.0  0.40387  0.88280  0.27587  1.0000
  H   H2672     1.0  0.25492  0.89456  0.34299  1.0000
  H   H2673     1.0  0.09675  0.80411  0.34644  1.0000
  H   H2674     1.0  0.35195  0.82402  0.28536  1.0000
  C   C2222     1.0  0.44333  0.84142  0.23760  1.0000
  C   C2223     1.0  0.43283  0.84672  0.24288  1.0000
  C   C2224     1.0  0.42301  0.84451  0.24165  1.0000
  C   C2225     1.0  0.42363  0.83730  0.23487  1.0000
  C   C2226     1.0  0.43410  0.83250  0.22919  1.0000
  C   C2227     1.0  0.44389  0.83455  0.23055  1.0000
  H   H2675     1.0  0.43229  0.85212  0.24826  1.0000
  H   H2676     1.0  0.41496  0.84806  0.24630  1.0000
  H   H2677     1.0  0.43471  0.82670  0.22420  1.0000
  H   H2678     1.0  0.45196  0.83041  0.22646  1.0000
  C   C2228     1.0  0.42361  0.85255  0.29176  1.0000
  C   C2229     1.0  0.42069  0.84637  0.30253  1.0000
  C   C2230     1.0  0.41136  0.84151  0.30568  1.0000
  C   C2231     1.0  0.40457  0.84309  0.29822  1.0000
  C   C2232     1.0  0.40742  0.84930  0.28740  1.0000
  C   C2233     1.0  0.41702  0.85391  0.28412  1.0000
  H   H2679     1.0  0.42559  0.84546  0.30854  1.0000
  H   H2680     1.0  0.40921  0.83676  0.31404  1.0000
  H   H2681     1.0  0.40221  0.85055  0.28159  1.0000
  H   H2682     1.0  0.41907  0.85885  0.27585  1.0000
  C   C2234     1.0  0.37470  0.89717  0.26990  1.0000
  C   C2235     1.0  0.38062  0.90565  0.26597  1.0000
  C   C2236     1.0  0.37598  0.91589  0.25997  1.0000
  C   C2237     1.0  0.36564  0.91755  0.25732  1.0000
  C   C2238     1.0  0.35934  0.90929  0.26174  1.0000
  C   C2239     1.0  0.36389  0.89904  0.26812  1.0000
  H   H2683     1.0  0.38896  0.90427  0.26734  1.0000
  H   H2684     1.0  0.38075  0.92230  0.25691  1.0000
  H   H2685     1.0  0.35130  0.91057  0.25973  1.0000
  H   H2686     1.0  0.35929  0.89245  0.27117  1.0000
  C   C2240     1.0  0.40280  0.90491  0.20200  1.0000
  C   C2241     1.0  0.40000  0.89601  0.21071  1.0000
  C   C2242     1.0  0.39883  0.88621  0.20837  1.0000
  C   C2243     1.0  0.40044  0.88534  0.19732  1.0000
  H   H2687     1.0  0.48946  0.87143  0.29493  1.0000
  C   C2244     1.0  0.13441  0.75542  0.35229  1.0000
  H   H2688     1.0  0.39884  0.89666  0.21918  1.0000
  H   H2689     1.0  0.39658  0.87941  0.21505  1.0000
  C   C2245     1.0  0.25145  0.89824  0.37279  1.0000
  H   H2690     1.0  0.37474  0.88516  0.19995  1.0000
  C   C2246     1.0  0.42478  0.91306  0.25068  1.0000
  C   C2247     1.0  0.43049  0.91488  0.23960  1.0000
  C   C2248     1.0  0.44125  0.90855  0.23649  1.0000
  C   C2249     1.0  0.44613  0.90023  0.24445  1.0000
  C   C2250     1.0  0.44048  0.89850  0.25554  1.0000
  C   C2251     1.0  0.42992  0.90510  0.25868  1.0000
  H   H2691     1.0  0.42664  0.92116  0.23343  1.0000
  H   H2692     1.0  0.44565  0.90988  0.22791  1.0000
  H   H2693     1.0  0.44428  0.89210  0.26170  1.0000
  H   H2694     1.0  0.42568  0.90390  0.26729  1.0000
  C   C2252     1.0  0.04158  0.75104  0.37053  1.0000
  C   C2253     1.0  0.36821  0.82543  0.27503  1.0000
  H   H2695     1.0  0.25986  0.88099  0.37621  1.0000
  C   C2254     1.0  0.39993  0.97239  0.22733  1.0000
  C   C2255     1.0  0.40933  0.96576  0.23132  1.0000
  C   C2256     1.0  0.41552  0.97042  0.23574  1.0000
  H   H2696     1.0  0.06693  0.79393  0.38071  1.0000
  H   H2697     1.0  0.41207  0.95715  0.23064  1.0000
  H   H2698     1.0  0.42301  0.96533  0.23845  1.0000
  C   C2257     1.0  0.48971  0.86310  0.28230  1.0000
  C   C2258     1.0  0.47987  0.89561  0.27675  1.0000
  H   H2699     1.0  0.48112  0.86222  0.28541  1.0000
  H   H2700     1.0  0.17379  0.79443  0.38174  1.0000
  N   N146      1.0  0.22654  0.87723  0.36402  1.0000
  H   H2701     1.0  0.40546  0.80483  0.30038  1.0000
  H   H2702     1.0  0.12032  0.79074  0.35018  1.0000
  C   C2259     1.0  0.03222  0.76959  0.37428  1.0000
  C   C2260     1.0  0.22760  0.86521  0.36489  1.0000
  C   C2261     1.0  0.23834  0.85813  0.36267  1.0000
  C   C2262     1.0  0.21821  0.86012  0.36825  1.0000
  C   C2263     1.0  0.23956  0.84681  0.36322  1.0000
  C   C2264     1.0  0.21955  0.84877  0.36881  1.0000
  C   C2265     1.0  0.23018  0.84217  0.36616  1.0000
  C   C2266     1.0  0.25677  0.88791  0.37002  1.0000
  C   C2267     1.0  0.13054  0.75839  0.36258  1.0000
  C   C2268     1.0  0.36504  0.87728  0.21507  1.0000
  S   S626      1.0  0.39627  0.82243  0.19194  1.0000
  H   H2703     1.0  0.44968  0.82246  0.25489  1.0000
  C   C2269     1.0  0.42361  0.97956  0.20769  1.0000
  H   H2704     1.0  0.16804  0.81872  0.37998  1.0000
  H   H2705     1.0  0.36632  0.91682  0.21414  1.0000
  C   C2270     1.0  0.38810  0.81765  0.18542  1.0000
  H   H2706     1.0  0.24591  0.86124  0.36063  1.0000
  H   H2707     1.0  0.05977  0.74776  0.36885  1.0000
  H   H2708     1.0  0.24786  0.84155  0.36161  1.0000
  H   H2709     1.0  0.40408  0.94474  0.25544  1.0000
  C   C2271     1.0  0.40267  0.95215  0.25863  1.0000
  H   H2710     1.0  0.12002  0.75477  0.37886  1.0000
  C   C2272     1.0  0.47954  0.89155  0.25954  1.0000
  H   H2711     1.0  0.09807  0.77486  0.36198  1.0000
  C   C2273     1.0  0.42542  0.80937  0.27678  1.0000
  C   C2274     1.0  0.41219  0.98164  0.23650  1.0000
  H   H2712     1.0  0.24193  0.87871  0.35176  1.0000
  H   H2713     1.0  0.08137  0.78785  0.36540  1.0000
  C   C2275     1.0  0.44948  0.81820  0.27636  1.0000
  N   N147      1.0  0.43944  0.82191  0.27144  1.0000
  N   N148      1.0  0.10315  0.79051  0.35876  1.0000
  C   C2276     1.0  0.41668  0.80495  0.28439  1.0000
  H   H2714     1.0  0.27196  0.90505  0.36647  1.0000
  C   C2277     1.0  0.43017  0.81706  0.27923  1.0000
  C   C2278     1.0  0.05191  0.75372  0.36991  1.0000
  H   H2715     1.0  0.02453  0.77558  0.37644  1.0000
  H   H2716     1.0  0.42885  0.82568  0.29221  1.0000
  H   H2717     1.0  0.41320  0.79906  0.28241  1.0000
  C   C2279     1.0  0.40333  0.89420  0.18877  1.0000
  H   H2718     1.0  0.04279  0.77986  0.37489  1.0000
  H   H2719     1.0  0.41041  0.97699  0.27972  1.0000
  C   C2280     1.0  0.44267  0.81869  0.26053  1.0000
  H   H2720     1.0  0.42102  0.88169  0.29550  1.0000
  C   C2281     1.0  0.07508  0.79598  0.37889  1.0000
  H   H2721     1.0  0.35570  0.87111  0.23118  1.0000
  C   C2282     1.0  0.03171  0.75927  0.37291  1.0000
  H   H2722     1.0  0.43862  0.88339  0.20908  1.0000
  H   H2723     1.0  0.44805  0.82116  0.28411  1.0000
  H   H2724     1.0  0.28879  0.91633  0.37868  1.0000
  H   H2725     1.0  0.44576  0.80955  0.26135  1.0000
  H   H2726     1.0  0.11763  0.79034  0.36451  1.0000
  C   C2283     1.0  0.05232  0.76409  0.37125  1.0000
  C   C2284     1.0  0.09436  0.79456  0.36790  1.0000
  C   C2285     1.0  0.36612  0.89480  0.22406  1.0000
  C   C2286     1.0  0.37120  0.89424  0.21285  1.0000
  C   C2287     1.0  0.36076  0.88605  0.23061  1.0000
  C   C2288     1.0  0.37067  0.88554  0.20848  1.0000
  C   C2289     1.0  0.36008  0.87755  0.22610  1.0000
  H   H2727     1.0  0.41374  0.98473  0.26560  1.0000
  H   H2728     1.0  0.35136  0.90305  0.24199  1.0000
  H   H2729     1.0  0.34908  0.91117  0.22861  1.0000
  H   H2730     1.0  0.37576  0.90032  0.20730  1.0000
  H   H2731     1.0  0.35701  0.88570  0.23930  1.0000
  H   H2732     1.0  0.47555  0.89749  0.28476  1.0000
  C   C2290     1.0  0.10553  0.77819  0.36116  1.0000
  C   C2291     1.0  0.47393  0.89415  0.26980  1.0000
  C   C2292     1.0  0.41312  0.88843  0.24207  1.0000
  C   C2293     1.0  0.40344  0.88602  0.24968  1.0000
  C   C2294     1.0  0.40266  0.87293  0.23966  1.0000
  C   C2295     1.0  0.39822  0.87829  0.24850  1.0000
  H   H2733     1.0  0.41690  0.89440  0.24348  1.0000
  H   H2734     1.0  0.39995  0.89019  0.25654  1.0000
  H   H2735     1.0  0.39863  0.86686  0.23877  1.0000
  H   H2736     1.0  0.39074  0.87644  0.25450  1.0000
  H   H2737     1.0  0.37667  0.82417  0.30223  1.0000
  H   H2738     1.0  0.35749  0.82283  0.30272  1.0000
  H   H2739     1.0  0.10853  0.77465  0.36904  1.0000
  H   H2740     1.0  0.39238  0.92554  0.27686  1.0000
  C   C2296     1.0  0.40457  0.90382  0.19108  1.0000
  H   H2741     1.0  0.10595  0.79245  0.34105  1.0000
  H   H2742     1.0  0.03071  0.74616  0.35789  1.0000
  H   H2743     1.0  0.38238  0.84533  0.26066  1.0000
  H   H2744     1.0  0.47452  0.89063  0.25441  1.0000
  C   C2297     1.0  0.40702  0.98386  0.27326  1.0000
  H   H2745     1.0  0.40264  0.82055  0.27058  1.0000
  C   C2298     1.0  0.40244  0.98811  0.23304  1.0000
  Fe  Fe316     1.0  0.13482  0.77536  0.37944  1.0000
  H   H2746     1.0  0.38179  0.81812  0.25589  1.0000
  H   H2747     1.0  0.39059  0.82702  0.24661  1.0000
  C   C2299     1.0  0.12320  0.75247  0.37090  1.0000
  C   C2300     1.0  0.09927  0.79486  0.34818  1.0000
  H   H2748     1.0  0.37665  0.83299  0.25238  1.0000
  H   H2749     1.0  0.40436  0.81929  0.25682  1.0000
  H   H2750     1.0  0.11276  0.80312  0.35516  1.0000
  H   H2751     1.0  0.44534  0.88460  0.22477  1.0000
  C   C2301     1.0  0.29488  0.89574  0.36486  1.0000
  C   C2302     1.0  0.43753  0.88239  0.23042  1.0000
  H   H2752     1.0  0.21233  0.84498  0.37150  1.0000
  C   C2303     1.0  0.40987  0.98713  0.19637  1.0000
  H   H2753     1.0  0.39369  0.84003  0.26776  1.0000
  H   H2754     1.0  0.36511  0.82615  0.26777  1.0000
  H   H2755     1.0  0.27908  0.91616  0.36442  1.0000
  C   C2304     1.0  0.23280  0.88224  0.35304  1.0000
  C   C2305     1.0  0.49134  0.89015  0.25600  1.0000
  C   C2306     1.0  0.27396  0.91058  0.37068  1.0000
  N   N149      1.0  0.27969  0.90400  0.37982  1.0000
  C   C2307     1.0  0.37934  0.82610  0.27445  1.0000
  H   H2756     1.0  0.14788  0.74580  0.37578  1.0000
  H   H2757     1.0  0.26584  0.91607  0.37373  1.0000
  C   C2308     1.0  0.49713  0.89182  0.26325  1.0000
  H   H2758     1.0  0.41869  0.90154  0.21688  1.0000
  H   H2759     1.0  0.43347  0.90074  0.21399  1.0000
  H   H2760     1.0  0.13998  0.75995  0.34577  1.0000
  C   C2309     1.0  0.38398  0.82634  0.25434  1.0000
  C   C2310     1.0  0.09636  0.80027  0.37500  1.0000
  H   H2761     1.0  0.39659  0.81057  0.26793  1.0000
  H   H2762     1.0  0.29124  0.90140  0.35821  1.0000
  H   H2763     1.0  0.39620  0.84035  0.25328  1.0000
  H   H2764     1.0  0.30811  0.88780  0.35309  1.0000
  C   C2311     1.0  0.08344  0.79250  0.37014  1.0000
  C   C2312     1.0  0.41138  0.95455  0.26155  1.0000
  H   H2765     1.0  0.42829  0.80665  0.26903  1.0000
  S   S627      1.0  0.28795  0.86700  0.37131  1.0000
  H   H2766     1.0  0.23187  0.89136  0.35203  1.0000
  H   H2767     1.0  0.37344  0.83077  0.18741  1.0000
  C   C2313     1.0  0.23123  0.87862  0.37281  1.0000
  H   H2768     1.0  0.39121  0.97348  0.28770  1.0000
  C   C2314     1.0  0.36050  0.82415  0.28516  1.0000
  H   H2769     1.0  0.06026  0.76582  0.37111  1.0000
  N   N150      1.0  0.31810  0.86490  0.30846  1.0000
  C   C2315     1.0  0.31488  0.86426  0.29843  1.0000
  C   C2316     1.0  0.32056  0.87601  0.30679  1.0000
  C   C2317     1.0  0.32863  0.85647  0.30950  1.0000
  C   C2318     1.0  0.30884  0.86330  0.31826  1.0000
  C   C2319     1.0  0.31010  0.85475  0.32788  1.0000
  C   C2320     1.0  0.29818  0.87065  0.31847  1.0000
  C   C2321     1.0  0.30122  0.85368  0.33706  1.0000
  C   C2322     1.0  0.28938  0.86953  0.32774  1.0000
  C   C2323     1.0  0.29091  0.86106  0.33700  1.0000
  H   H2770     1.0  0.32191  0.86491  0.29101  1.0000
  H   H2771     1.0  0.31254  0.85617  0.29958  1.0000
  H   H2772     1.0  0.30770  0.87102  0.29630  1.0000
  H   H2773     1.0  0.31348  0.88292  0.30470  1.0000
  H   H2774     1.0  0.32796  0.87730  0.29995  1.0000
  H   H2775     1.0  0.32241  0.87700  0.31442  1.0000
  H   H2776     1.0  0.32751  0.84790  0.31052  1.0000
  H   H2777     1.0  0.33539  0.85791  0.30201  1.0000
  H   H2778     1.0  0.33191  0.85680  0.31654  1.0000
  H   H2779     1.0  0.31792  0.84889  0.32867  1.0000
  H   H2780     1.0  0.29663  0.87742  0.31152  1.0000
  H   H2781     1.0  0.30243  0.84719  0.34438  1.0000
  H   H2782     1.0  0.28134  0.87531  0.32784  1.0000
  H   H2783     1.0  0.28411  0.86029  0.34420  1.0000
  C   C2324     1.0  0.39628  0.89776  0.28935  1.0000
  C   C2325     1.0  0.38484  0.89762  0.29436  1.0000
  C   C2326     1.0  0.39872  0.90818  0.28317  1.0000
  C   C2327     1.0  0.37648  0.90731  0.29320  1.0000
  C   C2328     1.0  0.39029  0.91781  0.28202  1.0000
  C   C2329     1.0  0.37919  0.91738  0.28702  1.0000
  H   H2784     1.0  0.39549  0.87510  0.29443  1.0000
  H   H2785     1.0  0.39756  0.87906  0.30612  1.0000
  H   H2786     1.0  0.38207  0.89006  0.29887  1.0000
  H   H2787     1.0  0.40713  0.90892  0.27881  1.0000
  H   H2788     1.0  0.36779  0.90692  0.29680  1.0000
  C   C2330     1.0  0.39647  0.98356  0.22827  1.0000
  N   N151      1.0  0.36640  0.90387  0.22901  1.0000
  C   C2331     1.0  0.40152  0.87764  0.29762  1.0000
  H   H2789     1.0  0.43929  0.87320  0.23355  1.0000
  C   C2332     1.0  0.37108  0.91309  0.22085  1.0000
  C   C2333     1.0  0.35485  0.90877  0.23441  1.0000
  H   H2790     1.0  0.36974  0.89311  0.24452  1.0000
  H   H2791     1.0  0.38005  0.91034  0.21707  1.0000
  C   C2334     1.0  0.41235  0.80811  0.29454  1.0000
  H   H2792     1.0  0.24592  0.91292  0.34781  1.0000
  C   C2335     1.0  0.12404  0.74060  0.35841  1.0000
  C   C2336     1.0  0.43616  0.83423  0.26937  1.0000
  H   H2793     1.0  0.38026  0.98046  0.28032  1.0000
  H   H2794     1.0  0.02345  0.75780  0.37414  1.0000
  H   H2795     1.0  0.37430  0.90586  0.24098  1.0000
  S   S628      1.0  0.24137  0.92052  0.36781  1.0000
  C   C2337     1.0  0.42567  0.81992  0.28973  1.0000
  C   C2338     1.0  0.41779  0.88327  0.23286  1.0000
  C   C2339     1.0  0.41233  0.87531  0.23195  1.0000
  C   C2340     1.0  0.37438  0.82432  0.29464  1.0000
  H   H2796     1.0  0.42511  0.90296  0.22703  1.0000
  C   C2341     1.0  0.36358  0.82357  0.29494  1.0000
  N   N152      1.0  0.40534  0.88762  0.29009  1.0000
  H   H2797     1.0  0.41875  0.89581  0.28836  1.0000
  H   H2798     1.0  0.41291  0.89222  0.27268  1.0000
  H   H2799     1.0  0.40858  0.87032  0.29846  1.0000
  C   C2342     1.0  0.41013  0.88506  0.27894  1.0000
  H   H2800     1.0  0.48520  0.87836  0.24440  1.0000
  C   C2343     1.0  0.41438  0.88941  0.29425  1.0000
  H   H2801     1.0  0.23117  0.83333  0.36680  1.0000
  H   H2802     1.0  0.13456  0.74441  0.34225  1.0000
  C   C2344     1.0  0.21480  0.88371  0.36521  1.0000
  H   H2803     1.0  0.38554  0.95762  0.25708  1.0000
  H   H2804     1.0  0.11220  0.77477  0.35453  1.0000
  H   H2805     1.0  0.41750  0.87796  0.27903  1.0000
  N   N153      1.0  0.42797  0.88610  0.22482  1.0000
  H   H2806     1.0  0.41343  0.81802  0.30510  1.0000
  H   H2807     1.0  0.09201  0.79160  0.34822  1.0000
  H   H2808     1.0  0.45203  0.80896  0.27839  1.0000
  H   H2809     1.0  0.43542  0.83749  0.27677  1.0000
  H   H2810     1.0  0.20968  0.88104  0.37357  1.0000
  C   C2345     1.0  0.39044  0.96904  0.26355  1.0000
  H   H2811     1.0  0.20974  0.86466  0.37066  1.0000
  C   C2346     1.0  0.11387  0.79391  0.35709  1.0000
  H   H2812     1.0  0.41695  0.96568  0.26720  1.0000
  C   C2347     1.0  0.04249  0.77199  0.37344  1.0000
  H   H2813     1.0  0.41955  0.94897  0.26056  1.0000
  C   C2348     1.0  0.39914  0.97177  0.26658  1.0000
  H   H2814     1.0  0.46494  0.89498  0.27237  1.0000
  C   C2349     1.0  0.40973  0.96423  0.26540  1.0000
  C   C2350     1.0  0.39224  0.95941  0.25958  1.0000
  H   H2815     1.0  0.42860  0.97239  0.21222  1.0000
  H   H2816     1.0  0.11409  0.73923  0.37508  1.0000
  H   H2817     1.0  0.49606  0.89553  0.27894  1.0000
  C   C2351     1.0  0.13129  0.74661  0.35027  1.0000
  H   H2818     1.0  0.22663  0.87504  0.38118  1.0000
  H   H2819     1.0  0.23071  0.88755  0.37244  1.0000
  H   H2820     1.0  0.48406  0.89816  0.23671  1.0000
  H   H2821     1.0  0.18580  0.78468  0.37649  1.0000
  C   C2352     1.0  0.29004  0.89595  0.37620  1.0000
  H   H2822     1.0  0.24021  0.87440  0.37209  1.0000
  H   H2823     1.0  0.02312  0.74173  0.37182  1.0000
  H   H2824     1.0  0.40425  0.98578  0.19208  1.0000
  H   H2825     1.0  0.31721  0.87399  0.36736  1.0000
  C   C2353     1.0  0.30982  0.88019  0.36979  1.0000
  H   H2826     1.0  0.25058  0.89920  0.38104  1.0000
  H   H2827     1.0  0.17251  0.78090  0.38146  1.0000
  H   H2828     1.0  0.05296  0.74001  0.35443  1.0000
  N   N154      1.0  0.04102  0.73976  0.37003  1.0000
  C   C2354     1.0  0.49320  0.89683  0.23623  1.0000
  C   C2355     1.0  0.49424  0.87728  0.24411  1.0000
  H   H2829     1.0  0.49642  0.87020  0.25096  1.0000
  H   H2830     1.0  0.49479  0.90474  0.23689  1.0000
  N   N155      1.0  0.49706  0.88747  0.24504  1.0000
  H   H2831     1.0  0.38917  0.98871  0.22525  1.0000
  H   H2832     1.0  0.38671  0.98841  0.28520  1.0000
  H   H2833     1.0  0.39419  0.84582  0.18208  1.0000
  Fe  Fe317     1.0  0.24262  0.88865  0.55468  1.0000
  S   S629      1.0  0.25494  0.87233  0.55628  1.0000
  S   S630      1.0  0.22422  0.89015  0.55739  1.0000
  Fe  Fe318     1.0  0.26017  0.90199  0.55028  1.0000
  S   S631      1.0  0.27426  0.88690  0.55095  1.0000
  S   S632      1.0  0.26160  0.91964  0.54781  1.0000
  Fe  Fe319     1.0  0.26535  0.88119  0.54112  1.0000
  S   S633      1.0  0.27319  0.87439  0.52555  1.0000
  Fe  Fe320     1.0  0.26252  0.87946  0.56603  1.0000
  C   C2356     1.0  0.17188  0.86223  0.44734  1.0000
  S   S634      1.0  0.25246  0.89712  0.53906  1.0000
  S   S635      1.0  0.24903  0.89495  0.56577  1.0000
  C   C2357     1.0  0.17997  0.82466  0.44491  1.0000
  Fe  Fe321     1.0  0.24725  0.91807  0.40562  1.0000
  S   S636      1.0  0.23089  0.92501  0.41605  1.0000
  S   S637      1.0  0.26341  0.91185  0.41147  1.0000
  H   H2834     1.0  0.08107  0.74981  0.41313  1.0000
  S   S638      1.0  0.22036  0.92995  0.39404  1.0000
  H   H2835     1.0  0.27245  0.82744  0.48265  1.0000
  Fe  Fe322     1.0  0.22943  0.93863  0.40085  1.0000
  S   S639      1.0  0.22473  0.95724  0.40014  1.0000
  Fe  Fe323     1.0  0.22340  0.91565  0.40836  1.0000
  S   S640      1.0  0.21104  0.90482  0.41826  1.0000
  S   S641      1.0  0.24625  0.93211  0.39088  1.0000
  S   S642      1.0  0.23994  0.90741  0.39947  1.0000
  Fe  Fe324     1.0  0.22972  0.86626  0.46751  1.0000
  S   S643      1.0  0.24168  0.85175  0.47544  1.0000
  S   S644      1.0  0.21408  0.86710  0.46172  1.0000
  Fe  Fe325     1.0  0.24376  0.88269  0.46630  1.0000
  S   S645      1.0  0.25713  0.86960  0.47350  1.0000
  S   S646      1.0  0.24362  0.90093  0.46237  1.0000
  Fe  Fe326     1.0  0.25503  0.85947  0.46266  1.0000
  S   S647      1.0  0.26899  0.84852  0.45285  1.0000
  Fe  Fe327     1.0  0.24275  0.86317  0.48565  1.0000
  S   S648      1.0  0.24181  0.85889  0.50422  1.0000
  S   S649      1.0  0.24307  0.87328  0.45425  1.0000
  S   S650      1.0  0.22942  0.87692  0.47899  1.0000
  Fe  Fe328     1.0  0.14336  0.76784  0.40069  1.0000
  S   S651      1.0  0.13437  0.78343  0.40681  1.0000
  H   H2836     1.0  0.18504  0.82899  0.43731  1.0000
  S   S652      1.0  0.27799  0.87074  0.40172  1.0000
  Fe  Fe329     1.0  0.19765  0.85490  0.40353  1.0000
  S   S653      1.0  0.21331  0.84378  0.40828  1.0000
  S   S654      1.0  0.19951  0.87254  0.39506  1.0000
  Fe  Fe330     1.0  0.18482  0.83580  0.41074  1.0000
  S   S655      1.0  0.19974  0.82359  0.41620  1.0000
  S   S656      1.0  0.16924  0.82832  0.41458  1.0000
  Fe  Fe331     1.0  0.20183  0.83671  0.42356  1.0000
  S   S657      1.0  0.20745  0.83109  0.43985  1.0000
  Fe  Fe332     1.0  0.20977  0.83185  0.40048  1.0000
  C   C2358     1.0  0.01441  0.77855  0.56477  1.0000
  S   S658      1.0  0.18613  0.84858  0.41943  1.0000
  H   H2837     1.0  0.09423  0.75351  0.40983  1.0000
  S   S659      1.0  0.14360  0.79038  0.56647  1.0000
  H   H2838     1.0  0.26523  0.83335  0.49988  1.0000
  C   C2359     1.0  0.16370  0.82658  0.45980  1.0000
  H   H2839     1.0  0.20451  0.80753  0.39948  1.0000
  S   S660      1.0  0.12769  0.75326  0.53308  1.0000
  C   C2360     1.0  0.28767  0.82980  0.49202  1.0000
  H   H2840     1.0  0.22190  0.91121  0.56228  1.0000
  C   C2361     1.0  0.10413  0.76786  0.45016  1.0000
  Fe  Fe333     1.0  0.11145  0.75197  0.54522  1.0000
  S   S661      1.0  0.09912  0.76752  0.54876  1.0000
  C   C2362     1.0  0.03595  0.77301  0.54927  1.0000
  N   N156      1.0  0.20861  0.92032  0.57323  1.0000
  S   S662      1.0  0.26571  0.85701  0.38627  1.0000
  H   H2841     1.0  0.12127  0.80286  0.57589  1.0000
  H   H2842     1.0  0.16373  0.78965  0.40148  1.0000
  H   H2843     1.0  0.15613  0.83231  0.46346  1.0000
  C   C2363     1.0  0.25473  0.83272  0.43990  1.0000
  C   C2364     1.0  0.03569  0.76058  0.56721  1.0000
  H   H2844     1.0  0.18549  0.82099  0.45095  1.0000
  H   H2845     1.0  0.18104  0.95211  0.42758  1.0000
  H   H2846     1.0  0.16096  0.81945  0.45873  1.0000
  H   H2847     1.0  0.18886  0.76627  0.40367  1.0000
  C   C2365     1.0  0.17803  0.78546  0.38303  1.0000
  H   H2848     1.0  0.26885  0.84154  0.47564  1.0000
  C   C2366     1.0  0.06116  0.76349  0.43392  1.0000
  C   C2367     1.0  0.11456  0.73979  0.40494  1.0000
  H   H2849     1.0  0.24246  0.82898  0.45477  1.0000
  H   H2850     1.0  0.28479  0.82180  0.49513  1.0000
  H   H2851     1.0  0.25820  0.82472  0.41601  1.0000
  H   H2852     1.0  0.22780  0.82704  0.42238  1.0000
  H   H2853     1.0  0.26238  0.84772  0.49319  1.0000
  H   H2854     1.0  0.23116  0.81689  0.41399  1.0000
  C   C2368     1.0  0.18686  0.94704  0.43309  1.0000
  H   H2855     1.0  0.27073  0.84300  0.50345  1.0000
  H   H2856     1.0  0.28415  0.91885  0.56444  1.0000
  H   H2857     1.0  0.25806  0.83770  0.44329  1.0000
  H   H2858     1.0  0.25024  0.95528  0.39876  1.0000
  H   H2859     1.0  0.06994  0.74605  0.56056  1.0000
  C   C2369     1.0  0.08252  0.75592  0.55488  1.0000
  C   C2370     1.0  0.08678  0.76388  0.55707  1.0000
  C   C2371     1.0  0.08155  0.76845  0.56639  1.0000
  H   H2860     1.0  0.11205  0.74847  0.40114  1.0000
  C   C2372     1.0  0.15140  0.74369  0.41775  1.0000
  C   C2373     1.0  0.18266  0.84957  0.46023  1.0000
  H   H2861     1.0  0.08491  0.77454  0.56812  1.0000
  C   C2374     1.0  0.10684  0.75975  0.57936  1.0000
  C   C2375     1.0  0.14482  0.77736  0.56347  1.0000
  C   C2376     1.0  0.13971  0.77682  0.55528  1.0000
  C   C2377     1.0  0.14060  0.76658  0.55268  1.0000
  C   C2378     1.0  0.14712  0.75689  0.55784  1.0000
  C   C2379     1.0  0.15239  0.75746  0.56590  1.0000
  C   C2380     1.0  0.15099  0.76760  0.56893  1.0000
  H   H2862     1.0  0.13512  0.78433  0.55084  1.0000
  H   H2863     1.0  0.13659  0.76625  0.54639  1.0000
  H   H2864     1.0  0.15757  0.75002  0.56983  1.0000
  S   S663      1.0  0.12598  0.79220  0.38318  1.0000
  C   C2381     1.0  0.25914  0.83137  0.42905  1.0000
  C   C2382     1.0  0.27571  0.83519  0.47905  1.0000
  C   C2383     1.0  0.18050  0.91153  0.58117  1.0000
  C   C2384     1.0  0.15179  0.81096  0.40527  1.0000
  C   C2385     1.0  0.15590  0.81602  0.41142  1.0000
  C   C2386     1.0  0.16447  0.82200  0.40634  1.0000
  S   S664      1.0  0.03996  0.76083  0.44343  1.0000
  H   H2865     1.0  0.14516  0.80649  0.40933  1.0000
  H   H2866     1.0  0.15237  0.81534  0.42019  1.0000
  C   C2387     1.0  0.02490  0.77941  0.56598  1.0000
  C   C2388     1.0  0.00765  0.76032  0.39617  1.0000
  H   H2867     1.0  0.24694  0.80030  0.41675  1.0000
  C   C2389     1.0  0.23645  0.82227  0.38984  1.0000
  H   H2868     1.0  0.17805  0.81762  0.44276  1.0000
  H   H2869     1.0  0.05263  0.75093  0.46076  1.0000
  S   S665      1.0  0.19490  0.84336  0.39440  1.0000
  H   H2870     1.0  0.23482  0.81767  0.44755  1.0000
  H   H2871     1.0  0.24012  0.82633  0.41157  1.0000
  H   H2872     1.0  0.11210  0.81092  0.55440  1.0000
  H   H2873     1.0  0.10592  0.76372  0.57093  1.0000
  H   H2874     1.0  0.16357  0.85536  0.43953  1.0000
  C   C2390     1.0  0.07466  0.77634  0.40475  1.0000
  C   C2391     1.0  0.26898  0.84082  0.49638  1.0000
  H   H2875     1.0  0.07842  0.78473  0.41535  1.0000
  Fe  Fe334     1.0  0.28092  0.86036  0.38924  1.0000
  C   C2392     1.0  0.21326  0.85709  0.45500  1.0000
  C   C2393     1.0  0.20702  0.86041  0.44671  1.0000
  C   C2394     1.0  0.20568  0.85256  0.44161  1.0000
  C   C2395     1.0  0.21001  0.84125  0.44525  1.0000
  C   C2396     1.0  0.21605  0.83790  0.45368  1.0000
  C   C2397     1.0  0.21793  0.84581  0.45835  1.0000
  H   H2876     1.0  0.20316  0.86909  0.44426  1.0000
  H   H2877     1.0  0.20084  0.85523  0.43525  1.0000
  H   H2878     1.0  0.21913  0.82915  0.45678  1.0000
  H   H2879     1.0  0.22251  0.84315  0.46492  1.0000
  C   C2398     1.0  0.27202  0.85464  0.43862  1.0000
  C   C2399     1.0  0.27723  0.84793  0.43085  1.0000
  C   C2400     1.0  0.27909  0.85272  0.41943  1.0000
  C   C2401     1.0  0.27607  0.86427  0.41583  1.0000
  C   C2402     1.0  0.27122  0.87094  0.42362  1.0000
  C   C2403     1.0  0.26909  0.86616  0.43497  1.0000
  H   H2880     1.0  0.27970  0.83902  0.43364  1.0000
  H   H2881     1.0  0.28298  0.84752  0.41345  1.0000
  H   H2882     1.0  0.26894  0.87985  0.42081  1.0000
  H   H2883     1.0  0.26533  0.87144  0.44087  1.0000
  H   H2884     1.0  0.23780  0.80075  0.44096  1.0000
  C   C2404     1.0  0.20874  0.89534  0.41177  1.0000
  C   C2405     1.0  0.20438  0.88607  0.41825  1.0000
  C   C2406     1.0  0.20192  0.87875  0.41324  1.0000
  C   C2407     1.0  0.20346  0.88088  0.40170  1.0000
  C   C2408     1.0  0.20789  0.89012  0.39524  1.0000
  C   C2409     1.0  0.21070  0.89720  0.40023  1.0000
  H   H2885     1.0  0.20277  0.88463  0.42718  1.0000
  H   H2886     1.0  0.19842  0.87172  0.41831  1.0000
  C   C2410     1.0  0.27157  0.89807  0.38838  1.0000
  H   H2887     1.0  0.21398  0.90436  0.39516  1.0000
  C   C2411     1.0  0.25983  0.90975  0.42593  1.0000
  C   C2412     1.0  0.26399  0.89950  0.43240  1.0000
  C   C2413     1.0  0.25919  0.89683  0.44373  1.0000
  C   C2414     1.0  0.25071  0.90467  0.44866  1.0000
  C   C2415     1.0  0.24739  0.91532  0.44241  1.0000
  C   C2416     1.0  0.25174  0.91777  0.43099  1.0000
  H   H2888     1.0  0.27041  0.89339  0.42855  1.0000
  H   H2889     1.0  0.26190  0.88864  0.44859  1.0000
  H   H2890     1.0  0.24105  0.92149  0.44626  1.0000
  H   H2891     1.0  0.24866  0.92579  0.42607  1.0000
  C   C2417     1.0  0.99828  0.76498  0.39135  1.0000
  C   C2418     1.0  0.08175  0.78070  0.40838  1.0000
  C   C2419     1.0  0.16464  0.81787  0.38879  1.0000
  C   C2420     1.0  0.22629  0.96342  0.41024  1.0000
  C   C2421     1.0  0.22782  0.95720  0.42072  1.0000
  C   C2422     1.0  0.22827  0.96256  0.42878  1.0000
  C   C2423     1.0  0.24596  0.82774  0.44638  1.0000
  H   H2892     1.0  0.25713  0.97142  0.43990  1.0000
  H   H2893     1.0  0.22851  0.94829  0.42266  1.0000
  H   H2894     1.0  0.22924  0.95772  0.43693  1.0000
  C   C2424     1.0  0.25472  0.82512  0.42461  1.0000
  H   H2895     1.0  0.28285  0.83344  0.47204  1.0000
  C   C2425     1.0  0.26438  0.86997  0.51984  1.0000
  C   C2426     1.0  0.25444  0.86688  0.52624  1.0000
  C   C2427     1.0  0.24769  0.86333  0.52140  1.0000
  C   C2428     1.0  0.25063  0.86318  0.51007  1.0000
  C   C2429     1.0  0.26048  0.86646  0.50366  1.0000
  C   C2430     1.0  0.26741  0.86961  0.50858  1.0000
  H   H2896     1.0  0.25203  0.86706  0.53495  1.0000
  H   H2897     1.0  0.24009  0.86082  0.52645  1.0000
  H   H2898     1.0  0.26282  0.86654  0.49491  1.0000
  H   H2899     1.0  0.27501  0.87210  0.50358  1.0000
  H   H2900     1.0  0.25581  0.79985  0.42577  1.0000
  C   C2431     1.0  0.09005  0.74637  0.41346  1.0000
  C   C2432     1.0  0.24501  0.93778  0.55154  1.0000
  C   C2433     1.0  0.25029  0.92705  0.55615  1.0000
  H   H2901     1.0  0.22586  0.81188  0.43833  1.0000
  H   H2902     1.0  0.26597  0.83525  0.42398  1.0000
  N   N157      1.0  0.03541  0.77227  0.56114  1.0000
  H   H2903     1.0  0.24759  0.94123  0.54280  1.0000
  H   H2904     1.0  0.23061  0.80144  0.43045  1.0000
  C   C2434     1.0  0.24164  0.82125  0.44210  1.0000
  H   H2905     1.0  0.25574  0.80985  0.41293  1.0000
  H   H2906     1.0  0.07096  0.80381  0.39274  1.0000
  S   S666      1.0  0.15043  0.77652  0.38366  1.0000
  N   N158      1.0  0.24218  0.89883  0.49960  1.0000
  C   C2435     1.0  0.23850  0.89148  0.49476  1.0000
  C   C2436     1.0  0.23812  0.89594  0.51182  1.0000
  C   C2437     1.0  0.23671  0.91050  0.49551  1.0000
  C   C2438     1.0  0.25448  0.89772  0.49619  1.0000
  C   C2439     1.0  0.25998  0.89828  0.48489  1.0000
  C   C2440     1.0  0.26125  0.89667  0.50375  1.0000
  C   C2441     1.0  0.27155  0.89742  0.48145  1.0000
  C   C2442     1.0  0.27281  0.89586  0.50021  1.0000
  C   C2443     1.0  0.27796  0.89617  0.48911  1.0000
  H   H2907     1.0  0.24351  0.88285  0.49630  1.0000
  H   H2908     1.0  0.22956  0.89105  0.49824  1.0000
  H   H2909     1.0  0.23924  0.89432  0.48567  1.0000
  H   H2910     1.0  0.22899  0.89611  0.51420  1.0000
  H   H2911     1.0  0.23942  0.90188  0.51603  1.0000
  H   H2912     1.0  0.24242  0.88739  0.51537  1.0000
  H   H2913     1.0  0.22743  0.91180  0.49795  1.0000
  H   H2914     1.0  0.23933  0.91635  0.49884  1.0000
  H   H2915     1.0  0.23894  0.91297  0.48629  1.0000
  H   H2916     1.0  0.25537  0.89948  0.47859  1.0000
  H   H2917     1.0  0.25792  0.89616  0.51251  1.0000
  H   H2918     1.0  0.27550  0.89777  0.47278  1.0000
  H   H2919     1.0  0.27781  0.89472  0.50624  1.0000
  H   H2920     1.0  0.28693  0.89546  0.48646  1.0000
  H   H2921     1.0  0.18327  0.83236  0.46258  1.0000
  S   S667      1.0  0.15646  0.75493  0.40844  1.0000
  C   C2444     1.0  0.07884  0.77110  0.39579  1.0000
  N   N159      1.0  0.16967  0.83247  0.44914  1.0000
  C   C2445     1.0  0.20536  0.92149  0.43844  1.0000
  C   C2446     1.0  0.19970  0.80208  0.39868  1.0000
  C   C2447     1.0  0.05395  0.75959  0.44368  1.0000
  C   C2448     1.0  0.19240  0.93315  0.42215  1.0000
  H   H2922     1.0  0.05786  0.76808  0.42667  1.0000
  C   C2449     1.0  0.15605  0.81193  0.39385  1.0000
  H   H2923     1.0  0.13400  0.75153  0.41855  1.0000
  H   H2924     1.0  0.18145  0.76398  0.39470  1.0000
  C   C2450     1.0  0.17875  0.86037  0.45475  1.0000
  C   C2451     1.0  0.08795  0.80363  0.38378  1.0000
  H   H2925     1.0  0.15508  0.76796  0.57516  1.0000
  C   C2452     1.0  0.16229  0.83550  0.44109  1.0000
  H   H2926     1.0  0.16030  0.82805  0.43979  1.0000
  H   H2927     1.0  0.08572  0.74454  0.39478  1.0000
  C   C2453     1.0  0.18931  0.91585  0.58163  1.0000
  S   S668      1.0  0.22174  0.94750  0.57745  1.0000
  H   H2928     1.0  0.02947  0.76941  0.54805  1.0000
  H   H2929     1.0  0.01380  0.77255  0.56057  1.0000
  H   H2930     1.0  0.07819  0.76440  0.42592  1.0000
  C   C2454     1.0  0.16887  0.82279  0.39497  1.0000
  N   N160      1.0  0.23840  0.86575  0.41615  1.0000
  C   C2455     1.0  0.23660  0.87065  0.40474  1.0000
  C   C2456     1.0  0.24979  0.85851  0.41558  1.0000
  C   C2457     1.0  0.23023  0.85853  0.42192  1.0000
  C   C2458     1.0  0.23732  0.87485  0.42169  1.0000
  C   C2459     1.0  0.22824  0.87750  0.43053  1.0000
  C   C2460     1.0  0.24536  0.88160  0.41805  1.0000
  C   C2461     1.0  0.22741  0.88624  0.43547  1.0000
  C   C2462     1.0  0.24452  0.89020  0.42317  1.0000
  C   C2463     1.0  0.23555  0.89259  0.43181  1.0000
  H   H2931     1.0  0.23716  0.86412  0.40027  1.0000
  H   H2932     1.0  0.22820  0.87631  0.40488  1.0000
  H   H2933     1.0  0.24288  0.87566  0.39972  1.0000
  H   H2934     1.0  0.25637  0.86277  0.40985  1.0000
  H   H2935     1.0  0.25060  0.85098  0.41244  1.0000
  H   H2936     1.0  0.25197  0.85581  0.42388  1.0000
  H   H2937     1.0  0.22147  0.86320  0.42181  1.0000
  H   H2938     1.0  0.23153  0.85147  0.41789  1.0000
  H   H2939     1.0  0.23095  0.85489  0.43071  1.0000
  H   H2940     1.0  0.22162  0.87303  0.43376  1.0000
  H   H2941     1.0  0.25237  0.88033  0.41119  1.0000
  H   H2942     1.0  0.22040  0.88803  0.44223  1.0000
  H   H2943     1.0  0.25083  0.89513  0.42027  1.0000
  H   H2944     1.0  0.23495  0.89932  0.43570  1.0000
  N   N161      1.0  0.27904  0.83895  0.48742  1.0000
  C   C2464     1.0  0.28348  0.84924  0.48289  1.0000
  C   C2465     1.0  0.28456  0.85486  0.47157  1.0000
  C   C2466     1.0  0.28697  0.85392  0.48988  1.0000
  C   C2467     1.0  0.28867  0.86462  0.46762  1.0000
  C   C2468     1.0  0.29118  0.86363  0.48582  1.0000
  C   C2469     1.0  0.29197  0.86900  0.47473  1.0000
  H   H2945     1.0  0.28981  0.83150  0.49914  1.0000
  H   H2946     1.0  0.29552  0.82847  0.48560  1.0000
  H   H2947     1.0  0.28216  0.85200  0.46557  1.0000
  H   H2948     1.0  0.28633  0.85019  0.49860  1.0000
  C   C2470     1.0  0.99889  0.74718  0.38756  1.0000
  H   H2949     1.0  0.29372  0.86705  0.49136  1.0000
  H   H2950     1.0  0.29513  0.87657  0.47162  1.0000
  N   N162      1.0  0.26286  0.96745  0.42370  1.0000
  C   C2471     1.0  0.27475  0.96745  0.42278  1.0000
  C   C2472     1.0  0.22634  0.98027  0.41575  1.0000
  C   C2473     1.0  0.25734  0.96488  0.43559  1.0000
  C   C2474     1.0  0.26210  0.95896  0.41823  1.0000
  C   C2475     1.0  0.25590  0.96150  0.40982  1.0000
  C   C2476     1.0  0.26739  0.94764  0.42155  1.0000
  C   C2477     1.0  0.25520  0.95320  0.40501  1.0000
  C   C2478     1.0  0.26665  0.93943  0.41665  1.0000
  C   C2479     1.0  0.26058  0.94222  0.40839  1.0000
  C   C2480     1.0  0.21637  0.93233  0.44694  1.0000
  H   H2951     1.0  0.23225  0.84991  0.57058  1.0000
  S   S669      1.0  0.05782  0.75076  0.58174  1.0000
  H   H2952     1.0  0.18830  0.84815  0.46572  1.0000
  C   C2481     1.0  0.20392  0.93325  0.43490  1.0000
  H   H2953     1.0  0.20141  0.91671  0.43552  1.0000
  H   H2954     1.0  0.11702  0.75461  0.46232  1.0000
  H   H2955     1.0  0.26786  0.92952  0.56254  1.0000
  H   H2956     1.0  0.22648  0.91494  0.57222  1.0000
  H   H2957     1.0  0.25131  0.96978  0.40694  1.0000
  H   H2958     1.0  0.27200  0.94503  0.42807  1.0000
  H   H2959     1.0  0.12463  0.80138  0.55754  1.0000
  H   H2960     1.0  0.27065  0.93080  0.41935  1.0000
  H   H2961     1.0  0.27017  0.89118  0.38555  1.0000
  H   H2962     1.0  0.11398  0.75596  0.43377  1.0000
  C   C2482     1.0  0.18688  0.78821  0.39619  1.0000
  H   H2963     1.0  0.26229  0.94389  0.56174  1.0000
  H   H2964     1.0  0.23290  0.86725  0.55609  1.0000
  H   H2965     1.0  0.09059  0.74368  0.42235  1.0000
  H   H2966     1.0  0.20897  0.89198  0.38635  1.0000
  C   C2483     1.0  0.19921  0.91562  0.57314  1.0000
  Fe  Fe335     1.0  0.04046  0.75897  0.42641  1.0000
  C   C2484     1.0  0.09735  0.80061  0.56959  1.0000
  H   H2967     1.0  0.10303  0.75912  0.45305  1.0000
  C   C2485     1.0  0.28581  0.91866  0.57231  1.0000
  H   H2968     1.0  0.19944  0.92757  0.41762  1.0000
  H   H2969     1.0  0.18170  0.85799  0.56726  1.0000
  C   C2486     1.0  0.16926  0.78123  0.40230  1.0000
  H   H2970     1.0  0.21901  0.90386  0.57644  1.0000
  H   H2971     1.0  0.16456  0.77581  0.40079  1.0000
  H   H2972     1.0  0.24830  0.97983  0.41981  1.0000
  H   H2973     1.0  0.17451  0.79531  0.40955  1.0000
  S   S670      1.0  0.14882  0.74398  0.55439  1.0000
  S   S671      1.0  0.01341  0.76889  0.40079  1.0000
  H   H2974     1.0  0.28439  0.88107  0.57583  1.0000
  H   H2975     1.0  0.19140  0.90299  0.55690  1.0000
  H   H2976     1.0  0.20870  0.94742  0.43739  1.0000
  H   H2977     1.0  0.22071  0.93650  0.45021  1.0000
  N   N163      1.0  0.24124  0.81326  0.42613  1.0000
  C   C2487     1.0  0.25032  0.80549  0.42019  1.0000
  C   C2488     1.0  0.23359  0.80653  0.43438  1.0000
  C   C2489     1.0  0.23480  0.82120  0.41816  1.0000
  C   C2490     1.0  0.24597  0.81965  0.43108  1.0000
  H   H2978     1.0  0.18731  0.93838  0.41602  1.0000
  H   H2979     1.0  0.16904  0.82310  0.46603  1.0000
  C   C2491     1.0  0.17269  0.84216  0.45091  1.0000
  C   C2492     1.0  0.16882  0.85330  0.44545  1.0000
  H   H2980     1.0  0.18693  0.92795  0.42850  1.0000
  C   C2493     1.0  0.22751  0.97412  0.42634  1.0000
  C   C2494     1.0  0.09450  0.74103  0.39582  1.0000
  C   C2495     1.0  0.09728  0.77458  0.39413  1.0000
  H   H2981     1.0  0.16638  0.83967  0.43274  1.0000
  C   C2496     1.0  0.17975  0.84058  0.45833  1.0000
  C   C2497     1.0  0.09360  0.79595  0.56277  1.0000
  H   H2982     1.0  0.30934  0.87413  0.38721  1.0000
  H   H2983     1.0  0.22438  0.97983  0.39972  1.0000
  H   H2984     1.0  0.27433  0.89446  0.39636  1.0000
  H   H2985     1.0  0.06592  0.77717  0.40882  1.0000
  H   H2986     1.0  0.23173  0.83991  0.38922  1.0000
  H   H2987     1.0  0.15417  0.84104  0.44391  1.0000
  H   H2988     1.0  0.16902  0.87064  0.44294  1.0000
  H   H2989     1.0  0.25133  0.91456  0.57118  1.0000
  H   H2990     1.0  0.01943  0.74527  0.40098  1.0000
  S   S672      1.0  0.03940  0.77203  0.41071  1.0000
  H   H2991     1.0  0.04363  0.75490  0.56414  1.0000
  C   C2498     1.0  0.23844  0.83259  0.38959  1.0000
  H   H2992     1.0  0.08651  0.75246  0.54760  1.0000
  H   H2993     1.0  0.15215  0.74224  0.45372  1.0000
  C   C2499     1.0  0.22760  0.85783  0.57253  1.0000
  N   N164      1.0  0.10943  0.79847  0.56940  1.0000
  S   S673      1.0  0.09151  0.75248  0.44131  1.0000
  C   C2500     1.0  0.01456  0.79320  0.57729  1.0000
  H   H2994     1.0  0.09333  0.76667  0.38324  1.0000
  H   H2995     1.0  0.02864  0.75743  0.56650  1.0000
  C   C2501     1.0  0.08223  0.79781  0.56283  1.0000
  H   H2996     1.0  0.23208  0.95221  0.55450  1.0000
  C   C2502     1.0  0.23629  0.94400  0.55817  1.0000
  H   H2997     1.0  0.12239  0.78446  0.57425  1.0000
  S   S674      1.0  0.07019  0.76545  0.39106  1.0000
  H   H2998     1.0  0.25822  0.98507  0.42311  1.0000
  H   H2999     1.0  0.20530  0.95367  0.42051  1.0000
  C   C2503     1.0  0.11517  0.78061  0.43803  1.0000
  C   C2504     1.0  0.00438  0.78501  0.56948  1.0000
  H   H3000     1.0  0.29264  0.88782  0.39291  1.0000
  H   H3001     1.0  0.17440  0.90354  0.57199  1.0000
  H   H3002     1.0  0.28590  0.90758  0.39224  1.0000
  C   C2505     1.0  0.13990  0.74422  0.42157  1.0000
  S   S675      1.0  0.10189  0.78484  0.40833  1.0000
  S   S676      1.0  0.12860  0.76537  0.39605  1.0000
  C   C2506     1.0  0.18275  0.79491  0.40425  1.0000
  H   H3003     1.0  0.04570  0.78422  0.55781  1.0000
  S   S677      1.0  0.04444  0.75113  0.39843  1.0000
  Fe  Fe336     1.0  0.02935  0.76161  0.40738  1.0000
  H   H3004     1.0  0.21329  0.90644  0.44836  1.0000
  C   C2507     1.0  0.24520  0.81288  0.39008  1.0000
  H   H3005     1.0  0.25992  0.93582  0.40472  1.0000
  Fe  Fe337     1.0  0.12022  0.78206  0.40006  1.0000
  C   C2508     1.0  0.09313  0.77966  0.40324  1.0000
  H   H3006     1.0  0.11993  0.76714  0.42434  1.0000
  H   H3007     1.0  0.03213  0.78788  0.57422  1.0000
  Fe  Fe338     1.0  0.23749  0.92212  0.38554  1.0000
  H   H3008     1.0  0.26162  0.95685  0.44013  1.0000
  C   C2509     1.0  0.01237  0.74896  0.39705  1.0000
  H   H3009     1.0  0.09037  0.74252  0.57636  1.0000
  H   H3010     1.0  0.26339  0.90376  0.39057  1.0000
  C   C2510     1.0  0.23309  0.93972  0.56953  1.0000
  C   C2511     1.0  0.26943  0.93707  0.56398  1.0000
  H   H3011     1.0  0.25226  0.93937  0.58100  1.0000
  C   C2512     1.0  0.22559  0.97496  0.40780  1.0000
  N   N165      1.0  0.19663  0.93997  0.42712  1.0000
  C   C2513     1.0  0.18652  0.76951  0.39545  1.0000
  H   H3012     1.0  0.29860  0.90372  0.57098  1.0000
  H   H3013     1.0  0.21065  0.94231  0.41359  1.0000
  C   C2514     1.0  0.14464  0.74784  0.45146  1.0000
  C   C2515     1.0  0.13540  0.76162  0.43784  1.0000
  H   H3014     1.0  0.27720  0.93899  0.55804  1.0000
  S   S678      1.0  0.22784  0.98054  0.43681  1.0000
  S   S679      1.0  0.22299  0.82073  0.39051  1.0000
  C   C2516     1.0  0.24702  0.92269  0.56751  1.0000
  C   C2517     1.0  0.22213  0.87790  0.56692  1.0000
  H   H3015     1.0  0.19602  0.85430  0.56875  1.0000
  H   H3016     1.0  0.18208  0.94186  0.44027  1.0000
  C   C2518     1.0  0.07262  0.76144  0.43347  1.0000
  C   C2519     1.0  0.06981  0.75144  0.45257  1.0000
  C   C2520     1.0  0.06834  0.75644  0.57182  1.0000
  H   H3017     1.0  0.25064  0.84140  0.38972  1.0000
  C   C2521     1.0  0.22793  0.86762  0.56434  1.0000
  H   H3018     1.0  0.19790  0.95195  0.41144  1.0000
  H   H3019     1.0  0.10751  0.78591  0.43516  1.0000
  H   H3020     1.0  0.11543  0.79697  0.55224  1.0000
  C   C2522     1.0  0.11343  0.76510  0.43186  1.0000
  C   C2523     1.0  0.20893  0.93059  0.56444  1.0000
  S   S680      1.0  0.05629  0.74818  0.41893  1.0000
  C   C2524     1.0  0.07700  0.75524  0.44266  1.0000
  C   C2525     1.0  0.20400  0.79560  0.39074  1.0000
  C   C2526     1.0  0.18122  0.90694  0.57227  1.0000
  H   H3021     1.0  0.09650  0.77273  0.44698  1.0000
  C   C2527     1.0  0.25777  0.82393  0.39056  1.0000
  H   H3022     1.0  0.28924  0.86883  0.45898  1.0000
  C   C2528     1.0  0.07428  0.80415  0.56980  1.0000
  H   H3023     1.0  0.12232  0.78214  0.43100  1.0000
  H   H3024     1.0  0.09923  0.74768  0.39162  1.0000
  H   H3025     1.0  0.27491  0.91821  0.38736  1.0000
  H   H3026     1.0  0.22299  0.91601  0.45588  1.0000
  C   C2529     1.0  0.19959  0.91101  0.56413  1.0000
  H   H3027     1.0  0.17544  0.82733  0.39088  1.0000
  C   C2530     1.0  0.12463  0.75501  0.45606  1.0000
  C   C2531     1.0  0.05822  0.75381  0.45314  1.0000
  C   C2532     1.0  0.11562  0.80208  0.55791  1.0000
  H   H3028     1.0  0.13619  0.76648  0.42945  1.0000
  H   H3029     1.0  0.10524  0.76923  0.42944  1.0000
  C   C2533     1.0  0.21219  0.91541  0.44590  1.0000
  C   C2534     1.0  0.27975  0.92668  0.57880  1.0000
  H   H3030     1.0  0.15750  0.74132  0.39132  1.0000
  C   C2535     1.0  0.08902  0.80708  0.57659  1.0000
  H   H3031     1.0  0.21022  0.92895  0.55607  1.0000
  C   C2536     1.0  0.19077  0.90665  0.56379  1.0000
  Fe  Fe339     1.0  0.05456  0.76053  0.40303  1.0000
  Fe  Fe340     1.0  0.14098  0.79224  0.38954  1.0000
  H   H3032     1.0  0.11613  0.78364  0.44499  1.0000
  H   H3033     1.0  0.17029  0.77809  0.41102  1.0000
  H   H3034     1.0  0.09941  0.79071  0.55743  1.0000
  N   N166      1.0  0.11452  0.76871  0.44149  1.0000
  H   H3035     1.0  0.08978  0.80757  0.38938  1.0000
  C   C2537     1.0  0.07767  0.80881  0.57660  1.0000
  H   H3036     1.0  0.21156  0.88637  0.57966  1.0000
  H   H3037     1.0  0.27930  0.96886  0.41396  1.0000
  C   C2538     1.0  0.12480  0.76187  0.44524  1.0000
  Fe  Fe341     1.0  0.27648  0.84019  0.38487  1.0000
  C   C2539     1.0  0.24917  0.83347  0.38975  1.0000
  N   N167      1.0  0.18023  0.78125  0.39436  1.0000
  H   H3038     1.0  0.26246  0.80632  0.39117  1.0000
  C   C2540     1.0  0.20286  0.94727  0.41784  1.0000
  H   H3039     1.0  0.20674  0.91071  0.55727  1.0000
  H   H3040     1.0  0.10410  0.77099  0.45744  1.0000
  H   H3041     1.0  0.24371  0.80491  0.39022  1.0000
  C   C2541     1.0  0.20953  0.93849  0.43951  1.0000
  H   H3042     1.0  0.07958  0.79412  0.55757  1.0000
  C   C2542     1.0  0.23849  0.92906  0.57422  1.0000
  S   S681      1.0  0.15105  0.80590  0.38554  1.0000
  C   C2543     1.0  0.07313  0.75235  0.56215  1.0000
  C   C2544     1.0  0.21768  0.92081  0.45014  1.0000
  C   C2545     1.0  0.25743  0.97893  0.41885  1.0000
  H   H3043     1.0  0.03509  0.75975  0.57621  1.0000
  H   H3044     1.0  0.27554  0.97420  0.42632  1.0000
  H   H3045     1.0  0.18126  0.86727  0.45606  1.0000
  C   C2546     1.0  0.00445  0.79231  0.57574  1.0000
  H   H3046     1.0  0.24851  0.96434  0.43659  1.0000
  H   H3047     1.0  0.06544  0.80530  0.57012  1.0000
  H   H3048     1.0  0.03486  0.78183  0.54461  1.0000
  C   C2547     1.0  0.21941  0.91223  0.57099  1.0000
  H   H3049     1.0  0.26128  0.98152  0.40993  1.0000
  H   H3050     1.0  0.10912  0.81358  0.57406  1.0000
  H   H3051     1.0  0.13984  0.74256  0.57791  1.0000
  H   H3052     1.0  0.18941  0.95298  0.43633  1.0000
  H   H3053     1.0  0.15307  0.75435  0.43497  1.0000
  H   H3054     1.0  0.13122  0.74157  0.40400  1.0000
  C   C2548     1.0  0.25580  0.81369  0.39060  1.0000
  C   C2549     1.0  0.07238  0.76467  0.57382  1.0000
  C   C2550     1.0  0.18913  0.80169  0.40545  1.0000
  C   C2551     1.0  0.02466  0.78691  0.57247  1.0000
  C   C2552     1.0  0.21585  0.87841  0.57759  1.0000
  H   H3055     1.0  0.13404  0.74268  0.46722  1.0000
  C   C2553     1.0  0.19772  0.78875  0.38949  1.0000
  H   H3056     1.0  0.19432  0.76847  0.38896  1.0000
  C   C2554     1.0  0.04566  0.77533  0.56175  1.0000
  C   C2555     1.0  0.29574  0.88812  0.38413  1.0000
  S   S682      1.0  0.02905  0.74972  0.42386  1.0000
  H   H3057     1.0  0.27950  0.94837  0.57243  1.0000
  H   H3058     1.0  0.20134  0.78406  0.38306  1.0000
  S   S683      1.0  0.29117  0.84309  0.38931  1.0000
  H   H3059     1.0  0.27927  0.95955  0.42729  1.0000
  C   C2556     1.0  0.13443  0.74808  0.45904  1.0000
  C   C2557     1.0  0.28247  0.91189  0.38470  1.0000
  H   H3060     1.0  0.05341  0.77027  0.55750  1.0000
  Fe  Fe342     1.0  0.04479  0.74001  0.41517  1.0000
  C   C2558     1.0  0.18781  0.85181  0.57186  1.0000
  H   H3061     1.0  0.11341  0.78144  0.56752  1.0000
  S   S684      1.0  0.27058  0.82427  0.39291  1.0000
  C   C2559     1.0  0.11208  0.80442  0.57650  1.0000
  H   H3062     1.0  0.04412  0.76832  0.54524  1.0000
  C   C2560     1.0  0.00807  0.74246  0.39266  1.0000
  C   C2561     1.0  0.11358  0.78638  0.57334  1.0000
  Fe  Fe343     1.0  0.13538  0.74200  0.54707  1.0000
  H   H3063     1.0  0.18920  0.84372  0.56948  1.0000
  H   H3064     1.0  0.04655  0.77372  0.57046  1.0000
  S   S685      1.0  0.11920  0.74156  0.55939  1.0000
  C   C2562     1.0  0.11720  0.75327  0.58134  1.0000
  C   C2563     1.0  0.14514  0.75469  0.44093  1.0000
  N   N168      1.0  0.27025  0.93562  0.57562  1.0000
  H   H3065     1.0  0.20100  0.93692  0.56583  1.0000
  H   H3066     1.0  0.12405  0.75287  0.57420  1.0000
  H   H3067     1.0  0.06864  0.76796  0.58120  1.0000
  H   H3068     1.0  0.10848  0.78324  0.58159  1.0000
  H   H3069     1.0  0.18573  0.80693  0.41147  1.0000
  H   H3070     1.0  0.19605  0.86718  0.57702  1.0000
  H   H3071     1.0  0.26461  0.95345  0.57373  1.0000
  C   C2564     1.0  0.27119  0.94650  0.57693  1.0000
  H   H3072     1.0  0.10596  0.77394  0.38993  1.0000
  H   H3073     1.0  0.21219  0.79605  0.38542  1.0000
  C   C2565     1.0  0.07734  0.80151  0.38571  1.0000
  H   H3074     1.0  0.21586  0.93446  0.56420  1.0000
  C   C2566     1.0  0.09012  0.77045  0.39035  1.0000
  H   H3075     1.0  0.07315  0.74680  0.45979  1.0000
  C   C2567     1.0  0.29420  0.90985  0.57597  1.0000
  H   H3076     1.0  0.22884  0.90789  0.59462  1.0000
  Fe  Fe344     1.0  0.21879  0.93386  0.61850  1.0000
  S   S686      1.0  0.23332  0.93176  0.60413  1.0000
  S   S687      1.0  0.21446  0.91773  0.62957  1.0000
  Fe  Fe345     1.0  0.21653  0.95923  0.61337  1.0000
  S   S688      1.0  0.23053  0.95888  0.59836  1.0000
  S   S689      1.0  0.20894  0.97650  0.61682  1.0000
  C   C2568     1.0  0.16856  0.87538  0.59796  1.0000
  H   H3077     1.0  0.14847  0.77375  0.63323  1.0000
  Fe  Fe346     1.0  0.23927  0.94423  0.60915  1.0000
  S   S690      1.0  0.25739  0.94267  0.60864  1.0000
  S   S691      1.0  0.20810  0.94815  0.60878  1.0000
  S   S692      1.0  0.22574  0.94508  0.62447  1.0000
  Fe  Fe347     1.0  0.27369  0.89250  0.64744  1.0000
  S   S693      1.0  0.29174  0.89099  0.63873  1.0000
  S   S694      1.0  0.26254  0.90778  0.65276  1.0000
  Fe  Fe348     1.0  0.27318  0.86894  0.64801  1.0000
  S   S695      1.0  0.29155  0.86512  0.63999  1.0000
  S   S696      1.0  0.26198  0.85637  0.65395  1.0000
  Fe  Fe349     1.0  0.29433  0.87481  0.65110  1.0000
  S   S697      1.0  0.30863  0.86966  0.66054  1.0000
  Fe  Fe350     1.0  0.28734  0.88167  0.62844  1.0000
  S   S698      1.0  0.29281  0.88477  0.60967  1.0000
  S   S699      1.0  0.27634  0.87683  0.66027  1.0000
  S   S700      1.0  0.26898  0.88495  0.63602  1.0000
  Fe  Fe351     1.0  0.19569  0.87120  0.61802  1.0000
  S   S701      1.0  0.21392  0.86341  0.61678  1.0000
  S   S702      1.0  0.19070  0.88996  0.61245  1.0000
  Fe  Fe352     1.0  0.18853  0.84839  0.62477  1.0000
  S   S703      1.0  0.20633  0.83897  0.62465  1.0000
  S   S704      1.0  0.17324  0.84089  0.62700  1.0000
  Fe  Fe353     1.0  0.20822  0.85191  0.63262  1.0000
  S   S705      1.0  0.21809  0.84720  0.64614  1.0000
  Fe  Fe354     1.0  0.21050  0.85137  0.60898  1.0000
  S   S706      1.0  0.13569  0.80718  0.58971  1.0000
  S   S707      1.0  0.18987  0.86029  0.63448  1.0000
  S   S708      1.0  0.19284  0.86015  0.60863  1.0000
  Fe  Fe355     1.0  0.14304  0.77788  0.60762  1.0000
  S   S709      1.0  0.13622  0.79296  0.61503  1.0000
  S   S710      1.0  0.14762  0.76085  0.61814  1.0000
  S   S711      1.0  0.26529  0.87028  0.58327  1.0000
  H   H3078     1.0  0.32044  0.93570  0.74476  1.0000
  Fe  Fe356     1.0  0.14828  0.80115  0.60075  1.0000
  S   S712      1.0  0.16201  0.80944  0.60173  1.0000
  Fe  Fe357     1.0  0.12435  0.79757  0.60344  1.0000
  S   S713      1.0  0.10575  0.80445  0.60858  1.0000
  S   S714      1.0  0.15582  0.78547  0.59402  1.0000
  S   S715      1.0  0.13033  0.78186  0.59721  1.0000
  Fe  Fe358     1.0  0.33883  0.89804  0.69340  1.0000
  S   S716      1.0  0.32940  0.90425  0.70889  1.0000
  S   S717      1.0  0.32738  0.89927  0.68170  1.0000
  Fe  Fe359     1.0  0.36136  0.89395  0.70052  1.0000
  S   S718      1.0  0.35321  0.89937  0.71652  1.0000
  S   S719      1.0  0.38029  0.88840  0.69597  1.0000
  Fe  Fe360     1.0  0.34056  0.88973  0.71752  1.0000
  S   S720      1.0  0.33323  0.87925  0.73355  1.0000
  Fe  Fe361     1.0  0.34298  0.91335  0.70637  1.0000
  S   S721      1.0  0.33938  0.93109  0.70840  1.0000
  S   S722      1.0  0.34946  0.88293  0.70233  1.0000
  S   S723      1.0  0.35166  0.90854  0.69005  1.0000
  C   C2569     1.0  0.32790  0.90473  0.63772  1.0000
  H   H3079     1.0  0.35591  0.90340  0.63349  1.0000
  S   S724      1.0  0.37132  0.86218  0.76079  1.0000
  H   H3080     1.0  0.40873  0.86928  0.74122  1.0000
  N   N169      1.0  0.40914  0.86008  0.72925  1.0000
  Fe  Fe362     1.0  0.05514  0.77880  0.60375  1.0000
  S   S725      1.0  0.06395  0.76089  0.60586  1.0000
  S   S726      1.0  0.06368  0.79326  0.59962  1.0000
  Fe  Fe363     1.0  0.03195  0.77331  0.60741  1.0000
  S   S727      1.0  0.03905  0.75498  0.61017  1.0000
  S   S728      1.0  0.01341  0.77959  0.60784  1.0000
  Fe  Fe364     1.0  0.04936  0.75828  0.62005  1.0000
  Fe  Fe365     1.0  0.05266  0.75960  0.59573  1.0000
  S   S729      1.0  0.04114  0.77632  0.61866  1.0000
  S   S730      1.0  0.04501  0.77779  0.59228  1.0000
  H   H3081     1.0  0.37937  0.88849  0.74223  1.0000
  C   C2570     1.0  0.39143  0.88700  0.76332  1.0000
  Fe  Fe366     1.0  0.37972  0.95381  0.75152  1.0000
  S   S731      1.0  0.37732  0.95828  0.76776  1.0000
  S   S732      1.0  0.39588  0.95316  0.73911  1.0000
  Fe  Fe367     1.0  0.35604  0.95080  0.75562  1.0000
  H   H3082     1.0  0.26272  0.97290  0.63854  1.0000
  S   S733      1.0  0.34474  0.94261  0.75103  1.0000
  Fe  Fe368     1.0  0.36135  0.96919  0.76360  1.0000
  H   H3083     1.0  0.40377  0.97838  0.74724  1.0000
  C   C2571     1.0  0.28264  0.92528  0.58909  1.0000
  H   H3084     1.0  0.41837  0.84896  0.74129  1.0000
  S   S734      1.0  0.36425  0.96526  0.74681  1.0000
  S   S735      1.0  0.37196  0.93903  0.75877  1.0000
  Fe  Fe369     1.0  0.42598  0.89614  0.72527  1.0000
  S   S736      1.0  0.41956  0.89137  0.74353  1.0000
  S   S737      1.0  0.41221  0.90453  0.71567  1.0000
  Fe  Fe370     1.0  0.45051  0.88923  0.72799  1.0000
  S   S738      1.0  0.44562  0.88347  0.74644  1.0000
  S   S739      1.0  0.46894  0.88866  0.72054  1.0000
  Fe  Fe371     1.0  0.43326  0.87621  0.74270  1.0000
  S   S740      1.0  0.42820  0.85998  0.75107  1.0000
  Fe  Fe372     1.0  0.43254  0.89925  0.74527  1.0000
  S   S741      1.0  0.42882  0.90999  0.75761  1.0000
  S   S742      1.0  0.43919  0.88044  0.72422  1.0000
  S   S743      1.0  0.43793  0.90543  0.72701  1.0000
  C   C2572     1.0  0.40566  0.94189  0.74445  1.0000
  C   C2573     1.0  0.40396  0.93733  0.75583  1.0000
  C   C2574     1.0  0.41154  0.92790  0.75998  1.0000
  C   C2575     1.0  0.42059  0.92285  0.75269  1.0000
  C   C2576     1.0  0.42244  0.92765  0.74136  1.0000
  C   C2577     1.0  0.41502  0.93721  0.73724  1.0000
  H   H3085     1.0  0.39676  0.94096  0.76145  1.0000
  H   H3086     1.0  0.41017  0.92428  0.76876  1.0000
  H   H3087     1.0  0.42968  0.92407  0.73578  1.0000
  H   H3088     1.0  0.41643  0.94080  0.72844  1.0000
  C   C2578     1.0  0.09892  0.75618  0.59896  1.0000
  H   H3089     1.0  0.39271  0.96862  0.77660  1.0000
  C   C2579     1.0  0.48513  0.90730  0.73580  1.0000
  C   C2580     1.0  0.47365  0.90733  0.73927  1.0000
  C   C2581     1.0  0.46867  0.90173  0.73456  1.0000
  C   C2582     1.0  0.47510  0.89604  0.72628  1.0000
  C   C2583     1.0  0.48660  0.89599  0.72277  1.0000
  C   C2584     1.0  0.40554  0.89999  0.76875  1.0000
  H   H3090     1.0  0.46856  0.91175  0.74563  1.0000
  H   H3091     1.0  0.45982  0.90185  0.73735  1.0000
  H   H3092     1.0  0.25957  0.93198  0.59181  1.0000
  H   H3093     1.0  0.39597  0.88065  0.76893  1.0000
  C   C2585     1.0  0.00749  0.77326  0.60087  1.0000
  C   C2586     1.0  0.01415  0.76517  0.59502  1.0000
  C   C2587     1.0  0.00937  0.76045  0.58925  1.0000
  H   H3094     1.0  0.39182  0.97917  0.75846  1.0000
  H   H3095     1.0  0.24043  0.82982  0.62249  1.0000
  C   C2588     1.0  0.37240  0.98603  0.77751  1.0000
  H   H3096     1.0  0.02302  0.76267  0.59481  1.0000
  H   H3097     1.0  0.07870  0.78542  0.62856  1.0000
  H   H3098     1.0  0.35604  0.89129  0.65194  1.0000
  H   H3099     1.0  0.28075  0.84271  0.62921  1.0000
  C   C2589     1.0  0.40993  0.85583  0.76725  1.0000
  C   C2590     1.0  0.41914  0.86085  0.76397  1.0000
  C   C2591     1.0  0.13547  0.74713  0.59743  1.0000
  C   C2592     1.0  0.33466  0.90898  0.75318  1.0000
  H   H3100     1.0  0.23156  0.90634  0.64277  1.0000
  H   H3101     1.0  0.40840  0.85154  0.76181  1.0000
  H   H3102     1.0  0.43195  0.94844  0.73798  1.0000
  H   H3103     1.0  0.23226  0.88264  0.59771  1.0000
  H   H3104     1.0  0.16947  0.81047  0.63437  1.0000
  C   C2593     1.0  0.10090  0.76963  0.64605  1.0000
  H   H3105     1.0  0.40476  0.84675  0.74310  1.0000
  H   H3106     1.0  0.41442  0.97707  0.77202  1.0000
  N   N170      1.0  0.34223  0.90212  0.76063  1.0000
  C   C2594     1.0  0.34285  0.93446  0.71935  1.0000
  C   C2595     1.0  0.34898  0.92653  0.72665  1.0000
  C   C2596     1.0  0.35078  0.92943  0.73576  1.0000
  C   C2597     1.0  0.34633  0.94022  0.73772  1.0000
  C   C2598     1.0  0.34068  0.94824  0.73012  1.0000
  C   C2599     1.0  0.33906  0.94540  0.72094  1.0000
  H   H3107     1.0  0.35202  0.91810  0.72550  1.0000
  H   H3108     1.0  0.35499  0.92314  0.74166  1.0000
  H   H3109     1.0  0.33694  0.95649  0.73169  1.0000
  H   H3110     1.0  0.33433  0.95160  0.71534  1.0000
  C   C2600     1.0  0.38917  0.89153  0.70274  1.0000
  C   C2601     1.0  0.40078  0.88929  0.69853  1.0000
  C   C2602     1.0  0.40806  0.89230  0.70318  1.0000
  C   C2603     1.0  0.40380  0.89764  0.71209  1.0000
  C   C2604     1.0  0.39222  0.89963  0.71650  1.0000
  C   C2605     1.0  0.38495  0.89649  0.71193  1.0000
  H   H3111     1.0  0.40413  0.88558  0.69136  1.0000
  H   H3112     1.0  0.41690  0.89111  0.69942  1.0000
  H   H3113     1.0  0.38879  0.90417  0.72305  1.0000
  H   H3114     1.0  0.37606  0.89839  0.71521  1.0000
  C   C2606     1.0  0.34374  0.87374  0.74121  1.0000
  C   C2607     1.0  0.35491  0.87362  0.73585  1.0000
  C   C2608     1.0  0.36328  0.87006  0.74197  1.0000
  C   C2609     1.0  0.36056  0.86649  0.75348  1.0000
  C   C2610     1.0  0.34940  0.86650  0.75890  1.0000
  C   C2611     1.0  0.34098  0.87007  0.75274  1.0000
  H   H3115     1.0  0.35715  0.87623  0.72694  1.0000
  H   H3116     1.0  0.37185  0.87027  0.73778  1.0000
  H   H3117     1.0  0.34727  0.86364  0.76779  1.0000
  H   H3118     1.0  0.33234  0.87014  0.75691  1.0000
  C   C2612     1.0  0.09438  0.80006  0.60679  1.0000
  C   C2613     1.0  0.09530  0.78982  0.60414  1.0000
  C   C2614     1.0  0.08579  0.78717  0.60256  1.0000
  C   C2615     1.0  0.07540  0.79475  0.60361  1.0000
  C   C2616     1.0  0.07459  0.80479  0.60643  1.0000
  C   C2617     1.0  0.08392  0.80736  0.60813  1.0000
  H   H3119     1.0  0.10332  0.78405  0.60322  1.0000
  C   C2618     1.0  0.17209  0.80147  0.63625  1.0000
  H   H3120     1.0  0.06669  0.81079  0.60709  1.0000
  H   H3121     1.0  0.08308  0.81524  0.61021  1.0000
  C   C2619     1.0  0.27300  0.87451  0.59039  1.0000
  H   H3122     1.0  0.39977  0.95560  0.77264  1.0000
  C   C2620     1.0  0.12525  0.76091  0.62271  1.0000
  C   C2621     1.0  0.13603  0.75457  0.62321  1.0000
  H   H3123     1.0  0.33897  0.91766  0.65706  1.0000
  H   H3124     1.0  0.39104  0.91589  0.77900  1.0000
  H   H3125     1.0  0.12391  0.76982  0.61968  1.0000
  C   C2622     1.0  0.26456  0.83901  0.63206  1.0000
  C   C2623     1.0  0.17034  0.83209  0.61987  1.0000
  C   C2624     1.0  0.15918  0.83129  0.62122  1.0000
  C   C2625     1.0  0.15646  0.82438  0.61586  1.0000
  C   C2626     1.0  0.16487  0.81817  0.60897  1.0000
  C   C2627     1.0  0.17604  0.81890  0.60769  1.0000
  C   C2628     1.0  0.17878  0.82571  0.61315  1.0000
  H   H3126     1.0  0.15257  0.83607  0.62648  1.0000
  H   H3127     1.0  0.14783  0.82396  0.61698  1.0000
  H   H3128     1.0  0.18266  0.81405  0.60251  1.0000
  H   H3129     1.0  0.18743  0.82591  0.61227  1.0000
  C   C2629     1.0  0.31355  0.87799  0.66659  1.0000
  C   C2630     1.0  0.32228  0.87298  0.67235  1.0000
  C   C2631     1.0  0.32653  0.87925  0.67715  1.0000
  C   C2632     1.0  0.32207  0.89067  0.67630  1.0000
  C   C2633     1.0  0.31335  0.89567  0.67054  1.0000
  C   C2634     1.0  0.30914  0.88941  0.66571  1.0000
  H   H3130     1.0  0.32580  0.86417  0.67306  1.0000
  H   H3131     1.0  0.33333  0.87525  0.68137  1.0000
  H   H3132     1.0  0.30979  0.90448  0.66980  1.0000
  H   H3133     1.0  0.30247  0.89343  0.66129  1.0000
  C   C2635     1.0  0.24972  0.85485  0.65089  1.0000
  C   C2636     1.0  0.24514  0.86123  0.64170  1.0000
  C   C2637     1.0  0.23544  0.85907  0.63989  1.0000
  C   C2638     1.0  0.23032  0.85062  0.64733  1.0000
  C   C2639     1.0  0.23493  0.84446  0.65643  1.0000
  C   C2640     1.0  0.24451  0.84651  0.65816  1.0000
  H   H3134     1.0  0.24915  0.86764  0.63598  1.0000
  H   H3135     1.0  0.23190  0.86392  0.63287  1.0000
  H   H3136     1.0  0.23108  0.83796  0.66224  1.0000
  H   H3137     1.0  0.24793  0.84152  0.66524  1.0000
  H   H3138     1.0  0.27659  0.96642  0.62238  1.0000
  C   C2641     1.0  0.13760  0.74306  0.62740  1.0000
  C   C2642     1.0  0.17609  0.88239  0.59362  1.0000
  H   H3139     1.0  0.06830  0.74994  0.64719  1.0000
  C   C2643     1.0  0.33769  0.88701  0.64685  1.0000
  H   H3140     1.0  0.42464  0.85732  0.71719  1.0000
  H   H3141     1.0  0.40191  0.98537  0.76792  1.0000
  C   C2644     1.0  0.32347  0.88765  0.63728  1.0000
  H   H3142     1.0  0.07976  0.74292  0.59447  1.0000
  S   S744      1.0  0.05216  0.74813  0.63659  1.0000
  H   H3143     1.0  0.19008  0.84298  0.59877  1.0000
  C   C2645     1.0  0.28527  0.88049  0.60241  1.0000
  C   C2646     1.0  0.27621  0.87548  0.60800  1.0000
  C   C2647     1.0  0.27014  0.87247  0.60202  1.0000
  C   C2648     1.0  0.32994  0.92047  0.75289  1.0000
  H   H3144     1.0  0.24078  0.87968  0.61848  1.0000
  H   H3145     1.0  0.27388  0.87387  0.61694  1.0000
  N   N171      1.0  0.24755  0.84284  0.61035  1.0000
  C   C2649     1.0  0.25988  0.93412  0.62124  1.0000
  C   C2650     1.0  0.26895  0.92506  0.62131  1.0000
  C   C2651     1.0  0.26987  0.91705  0.63108  1.0000
  C   C2652     1.0  0.26199  0.91834  0.64089  1.0000
  C   C2653     1.0  0.25332  0.92779  0.64099  1.0000
  C   C2654     1.0  0.25223  0.93566  0.63113  1.0000
  H   H3146     1.0  0.27497  0.92389  0.61376  1.0000
  H   H3147     1.0  0.27657  0.90979  0.63093  1.0000
  H   H3148     1.0  0.24725  0.92884  0.64859  1.0000
  H   H3149     1.0  0.24542  0.94286  0.63119  1.0000
  C   C2655     1.0  0.20695  0.91044  0.62534  1.0000
  C   C2656     1.0  0.20071  0.91560  0.61716  1.0000
  C   C2657     1.0  0.19541  0.90932  0.61354  1.0000
  C   C2658     1.0  0.19661  0.89781  0.61779  1.0000
  C   C2659     1.0  0.20282  0.89268  0.62597  1.0000
  C   C2660     1.0  0.20786  0.89900  0.62979  1.0000
  H   H3150     1.0  0.19989  0.92443  0.61371  1.0000
  H   H3151     1.0  0.19040  0.91338  0.60742  1.0000
  H   H3152     1.0  0.20374  0.88383  0.62937  1.0000
  H   H3153     1.0  0.21280  0.89489  0.63595  1.0000
  C   C2661     1.0  0.47894  0.87297  0.74537  1.0000
  H   H3154     1.0  0.38226  0.91502  0.75469  1.0000
  N   N172      1.0  0.39321  0.90178  0.77179  1.0000
  H   H3155     1.0  0.23380  0.84373  0.62459  1.0000
  C   C2662     1.0  0.22112  0.97527  0.63215  1.0000
  H   H3156     1.0  0.24879  0.97986  0.63711  1.0000
  C   C2663     1.0  0.21473  0.89615  0.65700  1.0000
  H   H3157     1.0  0.22137  0.96644  0.63437  1.0000
  C   C2664     1.0  0.17074  0.86529  0.59468  1.0000
  C   C2665     1.0  0.40333  0.86846  0.73609  1.0000
  C   C2666     1.0  0.40159  0.85952  0.72255  1.0000
  C   C2667     1.0  0.39129  0.85619  0.72783  1.0000
  C   C2668     1.0  0.40395  0.86256  0.71079  1.0000
  C   C2669     1.0  0.38372  0.85618  0.72173  1.0000
  C   C2670     1.0  0.39633  0.86248  0.70477  1.0000
  C   C2671     1.0  0.38619  0.85942  0.71022  1.0000
  H   H3158     1.0  0.41825  0.87184  0.71733  1.0000
  H   H3159     1.0  0.40086  0.87683  0.73078  1.0000
  H   H3160     1.0  0.39562  0.86625  0.74186  1.0000
  H   H3161     1.0  0.38883  0.85389  0.73676  1.0000
  H   H3162     1.0  0.41146  0.86538  0.70603  1.0000
  H   H3163     1.0  0.37576  0.85393  0.72597  1.0000
  H   H3164     1.0  0.39804  0.86531  0.69584  1.0000
  H   H3165     1.0  0.38015  0.85982  0.70551  1.0000
  H   H3166     1.0  0.22632  0.90898  0.66175  1.0000
  H   H3167     1.0  0.42530  0.86336  0.72793  1.0000
  C   C2672     1.0  0.01206  0.74779  0.62470  1.0000
  H   H3168     1.0  0.37632  0.90864  0.74153  1.0000
  C   C2673     1.0  0.21595  0.87329  0.66154  1.0000
  H   H3169     1.0  0.47140  0.87257  0.74323  1.0000
  H   H3170     1.0  0.14361  0.74214  0.59944  1.0000
  H   H3171     1.0  0.24254  0.97183  0.61337  1.0000
  H   H3172     1.0  0.35510  0.91448  0.64002  1.0000
  C   C2674     1.0  0.27133  0.97286  0.61702  1.0000
  C   C2675     1.0  0.33465  0.91391  0.65300  1.0000
  C   C2676     1.0  0.20522  0.89211  0.65814  1.0000
  H   H3173     1.0  0.38877  0.87469  0.75647  1.0000
  H   H3174     1.0  0.10785  0.76068  0.62544  1.0000
  H   H3175     1.0  0.14865  0.78755  0.63348  1.0000
  H   H3176     1.0  0.24727  0.96414  0.63038  1.0000
  C   C2677     1.0  0.22514  0.88883  0.65833  1.0000
  C   C2678     1.0  0.41977  0.86328  0.72256  1.0000
  H   H3177     1.0  0.41569  0.84241  0.73187  1.0000
  H   H3178     1.0  0.39181  0.91932  0.76453  1.0000
  C   C2679     1.0  0.26680  0.84544  0.60914  1.0000
  H   H3179     1.0  0.09245  0.79474  0.62989  1.0000
  C   C2680     1.0  0.35002  0.90991  0.63778  1.0000
  H   H3180     1.0  0.19741  0.89788  0.65690  1.0000
  H   H3181     1.0  0.08657  0.77953  0.60010  1.0000
  C   C2681     1.0  0.11857  0.74754  0.59222  1.0000
  H   H3182     1.0  0.44166  0.94586  0.76811  1.0000
  C   C2682     1.0  0.25674  0.84225  0.61566  1.0000
  H   H3183     1.0  0.44538  0.94032  0.75024  1.0000
  C   C2683     1.0  0.33596  0.89882  0.64422  1.0000
  H   H3184     1.0  0.08763  0.75581  0.62649  1.0000
  H   H3185     1.0  0.41480  0.98370  0.75772  1.0000
  H   H3186     1.0  0.33470  0.89541  0.74589  1.0000
  H   H3187     1.0  0.26798  0.84828  0.60024  1.0000
  H   H3188     1.0  0.21643  0.86440  0.66311  1.0000
  C   C2684     1.0  0.16948  0.76440  0.63377  1.0000
  C   C2685     1.0  0.27422  0.84239  0.62543  1.0000
  H   H3189     1.0  0.26314  0.86865  0.60647  1.0000
  C   C2686     1.0  0.10069  0.78063  0.64042  1.0000
  C   C2687     1.0  0.34538  0.90867  0.76680  1.0000
  H   H3190     1.0  0.08294  0.74693  0.64593  1.0000
  C   C2688     1.0  0.07526  0.75356  0.64736  1.0000
  C   C2689     1.0  0.33153  0.88158  0.64336  1.0000
  H   H3191     1.0  0.24678  0.87988  0.59803  1.0000
  H   H3192     1.0  0.34942  0.91544  0.76112  1.0000
  H   H3193     1.0  0.25803  0.83963  0.59463  1.0000
  H   H3194     1.0  0.31533  0.90387  0.62973  1.0000
  H   H3195     1.0  0.17465  0.88990  0.59664  1.0000
  N   N173      1.0  0.31143  0.87714  0.71236  1.0000
  C   C2690     1.0  0.32371  0.87413  0.70829  1.0000
  C   C2691     1.0  0.30862  0.88876  0.71389  1.0000
  C   C2692     1.0  0.30838  0.86989  0.72341  1.0000
  C   C2693     1.0  0.30568  0.87555  0.70449  1.0000
  C   C2694     1.0  0.30720  0.86481  0.70243  1.0000
  C   C2695     1.0  0.29860  0.88445  0.69857  1.0000
  C   C2696     1.0  0.30194  0.86310  0.69498  1.0000
  C   C2697     1.0  0.29331  0.88261  0.69121  1.0000
  C   C2698     1.0  0.29498  0.87197  0.68941  1.0000
  H   H3196     1.0  0.32637  0.87954  0.70009  1.0000
  H   H3197     1.0  0.32830  0.87511  0.71409  1.0000
  H   H3198     1.0  0.32668  0.86538  0.70733  1.0000
  H   H3199     1.0  0.31132  0.89462  0.70599  1.0000
  H   H3200     1.0  0.31296  0.88961  0.72000  1.0000
  H   H3201     1.0  0.29949  0.89157  0.71708  1.0000
  H   H3202     1.0  0.31131  0.86091  0.72328  1.0000
  H   H3203     1.0  0.31226  0.87125  0.72962  1.0000
  H   H3204     1.0  0.29915  0.87155  0.72657  1.0000
  H   H3205     1.0  0.31264  0.85768  0.70641  1.0000
  H   H3206     1.0  0.29718  0.89297  0.69927  1.0000
  H   H3207     1.0  0.30344  0.85490  0.69328  1.0000
  H   H3208     1.0  0.28816  0.88953  0.68657  1.0000
  H   H3209     1.0  0.29118  0.87067  0.68339  1.0000
  H   H3210     1.0  0.26997  0.94684  0.58574  1.0000
  H   H3211     1.0  0.01707  0.75145  0.62774  1.0000
  H   H3212     1.0  0.23299  0.87098  0.66169  1.0000
  C   C2699     1.0  0.38388  0.90616  0.75539  1.0000
  H   H3213     1.0  0.06370  0.77852  0.63295  1.0000
  H   H3214     1.0  0.35681  0.90256  0.74740  1.0000
  H   H3215     1.0  0.35882  0.89158  0.75946  1.0000
  C   C2700     1.0  0.18041  0.79643  0.64227  1.0000
  H   H3216     1.0  0.25554  0.82743  0.60511  1.0000
  H   H3217     1.0  0.34539  0.91593  0.63164  1.0000
  C   C2701     1.0  0.26450  0.90278  0.59685  1.0000
  H   H3218     1.0  0.16205  0.78858  0.61592  1.0000
  C   C2702     1.0  0.11611  0.75574  0.62613  1.0000
  H   H3219     1.0  0.39728  0.96659  0.75354  1.0000
  C   C2703     1.0  0.41208  0.84908  0.73668  1.0000
  H   H3220     1.0  0.16086  0.79936  0.62780  1.0000
  H   H3221     1.0  0.33265  0.87259  0.64579  1.0000
  C   C2704     1.0  0.42102  0.86648  0.77100  1.0000
  H   H3222     1.0  0.08972  0.76630  0.58662  1.0000
  C   C2705     1.0  0.27537  0.84551  0.61399  1.0000
  H   H3223     1.0  0.09382  0.75553  0.64989  1.0000
  Fe  Fe373     1.0  0.36771  0.94466  0.77472  1.0000
  C   C2706     1.0  0.21565  0.98205  0.62380  1.0000
  H   H3224     1.0  0.16348  0.77456  0.61530  1.0000
  C   C2707     1.0  0.06457  0.77137  0.64011  1.0000
  H   H3225     1.0  0.40894  0.90269  0.77447  1.0000
  S   S745      1.0  0.35782  0.98744  0.76435  1.0000
  N   N174      1.0  0.34238  0.90488  0.64768  1.0000
  H   H3226     1.0  0.10971  0.74614  0.60959  1.0000
  C   C2708     1.0  0.10920  0.74955  0.60102  1.0000
  C   C2709     1.0  0.41388  0.86677  0.78146  1.0000
  C   C2710     1.0  0.17043  0.78322  0.63489  1.0000
  C   C2711     1.0  0.09771  0.76118  0.58816  1.0000
  H   H3227     1.0  0.16476  0.86008  0.59878  1.0000
  C   C2712     1.0  0.07909  0.76123  0.62780  1.0000
  S   S746      1.0  0.35128  0.95591  0.77208  1.0000
  H   H3228     1.0  0.07905  0.76881  0.62102  1.0000
  C   C2713     1.0  0.40256  0.85651  0.77749  1.0000
  C   C2714     1.0  0.25590  0.83896  0.62732  1.0000
  H   H3229     1.0  0.29289  0.91531  0.60072  1.0000
  C   C2715     1.0  0.40108  0.96348  0.77371  1.0000
  S   S747      1.0  0.49080  0.91462  0.74206  1.0000
  H   H3230     1.0  0.15129  0.77647  0.64512  1.0000
  N   N175      1.0  0.07595  0.76403  0.63883  1.0000
  H   H3231     1.0  0.09187  0.75748  0.60579  1.0000
  C   C2716     1.0  0.38935  0.89839  0.76358  1.0000
  C   C2717     1.0  0.25625  0.96349  0.62610  1.0000
  H   H3232     1.0  0.33064  0.92088  0.64705  1.0000
  H   H3233     1.0  0.35348  0.90248  0.65870  1.0000
  C   C2718     1.0  0.17893  0.77831  0.64110  1.0000
  H   H3234     1.0  0.13049  0.75055  0.60478  1.0000
  C   C2719     1.0  0.40973  0.97928  0.76531  1.0000
  H   H3235     1.0  0.17561  0.77954  0.61464  1.0000
  H   H3236     1.0  0.25672  0.89501  0.58938  1.0000
  C   C2720     1.0  0.34928  0.89764  0.65568  1.0000
  H   H3237     1.0  0.40966  0.89110  0.76883  1.0000
  H   H3238     1.0  0.32625  0.91369  0.63522  1.0000
  C   C2721     1.0  0.38218  0.89127  0.74807  1.0000
  H   H3239     1.0  0.35134  0.89037  0.75021  1.0000
  C   C2722     1.0  0.38759  0.88351  0.75593  1.0000
  H   H3240     1.0  0.26369  0.83668  0.64099  1.0000
  H   H3241     1.0  0.32783  0.91070  0.65953  1.0000
  H   H3242     1.0  0.33151  0.92491  0.75817  1.0000
  H   H3243     1.0  0.18198  0.76943  0.64326  1.0000
  H   H3244     1.0  0.33796  0.91246  0.77254  1.0000
  C   C2723     1.0  0.48930  0.87021  0.73840  1.0000
  H   H3245     1.0  0.31847  0.88335  0.63496  1.0000
  H   H3246     1.0  0.06236  0.77466  0.64778  1.0000
  H   H3247     1.0  0.16518  0.75974  0.63062  1.0000
  H   H3248     1.0  0.17144  0.84295  0.59667  1.0000
  C   C2724     1.0  0.18382  0.78488  0.64470  1.0000
  H   H3249     1.0  0.32344  0.90673  0.73263  1.0000
  H   H3250     1.0  0.22666  0.88217  0.61667  1.0000
  N   N176      1.0  0.16501  0.77660  0.63094  1.0000
  C   C2725     1.0  0.43026  0.95097  0.74578  1.0000
  N   N177      1.0  0.25930  0.97454  0.62251  1.0000
  H   H3251     1.0  0.34354  0.88175  0.65181  1.0000
  H   H3252     1.0  0.28284  0.84829  0.60884  1.0000
  H   H3253     1.0  0.21939  0.89941  0.60386  1.0000
  C   C2726     1.0  0.16662  0.77996  0.61870  1.0000
  C   C2727     1.0  0.32342  0.92682  0.74523  1.0000
  N   N178      1.0  0.40728  0.96942  0.76322  1.0000
  C   C2728     1.0  0.11766  0.74423  0.63029  1.0000
  H   H3254     1.0  0.35138  0.90338  0.77203  1.0000
  C   C2729     1.0  0.23926  0.88663  0.59703  1.0000
  C   C2730     1.0  0.15285  0.77869  0.63591  1.0000
  H   H3255     1.0  0.10700  0.78479  0.64055  1.0000
  C   C2731     1.0  0.20585  0.88070  0.66030  1.0000
  N   N179      1.0  0.23512  0.89334  0.65696  1.0000
  C   C2732     1.0  0.24501  0.88464  0.65974  1.0000
  C   C2733     1.0  0.23832  0.89921  0.64529  1.0000
  C   C2734     1.0  0.23260  0.90136  0.66423  1.0000
  H   H3256     1.0  0.24803  0.87880  0.65399  1.0000
  H   H3257     1.0  0.25222  0.88831  0.65904  1.0000
  H   H3258     1.0  0.24314  0.87974  0.66838  1.0000
  H   H3259     1.0  0.24024  0.89347  0.63957  1.0000
  H   H3260     1.0  0.24586  0.90267  0.64389  1.0000
  H   H3261     1.0  0.22941  0.89748  0.67301  1.0000
  H   H3262     1.0  0.24017  0.90434  0.66390  1.0000
  H   H3263     1.0  0.21392  0.90508  0.65477  1.0000
  C   C2735     1.0  0.25768  0.97874  0.63264  1.0000
  C   C2736     1.0  0.33178  0.90416  0.74590  1.0000
  C   C2737     1.0  0.09288  0.76418  0.64569  1.0000
  C   C2738     1.0  0.16719  0.79501  0.63256  1.0000
  H   H3264     1.0  0.25782  0.95953  0.61896  1.0000
  H   H3265     1.0  0.07377  0.75500  0.65584  1.0000
  H   H3266     1.0  0.34403  0.89330  0.66317  1.0000
  H   H3267     1.0  0.23236  0.98557  0.60056  1.0000
  S   S748      1.0  0.22161  0.84627  0.59370  1.0000
  C   C2739     1.0  0.33668  0.89358  0.76888  1.0000
  H   H3268     1.0  0.20701  0.91588  0.59094  1.0000
  H   H3269     1.0  0.48689  0.88093  0.76452  1.0000
  H   H3270     1.0  0.16814  0.76117  0.64289  1.0000
  H   H3271     1.0  0.31652  0.92698  0.73164  1.0000
  C   C2740     1.0  0.09249  0.78622  0.63436  1.0000
  H   H3272     1.0  0.05801  0.76689  0.64058  1.0000
  H   H3273     1.0  0.41483  0.96160  0.74327  1.0000
  H   H3274     1.0  0.24856  0.83651  0.63303  1.0000
  H   H3275     1.0  0.19031  0.78101  0.64939  1.0000
  C   C2741     1.0  0.32168  0.89920  0.63442  1.0000
  H   H3276     1.0  0.18422  0.80152  0.64504  1.0000
  C   C2742     1.0  0.08452  0.78082  0.63381  1.0000
  H   H3277     1.0  0.17855  0.76219  0.62996  1.0000
  C   C2743     1.0  0.35275  0.89644  0.75414  1.0000
  H   H3278     1.0  0.10839  0.80158  0.58540  1.0000
  H   H3279     1.0  0.48967  0.86771  0.73087  1.0000
  C   C2744     1.0  0.24338  0.85457  0.60510  1.0000
  H   H3280     1.0  0.39539  0.85279  0.77979  1.0000
  C   C2745     1.0  0.49163  0.90156  0.72755  1.0000
  Fe  Fe374     1.0  0.36614  0.86270  0.77885  1.0000
  C   C2746     1.0  0.38861  0.91365  0.77231  1.0000
  H   H3281     1.0  0.47010  0.87926  0.75994  1.0000
  H   H3282     1.0  0.37931  0.91562  0.77402  1.0000
  C   C2747     1.0  0.25972  0.93285  0.58294  1.0000
  C   C2748     1.0  0.22585  0.98001  0.63798  1.0000
  C   C2749     1.0  0.20768  0.92321  0.58394  1.0000
  C   C2750     1.0  0.32121  0.92193  0.73784  1.0000
  H   H3283     1.0  0.16120  0.87754  0.60427  1.0000
  C   C2751     1.0  0.48791  0.87778  0.75724  1.0000
  H   H3284     1.0  0.27279  0.97013  0.60913  1.0000
  C   C2752     1.0  0.43785  0.94637  0.75269  1.0000
  H   H3285     1.0  0.34208  0.88833  0.77473  1.0000
  N   N180      1.0  0.23660  0.89357  0.60535  1.0000
  C   C2753     1.0  0.23345  0.88628  0.61636  1.0000
  C   C2754     1.0  0.22691  0.90267  0.60308  1.0000
  C   C2755     1.0  0.25266  0.98269  0.61478  1.0000
  C   C2756     1.0  0.24594  0.89850  0.60516  1.0000
  C   C2757     1.0  0.24532  0.90386  0.61372  1.0000
  C   C2758     1.0  0.25563  0.89852  0.59645  1.0000
  C   C2759     1.0  0.25428  0.90796  0.61411  1.0000
  H   H3286     1.0  0.23632  0.85542  0.60114  1.0000
  C   C2760     1.0  0.26396  0.90717  0.60583  1.0000
  H   H3287     1.0  0.23021  0.89091  0.62312  1.0000
  C   C2761     1.0  0.32523  0.91058  0.73831  1.0000
  H   H3288     1.0  0.21508  0.92626  0.58395  1.0000
  H   H3289     1.0  0.22460  0.90835  0.60889  1.0000
  H   H3290     1.0  0.20042  0.84736  0.58696  1.0000
  C   C2762     1.0  0.23788  0.83863  0.61822  1.0000
  Fe  Fe375     1.0  0.22314  0.94658  0.59477  1.0000
  H   H3291     1.0  0.42814  0.87039  0.76847  1.0000
  H   H3292     1.0  0.26122  0.95756  0.63203  1.0000
  H   H3293     1.0  0.23785  0.90504  0.62013  1.0000
  C   C2763     1.0  0.39976  0.97355  0.75524  1.0000
  H   H3294     1.0  0.25373  0.91178  0.62087  1.0000
  H   H3295     1.0  0.27816  0.93082  0.59462  1.0000
  C   C2764     1.0  0.25170  0.83618  0.60165  1.0000
  C   C2765     1.0  0.28823  0.88239  0.59078  1.0000
  H   H3296     1.0  0.40829  0.90481  0.76025  1.0000
  H   H3297     1.0  0.19855  0.87759  0.66088  1.0000
  C   C2766     1.0  0.47824  0.87677  0.75476  1.0000
  C   C2767     1.0  0.29102  0.91642  0.59268  1.0000
  H   H3298     1.0  0.23601  0.92567  0.58297  1.0000
  C   C2768     1.0  0.38041  0.90259  0.74774  1.0000
  C   C2769     1.0  0.22547  0.87723  0.66063  1.0000
  N   N181      1.0  0.38736  0.93760  0.71847  1.0000
  C   C2770     1.0  0.39317  0.94676  0.71228  1.0000
  C   C2771     1.0  0.37716  0.94225  0.72616  1.0000
  C   C2772     1.0  0.39473  0.92910  0.72533  1.0000
  C   C2773     1.0  0.38495  0.93257  0.71049  1.0000
  C   C2774     1.0  0.37390  0.93309  0.70962  1.0000
  C   C2775     1.0  0.39386  0.92704  0.70316  1.0000
  C   C2776     1.0  0.37198  0.92794  0.70221  1.0000
  C   C2777     1.0  0.39184  0.92192  0.69579  1.0000
  C   C2778     1.0  0.38092  0.92227  0.69539  1.0000
  H   H3299     1.0  0.38800  0.95322  0.70686  1.0000
  H   H3300     1.0  0.39499  0.95090  0.71798  1.0000
  H   H3301     1.0  0.40135  0.94377  0.70694  1.0000
  H   H3302     1.0  0.37149  0.94919  0.72168  1.0000
  H   H3303     1.0  0.37928  0.94580  0.73215  1.0000
  H   H3304     1.0  0.37243  0.93574  0.73115  1.0000
  H   H3305     1.0  0.40335  0.92656  0.72050  1.0000
  H   H3306     1.0  0.39578  0.93224  0.73218  1.0000
  H   H3307     1.0  0.39136  0.92143  0.72904  1.0000
  H   H3308     1.0  0.36658  0.93740  0.71457  1.0000
  H   H3309     1.0  0.40249  0.92637  0.70327  1.0000
  H   H3310     1.0  0.36348  0.92827  0.70180  1.0000
  H   H3311     1.0  0.39880  0.91735  0.69062  1.0000
  H   H3312     1.0  0.37938  0.91801  0.68990  1.0000
  C   C2779     1.0  0.42590  0.95710  0.76604  1.0000
  H   H3313     1.0  0.33467  0.88788  0.76491  1.0000
  H   H3314     1.0  0.24993  0.85804  0.59841  1.0000
  H   H3315     1.0  0.07318  0.75666  0.62690  1.0000
  H   H3316     1.0  0.24044  0.85991  0.61130  1.0000
  H   H3317     1.0  0.32871  0.89752  0.77391  1.0000
  H   H3318     1.0  0.42456  0.95914  0.77398  1.0000
  C   C2780     1.0  0.08431  0.76970  0.63967  1.0000
  H   H3319     1.0  0.10750  0.76518  0.65049  1.0000
  H   H3320     1.0  0.22969  0.97475  0.64471  1.0000
  C   C2781     1.0  0.24461  0.97994  0.61075  1.0000
  H   H3321     1.0  0.19533  0.83525  0.58799  1.0000
  C   C2782     1.0  0.99789  0.76376  0.58929  1.0000
  C   C2783     1.0  0.42040  0.95857  0.74897  1.0000
  H   H3322     1.0  0.27454  0.98060  0.61503  1.0000
  C   C2784     1.0  0.43571  0.94948  0.76276  1.0000
  C   C2785     1.0  0.41787  0.96181  0.75929  1.0000
  H   H3323     1.0  0.49164  0.89161  0.71636  1.0000
  H   H3324     1.0  0.23126  0.83893  0.61392  1.0000
  H   H3325     1.0  0.37114  0.97766  0.78124  1.0000
  H   H3326     1.0  0.01461  0.75431  0.58463  1.0000
  C   C2786     1.0  0.00153  0.75374  0.62298  1.0000
  C   C2787     1.0  0.17425  0.84505  0.58751  1.0000
  H   H3327     1.0  0.27106  0.90993  0.60638  1.0000
  H   H3328     1.0  0.13724  0.75435  0.59056  1.0000
  H   H3329     1.0  0.40555  0.96127  0.78059  1.0000
  N   N182      1.0  0.12941  0.74041  0.59442  1.0000
  H   H3330     1.0  0.24482  0.83604  0.59788  1.0000
  H   H3331     1.0  0.21098  0.86918  0.59407  1.0000
  H   H3332     1.0  0.29537  0.88602  0.58640  1.0000
  H   H3333     1.0  0.24075  0.89163  0.58846  1.0000
  H   H3334     1.0  0.26001  0.98692  0.63087  1.0000
  C   C2788     1.0  0.23870  0.98779  0.60326  1.0000
  C   C2789     1.0  0.18062  0.86194  0.58684  1.0000
  H   H3335     1.0  0.27201  0.90234  0.59035  1.0000
  H   H3336     1.0  0.99849  0.76207  0.62458  1.0000
  H   H3337     1.0  0.30303  0.90167  0.58913  1.0000
  C   C2790     1.0  0.19278  0.84380  0.58964  1.0000
  H   H3338     1.0  0.17309  0.91171  0.58782  1.0000
  H   H3339     1.0  0.18813  0.91933  0.58873  1.0000
  C   C2791     1.0  0.29676  0.90870  0.58616  1.0000
  H   H3340     1.0  0.20039  0.93014  0.58566  1.0000
  C   C2792     1.0  0.21560  0.86865  0.58579  1.0000
  C   C2793     1.0  0.28202  0.87957  0.58477  1.0000
  H   H3341     1.0  0.17662  0.83692  0.58495  1.0000
  C   C2794     1.0  0.18577  0.87944  0.58584  1.0000
  N   N183      1.0  0.18372  0.85085  0.58401  1.0000
  Fe  Fe376     1.0  0.14241  0.79089  0.58421  1.0000
  H   H3342     1.0  0.16697  0.85018  0.58391  1.0000
  C   C2795     1.0  0.22154  0.85836  0.58329  1.0000
  H   H3343     1.0  0.19179  0.88473  0.58280  1.0000
  C   C2796     1.0  0.18807  0.86936  0.58252  1.0000
  H   H3344     1.0  0.01453  0.79851  0.58260  1.0000
  H   H3345     1.0  0.25866  0.92477  0.58217  1.0000
  H   H3346     1.0  0.09099  0.81069  0.58231  1.0000
  H   H3347     1.0  0.07141  0.81349  0.58225  1.0000
  Fe  Fe377     1.0  0.35063  0.77639  0.87471  1.0000
  S   S749      1.0  0.35426  0.78759  0.88345  1.0000
  S   S750      1.0  0.33381  0.77220  0.87822  1.0000
  Fe  Fe378     1.0  0.37403  0.77257  0.86060  1.0000
  S   S751      1.0  0.37977  0.78319  0.86817  1.0000
  S   S752      1.0  0.38539  0.76426  0.84716  1.0000
  Fe  Fe379     1.0  0.37022  0.77474  0.88426  1.0000
  S   S753      1.0  0.37846  0.76633  0.89866  1.0000
  Fe  Fe380     1.0  0.36333  0.79505  0.86645  1.0000
  S   S754      1.0  0.36346  0.81344  0.86024  1.0000
  S   S755      1.0  0.36593  0.76304  0.87672  1.0000
  S   S756      1.0  0.35828  0.78489  0.85765  1.0000
  Fe  Fe381     1.0  0.35789  0.85275  0.80327  1.0000
  H   H3348     1.0  0.36492  0.81096  0.88338  1.0000
  S   S757      1.0  0.34979  0.83887  0.81446  1.0000
  Fe  Fe382     1.0  0.35496  0.87762  0.79541  1.0000
  S   S758      1.0  0.34335  0.89424  0.79642  1.0000
  C   C2797     1.0  0.39911  0.75424  0.86200  1.0000
  S   S759      1.0  0.36244  0.86557  0.80919  1.0000
  S   S760      1.0  0.35295  0.76748  0.94816  1.0000
  C   C2798     1.0  0.38479  0.83551  0.81621  1.0000
  C   C2799     1.0  0.41095  0.78959  0.89338  1.0000
  C   C2800     1.0  0.40648  0.77476  0.88827  1.0000
  C   C2801     1.0  0.36053  0.90186  0.79902  1.0000
  H   H3349     1.0  0.41251  0.78986  0.82338  1.0000
  H   H3350     1.0  0.36380  0.89334  0.80279  1.0000
  C   C2802     1.0  0.35936  0.82057  0.84766  1.0000
  C   C2803     1.0  0.36139  0.83128  0.84274  1.0000
  C   C2804     1.0  0.35861  0.83695  0.83248  1.0000
  C   C2805     1.0  0.35363  0.83199  0.82719  1.0000
  C   C2806     1.0  0.35136  0.82143  0.83223  1.0000
  C   C2807     1.0  0.35429  0.81570  0.84239  1.0000
  H   H3351     1.0  0.36527  0.83511  0.84682  1.0000
  H   H3352     1.0  0.36029  0.84514  0.82870  1.0000
  H   H3353     1.0  0.34739  0.81760  0.82824  1.0000
  H   H3354     1.0  0.35250  0.80756  0.84617  1.0000
  C   C2808     1.0  0.39766  0.75590  0.85119  1.0000
  H   H3355     1.0  0.41291  0.82658  0.81268  1.0000
  H   H3356     1.0  0.33112  0.87596  0.81157  1.0000
  H   H3357     1.0  0.35648  0.74595  0.86462  1.0000
  C   C2809     1.0  0.39534  0.79364  0.83187  1.0000
  C   C2810     1.0  0.46088  0.75317  0.88821  1.0000
  C   C2811     1.0  0.37098  0.76702  0.91221  1.0000
  C   C2812     1.0  0.37617  0.76077  0.92090  1.0000
  C   C2813     1.0  0.37085  0.76131  0.93186  1.0000
  C   C2814     1.0  0.36013  0.76789  0.93428  1.0000
  C   C2815     1.0  0.35494  0.77433  0.92556  1.0000
  C   C2816     1.0  0.36035  0.77386  0.91450  1.0000
  H   H3358     1.0  0.33493  0.88754  0.82024  1.0000
  H   H3359     1.0  0.37515  0.75680  0.93843  1.0000
  H   H3360     1.0  0.34672  0.77960  0.92735  1.0000
  H   H3361     1.0  0.35634  0.77881  0.90779  1.0000
  H   H3362     1.0  0.38301  0.80978  0.86994  1.0000
  S   S761      1.0  0.39531  0.86266  0.79753  1.0000
  H   H3363     1.0  0.33338  0.76687  0.93492  1.0000
  H   H3364     1.0  0.40502  0.75212  0.83508  1.0000
  C   C2817     1.0  0.32799  0.74429  0.87424  1.0000
  H   H3365     1.0  0.35198  0.76036  0.85844  1.0000
  H   H3366     1.0  0.34746  0.75168  0.88842  1.0000
  H   H3367     1.0  0.32102  0.76190  0.87057  1.0000
  C   C2818     1.0  0.34865  0.88525  0.82762  1.0000
  H   H3368     1.0  0.48322  0.77307  0.89549  1.0000
  C   C2819     1.0  0.35549  0.87818  0.83463  1.0000
  H   H3369     1.0  0.32526  0.85547  0.84425  1.0000
  C   C2820     1.0  0.31773  0.87533  0.83191  1.0000
  H   H3370     1.0  0.34982  0.75299  0.92954  1.0000
  H   H3371     1.0  0.32037  0.76288  0.94234  1.0000
  H   H3372     1.0  0.38115  0.74625  0.84110  1.0000
  H   H3373     1.0  0.48829  0.76814  0.87655  1.0000
  C   C2821     1.0  0.32708  0.75538  0.87447  1.0000
  H   H3374     1.0  0.34346  0.74254  0.85555  1.0000
  C   C2822     1.0  0.47050  0.75275  0.90545  1.0000
  H   H3375     1.0  0.48655  0.76236  0.90720  1.0000
  H   H3376     1.0  0.36661  0.75405  0.85684  1.0000
  C   C2823     1.0  0.35830  0.75258  0.85716  1.0000
  H   H3377     1.0  0.32270  0.74229  0.87007  1.0000
  C   C2824     1.0  0.35354  0.86762  0.83998  1.0000
  C   C2825     1.0  0.34477  0.86405  0.83830  1.0000
  H   H3378     1.0  0.33276  0.74234  0.95685  1.0000
  H   H3379     1.0  0.39715  0.78295  0.91277  1.0000
  C   C2826     1.0  0.33769  0.87104  0.83112  1.0000
  H   H3380     1.0  0.40785  0.79634  0.89811  1.0000
  C   C2827     1.0  0.39224  0.79756  0.88137  1.0000
  H   H3381     1.0  0.37773  0.83353  0.81407  1.0000
  C   C2828     1.0  0.39190  0.79081  0.89220  1.0000
  H   H3382     1.0  0.31758  0.88385  0.82666  1.0000
  H   H3383     1.0  0.40847  0.77186  0.90918  1.0000
  C   C2829     1.0  0.40441  0.83137  0.81568  1.0000
  H   H3384     1.0  0.41277  0.75402  0.97491  1.0000
  H   H3385     1.0  0.35397  0.76602  0.83741  1.0000
  C   C2830     1.0  0.35049  0.90461  0.79542  1.0000
  H   H3386     1.0  0.37762  0.81864  0.82859  1.0000
  C   C2831     1.0  0.39523  0.81589  0.81975  1.0000
  H   H3387     1.0  0.37402  0.90808  0.80071  1.0000
  H   H3388     1.0  0.39788  0.83643  0.79640  1.0000
  H   H3389     1.0  0.41546  0.87097  0.78696  1.0000
  H   H3390     1.0  0.38261  0.83573  0.82516  1.0000
  H   H3391     1.0  0.39262  0.75817  0.86802  1.0000
  C   C2832     1.0  0.36075  0.75837  0.83733  1.0000
  C   C2833     1.0  0.40497  0.80727  0.81847  1.0000
  N   N184      1.0  0.39546  0.82744  0.81342  1.0000
  H   H3392     1.0  0.41264  0.80892  0.81280  1.0000
  H   H3393     1.0  0.36837  0.76113  0.83717  1.0000
  C   C2834     1.0  0.45488  0.75109  0.89912  1.0000
  H   H3394     1.0  0.33155  0.76111  0.94922  1.0000
  C   C2835     1.0  0.40301  0.75077  0.93020  1.0000
  C   C2836     1.0  0.34647  0.74685  0.93681  1.0000
  H   H3395     1.0  0.38529  0.84415  0.81154  1.0000
  C   C2837     1.0  0.36633  0.91018  0.79780  1.0000
  H   H3396     1.0  0.40442  0.84024  0.81143  1.0000
  H   H3397     1.0  0.40329  0.83074  0.82472  1.0000
  H   H3398     1.0  0.39535  0.78516  0.83653  1.0000
  H   H3399     1.0  0.35890  0.86212  0.84540  1.0000
  C   C2838     1.0  0.38549  0.81280  0.82722  1.0000
  H   H3400     1.0  0.39811  0.75821  0.92603  1.0000
  H   H3401     1.0  0.35022  0.89344  0.82336  1.0000
  H   H3402     1.0  0.33483  0.84974  0.83287  1.0000
  H   H3403     1.0  0.49446  0.75376  0.87561  1.0000
  H   H3404     1.0  0.39120  0.82490  0.79933  1.0000
  C   C2839     1.0  0.38562  0.80187  0.83324  1.0000
  H   H3405     1.0  0.38440  0.75554  0.91908  1.0000
  C   C2840     1.0  0.33185  0.75623  0.91949  1.0000
  C   C2841     1.0  0.39941  0.74678  0.94158  1.0000
  H   H3406     1.0  0.33830  0.91798  0.78825  1.0000
  H   H3407     1.0  0.37810  0.79976  0.83901  1.0000
  S   S762      1.0  0.41607  0.74913  0.90974  1.0000
  H   H3408     1.0  0.32025  0.85368  0.83325  1.0000
  C   C2842     1.0  0.47166  0.75518  0.88583  1.0000
  C   C2843     1.0  0.40052  0.77715  0.90700  1.0000
  C   C2844     1.0  0.45967  0.75094  0.90771  1.0000
  H   H3409     1.0  0.40879  0.77852  0.87931  1.0000
  H   H3410     1.0  0.34382  0.85574  0.84265  1.0000
  C   C2845     1.0  0.33051  0.74813  0.92956  1.0000
  H   H3411     1.0  0.32408  0.86475  0.81489  1.0000
  H   H3412     1.0  0.39174  0.75112  0.94611  1.0000
  H   H3413     1.0  0.38011  0.78673  0.90805  1.0000
  H   H3414     1.0  0.31054  0.87262  0.83084  1.0000
  H   H3415     1.0  0.36372  0.79929  0.90234  1.0000
  H   H3416     1.0  0.31611  0.87598  0.84070  1.0000
  C   C2846     1.0  0.34655  0.74830  0.84781  1.0000
  N   N185      1.0  0.40222  0.78320  0.89523  1.0000
  H   H3417     1.0  0.33545  0.76323  0.91866  1.0000
  H   H3418     1.0  0.40007  0.76992  0.88926  1.0000
  C   C2847     1.0  0.40903  0.74748  0.86502  1.0000
  H   H3419     1.0  0.41401  0.76862  0.89060  1.0000
  C   C2848     1.0  0.38263  0.80483  0.87832  1.0000
  C   C2849     1.0  0.36243  0.92115  0.79245  1.0000
  C   C2850     1.0  0.41600  0.74416  0.84644  1.0000
  S   S763      1.0  0.34927  0.86502  0.79029  1.0000
  S   S764      1.0  0.37049  0.93117  0.78981  1.0000
  C   C2851     1.0  0.33434  0.75812  0.87924  1.0000
  H   H3420     1.0  0.40598  0.82255  0.79843  1.0000
  N   N186      1.0  0.48841  0.75655  0.89228  1.0000
  H   H3421     1.0  0.39476  0.77141  0.90873  1.0000
  C   C2852     1.0  0.37240  0.80550  0.88588  1.0000
  S   S765      1.0  0.37263  0.75296  0.97036  1.0000
  C   C2853     1.0  0.40447  0.75182  0.97673  1.0000
  H   H3422     1.0  0.34044  0.75639  0.84809  1.0000
  H   H3423     1.0  0.40436  0.74803  0.96994  1.0000
  C   C2854     1.0  0.37174  0.79895  0.89655  1.0000
  H   H3424     1.0  0.33876  0.86186  0.81438  1.0000
  C   C2855     1.0  0.33068  0.86757  0.81693  1.0000
  C   C2856     1.0  0.41748  0.74243  0.85723  1.0000
  C   C2857     1.0  0.38132  0.79174  0.89974  1.0000
  C   C2858     1.0  0.33987  0.88177  0.82589  1.0000
  H   H3425     1.0  0.41363  0.79347  0.88451  1.0000
  C   C2859     1.0  0.39774  0.82781  0.80139  1.0000
  H   H3426     1.0  0.41865  0.78416  0.89605  1.0000
  C   C2860     1.0  0.40499  0.79633  0.82447  1.0000
  C   C2861     1.0  0.49550  0.74579  0.89652  1.0000
  Fe  Fe383     1.0  0.37807  0.86309  0.79598  1.0000
  C   C2862     1.0  0.34205  0.74963  0.88444  1.0000
  Fe  Fe384     1.0  0.36071  0.75288  0.96023  1.0000
  H   H3427     1.0  0.39989  0.79711  0.87511  1.0000
  H   H3428     1.0  0.36235  0.88088  0.83586  1.0000
  C   C2863     1.0  0.32961  0.76045  0.94149  1.0000
  N   N187      1.0  0.32850  0.86750  0.82889  1.0000
  C   C2864     1.0  0.32717  0.85612  0.83514  1.0000
  H   H3429     1.0  0.38226  0.98588  0.78885  1.0000
  H   H3430     1.0  0.45722  0.75296  0.88159  1.0000
  H   H3431     1.0  0.45514  0.74896  0.91622  1.0000
  S   S766      1.0  0.34985  0.74313  0.97432  1.0000
  C   C2865     1.0  0.47679  0.75509  0.89442  1.0000
  H   H3432     1.0  0.47405  0.75187  0.91248  1.0000
  H   H3433     1.0  0.41015  0.74630  0.87333  1.0000
  H   H3434     1.0  0.32975  0.76173  0.90260  1.0000
  C   C2866     1.0  0.32464  0.74625  0.91043  1.0000
  C   C2867     1.0  0.35236  0.92388  0.78890  1.0000
  H   H3435     1.0  0.34603  0.74531  0.84064  1.0000
  N   N188      1.0  0.33409  0.74908  0.93925  1.0000
  N   N189      1.0  0.35813  0.74928  0.84705  1.0000
  H   H3436     1.0  0.47588  0.75653  0.87722  1.0000
  H   H3437     1.0  0.34964  0.74723  0.94394  1.0000
  C   C2868     1.0  0.40609  0.75081  0.84345  1.0000
  H   H3438     1.0  0.39165  0.89818  0.78955  1.0000
  H   H3439     1.0  0.39801  0.75968  0.97610  1.0000
  H   H3440     1.0  0.36196  0.75575  0.82943  1.0000
  C   C2869     1.0  0.32877  0.75536  0.91016  1.0000
  C   C2870     1.0  0.34623  0.91570  0.79072  1.0000
  C   C2871     1.0  0.41270  0.74495  0.92423  1.0000
  H   H3441     1.0  0.44662  0.74932  0.90097  1.0000
  C   C2872     1.0  0.33032  0.74116  0.94961  1.0000
  S   S767      1.0  0.37103  0.87642  0.78284  1.0000
  H   H3442     1.0  0.42253  0.74031  0.84039  1.0000
  H   H3443     1.0  0.34921  0.93235  0.78490  1.0000
  H   H3444     1.0  0.32105  0.74219  0.95163  1.0000
  S   S768      1.0  0.37422  0.84917  0.79127  1.0000
  H   H3445     1.0  0.49280  0.74293  0.90563  1.0000
  C   C2873     1.0  0.48889  0.76497  0.89805  1.0000
  C   C2874     1.0  0.40459  0.86182  0.78470  1.0000
  H   H3446     1.0  0.39462  0.88621  0.78406  1.0000
  H   H3447     1.0  0.32242  0.74553  0.90312  1.0000
  C   C2875     1.0  0.49342  0.76020  0.88035  1.0000
  H   H3448     1.0  0.38088  0.89496  0.78509  1.0000
  C   C2876     1.0  0.38993  0.89500  0.78307  1.0000
  H   H3449     1.0  0.49519  0.73919  0.89254  1.0000
  C   C2877     1.0  0.36651  0.73876  0.84613  1.0000
  C   C2878     1.0  0.32637  0.73887  0.92952  1.0000
  C   C2879     1.0  0.50259  0.22377  0.09071  1.0000
  C   C2880     1.0  0.59631  0.17176  0.16739  1.0000
  S   S769      1.0  0.63213  0.21953  0.06368  1.0000
  H   H3450     1.0  0.60407  0.16518  0.16765  1.0000
  Fe  Fe385     1.0  0.62263  0.18744  0.14502  1.0000
  S   S770      1.0  0.62529  0.19909  0.15385  1.0000
  S   S771      1.0  0.62576  0.16878  0.15103  1.0000
  Fe  Fe386     1.0  0.61267  0.20632  0.12767  1.0000
  S   S772      1.0  0.61409  0.21943  0.13544  1.0000
  S   S773      1.0  0.60425  0.21224  0.11325  1.0000
  Fe  Fe387     1.0  0.63104  0.20886  0.13673  1.0000
  S   S774      1.0  0.64589  0.21679  0.12998  1.0000
  Fe  Fe388     1.0  0.60811  0.20841  0.15154  1.0000
  S   S775      1.0  0.59500  0.21416  0.16555  1.0000
  S   S776      1.0  0.63003  0.19630  0.12797  1.0000
  S   S777      1.0  0.60505  0.19624  0.14377  1.0000
  H   H3451     1.0  0.61641  0.22816  0.11172  1.0000
  C   C2881     1.0  0.64295  0.23045  0.13201  1.0000
  C   C2882     1.0  0.57473  0.22856  0.16807  1.0000
  H   H3452     1.0  0.67993  0.22655  0.06126  1.0000
  C   C2883     1.0  0.62701  0.15199  0.16947  1.0000
  C   C2884     1.0  0.62866  0.16277  0.16430  1.0000
  H   H3453     1.0  0.62384  0.14754  0.16534  1.0000
  C   C2885     1.0  0.62442  0.21748  0.07748  1.0000
  C   C2886     1.0  0.61311  0.22260  0.08003  1.0000
  C   C2887     1.0  0.60705  0.22075  0.09103  1.0000
  C   C2888     1.0  0.61228  0.21409  0.09959  1.0000
  C   C2889     1.0  0.62365  0.20907  0.09710  1.0000
  C   C2890     1.0  0.62965  0.21060  0.08602  1.0000
  H   H3454     1.0  0.60893  0.22776  0.07353  1.0000
  H   H3455     1.0  0.59825  0.22447  0.09296  1.0000
  H   H3456     1.0  0.62770  0.20375  0.10363  1.0000
  H   H3457     1.0  0.63830  0.20636  0.08404  1.0000
  H   H3458     1.0  0.65065  0.15261  0.14285  1.0000
  C   C2891     1.0  0.56464  0.23773  0.15334  1.0000
  H   H3459     1.0  0.65616  0.18427  0.14871  1.0000
  C   C2892     1.0  0.57520  0.23678  0.01000  1.0000
  H   H3460     1.0  0.65443  0.17823  0.12299  1.0000
  C   C2893     1.0  0.58333  0.22309  0.16074  1.0000
  S   S778      1.0  0.61165  0.23288  0.04175  1.0000
  H   H3461     1.0  0.65065  0.22547  0.10550  1.0000
  C   C2894     1.0  0.67085  0.17311  0.13387  1.0000
  H   H3462     1.0  0.54341  0.23751  0.09611  1.0000
  C   C2895     1.0  0.58255  0.22488  0.14968  1.0000
  C   C2896     1.0  0.65306  0.22744  0.09653  1.0000
  H   H3463     1.0  0.50940  0.20927  0.11515  1.0000
  H   H3464     1.0  0.58909  0.22056  0.14399  1.0000
  C   C2897     1.0  0.65435  0.14430  0.15847  1.0000
  C   C2898     1.0  0.52220  0.23148  0.08897  1.0000
  H   H3465     1.0  0.65889  0.16341  0.12662  1.0000
  C   C2899     1.0  0.53015  0.23031  0.10758  1.0000
  C   C2900     1.0  0.63282  0.16842  0.16965  1.0000
  H   H3466     1.0  0.64409  0.20862  0.98713  1.0000
  H   H3467     1.0  0.60520  0.18781  0.16923  1.0000
  H   H3468     1.0  0.63083  0.22751  0.14730  1.0000
  C   C2901     1.0  0.65895  0.16238  0.14852  1.0000
  C   C2902     1.0  0.65446  0.15312  0.14920  1.0000
  C   C2903     1.0  0.65415  0.22351  0.07883  1.0000
  H   H3469     1.0  0.64524  0.22413  0.99451  1.0000
  H   H3470     1.0  0.65059  0.13747  0.15896  1.0000
  C   C2904     1.0  0.53590  0.23458  0.09706  1.0000
  H   H3471     1.0  0.51528  0.20584  0.10180  1.0000
  H   H3472     1.0  0.67133  0.17999  0.12636  1.0000
  H   H3473     1.0  0.64528  0.17038  0.13319  1.0000
  S   S779      1.0  0.61158  0.21069  0.98697  1.0000
  C   C2905     1.0  0.65931  0.23261  0.07301  1.0000
  C   C2906     1.0  0.60269  0.18179  0.17706  1.0000
  H   H3474     1.0  0.58132  0.19223  0.18102  1.0000
  C   C2907     1.0  0.50790  0.21073  0.10670  1.0000
  H   H3475     1.0  0.67479  0.17507  0.13963  1.0000
  H   H3476     1.0  0.62452  0.21916  0.01592  1.0000
  C   C2908     1.0  0.58244  0.22026  0.00232  1.0000
  H   H3477     1.0  0.65245  0.21822  0.07447  1.0000
  H   H3478     1.0  0.65810  0.13777  0.17467  1.0000
  C   C2909     1.0  0.65265  0.18231  0.14261  1.0000
  H   H3479     1.0  0.62859  0.23102  0.11383  1.0000
  C   C2910     1.0  0.61910  0.23410  0.00432  1.0000
  H   H3480     1.0  0.67610  0.16530  0.13139  1.0000
  H   H3481     1.0  0.65315  0.22556  0.05667  1.0000
  H   H3482     1.0  0.59608  0.21877  0.02202  1.0000
  H   H3483     1.0  0.63417  0.17669  0.16577  1.0000
  C   C2911     1.0  0.61401  0.21988  0.99379  1.0000
  H   H3484     1.0  0.62002  0.20667  0.00669  1.0000
  C   C2912     1.0  0.62081  0.22263  0.00874  1.0000
  C   C2913     1.0  0.67298  0.22635  0.05764  1.0000
  H   H3485     1.0  0.67132  0.21780  0.06069  1.0000
  H   H3486     1.0  0.65242  0.18971  0.13559  1.0000
  H   H3487     1.0  0.58899  0.22489  0.03776  1.0000
  C   C2914     1.0  0.65820  0.23636  0.09111  1.0000
  H   H3488     1.0  0.57404  0.22860  0.03919  1.0000
  H   H3489     1.0  0.57529  0.22719  0.17661  1.0000
  N   N190      1.0  0.65914  0.17195  0.13890  1.0000
  H   H3490     1.0  0.64388  0.18159  0.14659  1.0000
  H   H3491     1.0  0.58522  0.22604  0.08299  1.0000
  H   H3492     1.0  0.57642  0.18466  0.17385  1.0000
  H   H3493     1.0  0.66676  0.16897  0.15781  1.0000
  H   H3494     1.0  0.65470  0.23593  0.11718  1.0000
  C   C2915     1.0  0.61835  0.21556  0.00344  1.0000
  H   H3495     1.0  0.60834  0.23482  0.98238  1.0000
  C   C2916     1.0  0.65425  0.17088  0.13006  1.0000
  Fe  Fe389     1.0  0.62355  0.23349  0.05167  1.0000
  C   C2917     1.0  0.58971  0.21605  0.00957  1.0000
  C   C2918     1.0  0.51617  0.22696  0.09960  1.0000
  C   C2919     1.0  0.66330  0.16220  0.15767  1.0000
  C   C2920     1.0  0.63518  0.23354  0.14129  1.0000
  C   C2921     1.0  0.53195  0.23515  0.08778  1.0000
  H   H3496     1.0  0.62686  0.23223  0.10001  1.0000
  C   C2922     1.0  0.58992  0.22221  0.01694  1.0000
  H   H3497     1.0  0.58640  0.19307  0.16657  1.0000
  C   C2923     1.0  0.58039  0.23365  0.07894  1.0000
  N   N191      1.0  0.50598  0.22269  0.10121  1.0000
  C   C2924     1.0  0.52045  0.22653  0.10887  1.0000
  C   C2925     1.0  0.66306  0.15337  0.16693  1.0000
  C   C2926     1.0  0.65395  0.23424  0.05565  1.0000
  H   H3498     1.0  0.50919  0.21898  0.08506  1.0000
  H   H3499     1.0  0.58260  0.21557  0.99639  1.0000
  C   C2927     1.0  0.65858  0.14445  0.16733  1.0000
  H   H3500     1.0  0.64707  0.21408  0.09467  1.0000
  H   H3501     1.0  0.60099  0.23507  0.02277  1.0000
  H   H3502     1.0  0.56967  0.23388  0.99675  1.0000
  H   H3503     1.0  0.59785  0.23756  0.11037  1.0000
  H   H3504     1.0  0.66615  0.15352  0.17395  1.0000
  H   H3505     1.0  0.59554  0.20812  0.00915  1.0000
  C   C2928     1.0  0.64258  0.21707  0.98232  1.0000
  C   C2929     1.0  0.58174  0.23199  0.03681  1.0000
  H   H3506     1.0  0.51631  0.22329  0.11722  1.0000
  H   H3507     1.0  0.59803  0.17759  0.15926  1.0000
  C   C2930     1.0  0.61181  0.23139  0.98970  1.0000
  C   C2931     1.0  0.65106  0.22102  0.09040  1.0000
  H   H3508     1.0  0.58955  0.16781  0.16730  1.0000
  H   H3509     1.0  0.53326  0.22997  0.11476  1.0000
  H   H3510     1.0  0.67598  0.22764  0.04848  1.0000
  C   C2932     1.0  0.64324  0.22582  0.98644  1.0000
  C   C2933     1.0  0.57521  0.23060  0.00253  1.0000
  C   C2934     1.0  0.57318  0.23219  0.14598  1.0000
  H   H3511     1.0  0.59271  0.23490  0.06363  1.0000
  C   C2935     1.0  0.58256  0.23271  0.01750  1.0000
  C   C2936     1.0  0.58385  0.18721  0.17454  1.0000
  N   N192      1.0  0.66288  0.23487  0.06076  1.0000
  H   H3512     1.0  0.61022  0.17510  0.17813  1.0000
  C   C2937     1.0  0.62241  0.23375  0.10840  1.0000
  N   N193      1.0  0.59310  0.17746  0.17679  1.0000
  H   H3513     1.0  0.51948  0.23242  0.08144  1.0000
  C   C2938     1.0  0.56543  0.23586  0.16438  1.0000
  S   S780      1.0  0.56582  0.23338  0.09895  1.0000
  H   H3514     1.0  0.57256  0.23350  0.13746  1.0000
  H   H3515     1.0  0.58122  0.23673  0.04309  1.0000
  C   C2939     1.0  0.64860  0.23828  0.12431  1.0000
  H   H3516     1.0  0.65554  0.23764  0.04655  1.0000
  C   C2940     1.0  0.62956  0.14685  0.17991  1.0000
  H   H3517     1.0  0.50050  0.20716  0.10766  1.0000
  H   H3518     1.0  0.50064  0.23263  0.08630  1.0000
  C   C2941     1.0  0.63556  0.16321  0.17999  1.0000
  H   H3519     1.0  0.49795  0.22807  0.11665  1.0000
  H   H3520     1.0  0.53643  0.23861  0.07963  1.0000
  C   C2942     1.0  0.61440  0.23844  0.99492  1.0000
  C   C2943     1.0  0.58458  0.23862  0.06797  1.0000
  Fe  Fe390     1.0  0.55598  0.08275  0.26967  1.0000
  S   S781      1.0  0.54825  0.07737  0.28750  1.0000
  S   S782      1.0  0.56080  0.07029  0.25900  1.0000
  Fe  Fe391     1.0  0.55675  0.10520  0.27251  1.0000
  S   S783      1.0  0.54891  0.10156  0.29068  1.0000
  S   S784      1.0  0.56391  0.12047  0.26538  1.0000
  Fe  Fe392     1.0  0.56071  0.08491  0.29086  1.0000
  S   S785      1.0  0.57194  0.07513  0.30286  1.0000
  Fe  Fe393     1.0  0.53732  0.09439  0.28537  1.0000
  S   S786      1.0  0.51859  0.09702  0.29203  1.0000
  S   S787      1.0  0.56918  0.08903  0.27301  1.0000
  S   S788      1.0  0.54428  0.09943  0.26711  1.0000
  Fe  Fe394     1.0  0.60957  0.02619  0.26707  1.0000
  S   S789      1.0  0.60991  0.02309  0.25065  1.0000
  S   S790      1.0  0.59439  0.02925  0.28047  1.0000
  Fe  Fe395     1.0  0.63445  0.02461  0.26252  1.0000
  S   S791      1.0  0.63728  0.02087  0.24571  1.0000
  S   S792      1.0  0.64852  0.02592  0.26934  1.0000
  Fe  Fe396     1.0  0.62200  0.03456  0.24406  1.0000
  S   S793      1.0  0.62075  0.04845  0.22903  1.0000
  Fe  Fe397     1.0  0.62500  0.00960  0.25370  1.0000
  S   S794      1.0  0.62011  0.03898  0.26021  1.0000
  S   S795      1.0  0.62376  0.01207  0.27078  1.0000
  C   C2944     1.0  0.58471  0.15302  0.20670  1.0000
  H   H3521     1.0  0.68730  0.08486  0.29866  1.0000
  H   H3522     1.0  0.68932  0.08500  0.31598  1.0000
  H   H3523     1.0  0.51969  0.07801  0.24998  1.0000
  H   H3524     1.0  0.55321  0.06320  0.31696  1.0000
  C   C2945     1.0  0.58203  0.00547  0.27963  1.0000
  H   H3525     1.0  0.83004  0.12547  0.37957  1.0000
  H   H3526     1.0  0.61569  0.16872  0.21029  1.0000
  S   S796      1.0  0.76638  0.13995  0.36344  1.0000
  H   H3527     1.0  0.52616  0.07326  0.33700  1.0000
  Fe  Fe398     1.0  0.69212  0.10885  0.35994  1.0000
  S   S797      1.0  0.71001  0.10752  0.35059  1.0000
  S   S798      1.0  0.67742  0.11329  0.35109  1.0000
  H   H3528     1.0  0.74175  0.00864  0.37504  1.0000
  S   S799      1.0  0.71758  0.10075  0.37475  1.0000
  Fe  Fe399     1.0  0.71271  0.11625  0.36240  1.0000
  S   S800      1.0  0.72293  0.12960  0.35600  1.0000
  Fe  Fe400     1.0  0.71342  0.09228  0.36374  1.0000
  S   S801      1.0  0.72526  0.07734  0.35846  1.0000
  S   S802      1.0  0.69436  0.11940  0.37054  1.0000
  H   H3529     1.0  0.64380  0.08537  0.27108  1.0000
  Fe  Fe401     1.0  0.62446  0.08957  0.31108  1.0000
  S   S803      1.0  0.63281  0.08219  0.29617  1.0000
  S   S804      1.0  0.60601  0.09770  0.31281  1.0000
  Fe  Fe402     1.0  0.64625  0.08400  0.31995  1.0000
  S   S805      1.0  0.65580  0.07565  0.30576  1.0000
  S   S806      1.0  0.65728  0.08295  0.33207  1.0000
  Fe  Fe403     1.0  0.64668  0.09032  0.29520  1.0000
  S   S807      1.0  0.65640  0.09814  0.27892  1.0000
  Fe  Fe404     1.0  0.64105  0.06823  0.30808  1.0000
  S   S808      1.0  0.64290  0.05010  0.30820  1.0000
  S   S809      1.0  0.63773  0.09915  0.30904  1.0000
  S   S810      1.0  0.63204  0.07510  0.32330  1.0000
  Fe  Fe405     1.0  0.62405  0.12258  0.23334  1.0000
  S   S811      1.0  0.64041  0.11928  0.22137  1.0000
  S   S812      1.0  0.62133  0.12663  0.24995  1.0000
  Fe  Fe406     1.0  0.61083  0.12097  0.21775  1.0000
  S   S813      1.0  0.62602  0.11759  0.20428  1.0000
  S   S814      1.0  0.59323  0.12201  0.21687  1.0000
  Fe  Fe407     1.0  0.63356  0.10612  0.21840  1.0000
  S   S815      1.0  0.64434  0.08905  0.21737  1.0000
  Fe  Fe408     1.0  0.63138  0.13102  0.20848  1.0000
  S   S816      1.0  0.63830  0.14588  0.19767  1.0000
  S   S817      1.0  0.61791  0.10851  0.23148  1.0000
  S   S818      1.0  0.61550  0.13528  0.22076  1.0000
  H   H3530     1.0  0.65338  0.06637  0.27866  1.0000
  H   H3531     1.0  0.66001  0.10395  0.29846  1.0000
  C   C2946     1.0  0.49973  0.09046  0.29212  1.0000
  C   C2947     1.0  0.59643  0.04490  0.31379  1.0000
  H   H3532     1.0  0.63787  0.16545  0.23534  1.0000
  H   H3533     1.0  0.60282  0.01952  0.31393  1.0000
  C   C2948     1.0  0.66689  0.04497  0.24965  1.0000
  H   H3534     1.0  0.59526  0.09838  0.22529  1.0000
  C   C2949     1.0  0.59531  0.15139  0.19983  1.0000
  H   H3535     1.0  0.63244  0.14305  0.23591  1.0000
  H   H3536     1.0  0.60137  0.14372  0.20182  1.0000
  C   C2950     1.0  0.63376  0.16680  0.21624  1.0000
  H   H3537     1.0  0.56566  0.00217  0.28713  1.0000
  C   C2951     1.0  0.63140  0.11904  0.25774  1.0000
  C   C2952     1.0  0.62885  0.11861  0.26913  1.0000
  C   C2953     1.0  0.63650  0.11213  0.27567  1.0000
  C   C2954     1.0  0.64696  0.10653  0.27072  1.0000
  C   C2955     1.0  0.64968  0.10726  0.25926  1.0000
  C   C2956     1.0  0.64181  0.11334  0.25279  1.0000
  H   H3538     1.0  0.62087  0.12314  0.27296  1.0000
  H   H3539     1.0  0.63436  0.11159  0.28452  1.0000
  H   H3540     1.0  0.65774  0.10285  0.25543  1.0000
  H   H3541     1.0  0.64386  0.11367  0.24400  1.0000
  C   C2957     1.0  0.67208  0.10471  0.34571  1.0000
  C   C2958     1.0  0.66355  0.10968  0.33969  1.0000
  C   C2959     1.0  0.65902  0.10325  0.33533  1.0000
  C   C2960     1.0  0.66292  0.09169  0.33697  1.0000
  C   C2961     1.0  0.67145  0.08673  0.34298  1.0000
  C   C2962     1.0  0.67600  0.09316  0.34730  1.0000
  H   H3542     1.0  0.66041  0.11858  0.33840  1.0000
  H   H3543     1.0  0.65239  0.10723  0.33088  1.0000
  H   H3544     1.0  0.67454  0.07782  0.34436  1.0000
  H   H3545     1.0  0.68251  0.08916  0.35192  1.0000
  C   C2963     1.0  0.72658  0.06680  0.37025  1.0000
  H   H3546     1.0  0.74817  0.08032  0.34943  1.0000
  N   N194      1.0  0.53050  0.07171  0.31995  1.0000
  C   C2964     1.0  0.64673  0.07923  0.26598  1.0000
  N   N195      1.0  0.50438  0.09045  0.25272  1.0000
  H   H3547     1.0  0.73664  0.02329  0.37279  1.0000
  C   C2965     1.0  0.68230  0.10250  0.30912  1.0000
  H   H3548     1.0  0.74168  0.05716  0.36204  1.0000
  H   H3549     1.0  0.67007  0.03909  0.24395  1.0000
  C   C2966     1.0  0.49965  0.07320  0.28765  1.0000
  C   C2967     1.0  0.50453  0.10319  0.26486  1.0000
  H   H3550     1.0  0.75326  0.12258  0.37662  1.0000
  C   C2968     1.0  0.59694  0.08111  0.22424  1.0000
  C   C2969     1.0  0.75425  0.13626  0.36241  1.0000
  C   C2970     1.0  0.74940  0.14243  0.35346  1.0000
  C   C2971     1.0  0.73993  0.14011  0.35179  1.0000
  C   C2972     1.0  0.73509  0.13147  0.35895  1.0000
  C   C2973     1.0  0.73991  0.12510  0.36799  1.0000
  C   C2974     1.0  0.74950  0.12752  0.36974  1.0000
  H   H3551     1.0  0.75298  0.14914  0.34772  1.0000
  H   H3552     1.0  0.73632  0.14511  0.34482  1.0000
  H   H3553     1.0  0.60244  0.99087  0.26278  1.0000
  H   H3554     1.0  0.59784  0.07508  0.24571  1.0000
  H   H3555     1.0  0.58052  0.01269  0.28314  1.0000
  H   H3556     1.0  0.50950  0.10149  0.23728  1.0000
  C   C2975     1.0  0.88668  0.23125  0.34771  1.0000
  C   C2976     1.0  0.65220  0.06852  0.27021  1.0000
  C   C2977     1.0  0.61079  0.03934  0.29162  1.0000
  H   H3557     1.0  0.76174  0.07648  0.35231  1.0000
  H   H3558     1.0  0.84742  0.21587  0.37387  1.0000
  H   H3559     1.0  0.62688  0.15916  0.24424  1.0000
  H   H3560     1.0  0.64698  0.07663  0.24047  1.0000
  C   C2978     1.0  0.64668  0.03346  0.27960  1.0000
  C   C2979     1.0  0.65351  0.02911  0.28731  1.0000
  C   C2980     1.0  0.65244  0.03456  0.29574  1.0000
  C   C2981     1.0  0.64484  0.04469  0.29638  1.0000
  C   C2982     1.0  0.63817  0.04936  0.28844  1.0000
  C   C2983     1.0  0.63903  0.04368  0.28008  1.0000
  H   H3561     1.0  0.65951  0.02130  0.28695  1.0000
  H   H3562     1.0  0.65752  0.03083  0.30188  1.0000
  H   H3563     1.0  0.63214  0.05712  0.28897  1.0000
  H   H3564     1.0  0.63384  0.04722  0.27403  1.0000
  C   C2984     1.0  0.62801  0.05900  0.22703  1.0000
  C   C2985     1.0  0.63725  0.05987  0.21821  1.0000
  C   C2986     1.0  0.64220  0.06909  0.21541  1.0000
  C   C2987     1.0  0.63771  0.07773  0.22114  1.0000
  C   C2988     1.0  0.62852  0.07685  0.23008  1.0000
  C   C2989     1.0  0.62378  0.06740  0.23311  1.0000
  H   H3565     1.0  0.64045  0.05352  0.21336  1.0000
  H   H3566     1.0  0.64935  0.06968  0.20856  1.0000
  H   H3567     1.0  0.62513  0.08337  0.23469  1.0000
  H   H3568     1.0  0.61670  0.06674  0.23996  1.0000
  C   C2990     1.0  0.60356  0.02439  0.30524  1.0000
  C   C2991     1.0  0.57185  0.12094  0.25183  1.0000
  C   C2992     1.0  0.56892  0.11666  0.24435  1.0000
  C   C2993     1.0  0.57526  0.11740  0.23345  1.0000
  C   C2994     1.0  0.58483  0.12188  0.23022  1.0000
  C   C2995     1.0  0.58784  0.12600  0.23777  1.0000
  C   C2996     1.0  0.58120  0.12576  0.24848  1.0000
  H   H3569     1.0  0.56160  0.11306  0.24689  1.0000
  H   H3570     1.0  0.57282  0.11439  0.22755  1.0000
  H   H3571     1.0  0.59517  0.12952  0.23534  1.0000
  H   H3572     1.0  0.58342  0.12916  0.25423  1.0000
  C   C2997     1.0  0.58149  0.08175  0.30500  1.0000
  C   C2998     1.0  0.59278  0.07631  0.30432  1.0000
  C   C2999     1.0  0.60038  0.08108  0.30668  1.0000
  C   C3000     1.0  0.59674  0.09139  0.30974  1.0000
  C   C3001     1.0  0.58549  0.09693  0.31024  1.0000
  C   C3002     1.0  0.57790  0.09216  0.30784  1.0000
  H   H3573     1.0  0.59571  0.06840  0.30186  1.0000
  H   H3574     1.0  0.60903  0.07674  0.30622  1.0000
  H   H3575     1.0  0.58262  0.10492  0.31255  1.0000
  H   H3576     1.0  0.56923  0.09645  0.30840  1.0000
  C   C3003     1.0  0.51146  0.08781  0.29017  1.0000
  C   C3004     1.0  0.68159  0.11345  0.31016  1.0000
  C   C3005     1.0  0.60867  0.09405  0.21226  1.0000
  H   H3577     1.0  0.56474  0.05030  0.30539  1.0000
  C   C3006     1.0  0.51137  0.07044  0.28593  1.0000
  C   C3007     1.0  0.51727  0.07780  0.28699  1.0000
  C   C3008     1.0  0.53272  0.05878  0.30710  1.0000
  H   H3578     1.0  0.51591  0.06264  0.28361  1.0000
  H   H3579     1.0  0.52630  0.07565  0.28545  1.0000
  C   C3009     1.0  0.56976  0.05859  0.26516  1.0000
  C   C3010     1.0  0.57217  0.05824  0.27526  1.0000
  C   C3011     1.0  0.57945  0.04903  0.28012  1.0000
  C   C3012     1.0  0.58470  0.04030  0.27467  1.0000
  C   C3013     1.0  0.58252  0.04069  0.26445  1.0000
  C   C3014     1.0  0.57493  0.04978  0.25976  1.0000
  H   H3580     1.0  0.56858  0.06509  0.27934  1.0000
  H   H3581     1.0  0.58124  0.04884  0.28794  1.0000
  H   H3582     1.0  0.58656  0.03392  0.26024  1.0000
  H   H3583     1.0  0.57318  0.05002  0.25190  1.0000
  H   H3584     1.0  0.62355  0.17296  0.23601  1.0000
  H   H3585     1.0  0.58613  0.06852  0.25044  1.0000
  C   C3015     1.0  0.60372  0.07301  0.21816  1.0000
  C   C3016     1.0  0.69300  0.10654  0.32393  1.0000
  S   S819      1.0  0.79490  0.12874  0.37454  1.0000
  C   C3017     1.0  0.50495  0.09457  0.24065  1.0000
  C   C3018     1.0  0.63529  0.14849  0.22782  1.0000
  N   N196      1.0  0.62853  0.16003  0.22679  1.0000
  H   H3586     1.0  0.75897  0.08714  0.34032  1.0000
  H   H3587     1.0  0.66128  0.11908  0.37308  1.0000
  H   H3588     1.0  0.52161  0.09097  0.25109  1.0000
  S   S820      1.0  0.93641  0.23339  0.36759  1.0000
  C   C3019     1.0  0.88696  0.22882  0.36695  1.0000
  H   H3589     1.0  0.58536  0.06381  0.22966  1.0000
  H   H3590     1.0  0.89687  0.21158  0.35683  1.0000
  C   C3020     1.0  0.85216  0.22233  0.36995  1.0000
  C   C3021     1.0  0.61513  0.08591  0.20646  1.0000
  C   C3022     1.0  0.66378  0.05976  0.23401  1.0000
  H   H3591     1.0  0.62223  0.08767  0.19985  1.0000
  H   H3592     1.0  0.89599  0.22920  0.34516  1.0000
  C   C3023     1.0  0.59433  0.99296  0.26815  1.0000
  C   C3024     1.0  0.59925  0.15415  0.23804  1.0000
  H   H3593     1.0  0.60057  0.18624  0.18394  1.0000
  H   H3594     1.0  0.73538  0.09667  0.35280  1.0000
  H   H3595     1.0  0.59464  0.14975  0.24561  1.0000
  H   H3596     1.0  0.74458  0.10498  0.34325  1.0000
  H   H3597     1.0  0.53365  0.08577  0.30681  1.0000
  C   C3025     1.0  0.65612  0.06055  0.26366  1.0000
  H   H3598     1.0  0.60211  0.04394  0.29098  1.0000
  H   H3599     1.0  0.57323  0.07117  0.23726  1.0000
  C   C3026     1.0  0.49760  0.08180  0.25690  1.0000
  H   H3600     1.0  0.60636  0.15774  0.18523  1.0000
  H   H3601     1.0  0.50929  0.08787  0.23600  1.0000
  H   H3602     1.0  0.60250  0.06459  0.22039  1.0000
  H   H3603     1.0  0.58259  0.14663  0.21397  1.0000
  C   C3027     1.0  0.62921  0.16461  0.23598  1.0000
  H   H3604     1.0  0.52393  0.06097  0.30693  1.0000
  C   C3028     1.0  0.53953  0.05133  0.30053  1.0000
  H   H3605     1.0  0.73619  0.11846  0.37366  1.0000
  H   H3606     1.0  0.88391  0.22463  0.37568  1.0000
  C   C3029     1.0  0.58087  0.07234  0.23071  1.0000
  C   C3030     1.0  0.53451  0.08226  0.31554  1.0000
  H   H3607     1.0  0.77114  0.01653  0.37215  1.0000
  H   H3608     1.0  0.72720  0.01441  0.37480  1.0000
  C   C3031     1.0  0.87025  0.22788  0.36219  1.0000
  C   C3032     1.0  0.65132  0.09451  0.36683  1.0000
  H   H3609     1.0  0.65534  0.07791  0.36409  1.0000
  C   C3033     1.0  0.59234  0.00216  0.27283  1.0000
  H   H3610     1.0  0.64904  0.11026  0.37054  1.0000
  H   H3611     1.0  0.57298  0.08590  0.24440  1.0000
  N   N197      1.0  0.88264  0.22526  0.35918  1.0000
  H   H3612     1.0  0.61788  0.06895  0.20512  1.0000
  H   H3613     1.0  0.51349  0.08068  0.32486  1.0000
  H   H3614     1.0  0.89629  0.22686  0.36518  1.0000
  C   C3034     1.0  0.64878  0.07408  0.24864  1.0000
  Fe  Fe409     1.0  0.77622  0.13550  0.37692  1.0000
  H   H3615     1.0  0.56861  0.16402  0.20955  1.0000
  H   H3616     1.0  0.51469  0.06687  0.32331  1.0000
  C   C3035     1.0  0.55576  0.05247  0.30607  1.0000
  C   C3036     1.0  0.73730  0.04979  0.37942  1.0000
  C   C3037     1.0  0.88759  0.21323  0.35965  1.0000
  H   H3617     1.0  0.51598  0.08140  0.26325  1.0000
  H   H3618     1.0  0.51292  0.09915  0.26599  1.0000
  C   C3038     1.0  0.60031  0.16437  0.21913  1.0000
  H   H3619     1.0  0.83745  0.23551  0.37034  1.0000
  C   C3039     1.0  0.59311  0.05213  0.32109  1.0000
  C   C3040     1.0  0.61223  0.04912  0.32262  1.0000
  H   H3620     1.0  0.76209  0.00819  0.36253  1.0000
  S   S821      1.0  0.69550  0.09303  0.37262  1.0000
  N   N198      1.0  0.65852  0.05481  0.24551  1.0000
  H   H3621     1.0  0.67405  0.08773  0.29502  1.0000
  H   H3622     1.0  0.54346  0.08120  0.31567  1.0000
  C   C3041     1.0  0.65283  0.10153  0.37269  1.0000
  H   H3623     1.0  0.88423  0.20991  0.35436  1.0000
  H   H3624     1.0  0.59882  0.00680  0.27111  1.0000
  H   H3625     1.0  0.50171  0.07421  0.25350  1.0000
  C   C3042     1.0  0.61030  0.15461  0.23730  1.0000
  H   H3626     1.0  0.69842  0.08882  0.32838  1.0000
  C   C3043     1.0  0.76939  0.00833  0.37578  1.0000
  H   H3627     1.0  0.62496  0.01951  0.29651  1.0000
  C   C3044     1.0  0.73570  0.05780  0.36978  1.0000
  H   H3628     1.0  0.51691  0.07805  0.31133  1.0000
  H   H3629     1.0  0.64459  0.04698  0.25365  1.0000
  H   H3630     1.0  0.64252  0.16690  0.21611  1.0000
  H   H3631     1.0  0.65107  0.04458  0.23998  1.0000
  H   H3632     1.0  0.81902  0.17033  0.37606  1.0000
  H   H3633     1.0  0.60652  0.01840  0.29963  1.0000
  H   H3634     1.0  0.61596  0.04565  0.28966  1.0000
  C   C3045     1.0  0.76211  0.99285  0.37481  1.0000
  H   H3635     1.0  0.67419  0.04750  0.25068  1.0000
  H   H3636     1.0  0.64653  0.09788  0.36038  1.0000
  C   C3046     1.0  0.68683  0.11540  0.31751  1.0000
  H   H3637     1.0  0.68591  0.12379  0.31844  1.0000
  H   H3638     1.0  0.64084  0.09039  0.25190  1.0000
  H   H3639     1.0  0.59503  0.02874  0.30391  1.0000
  H   H3640     1.0  0.66011  0.05238  0.26757  1.0000
  C   C3047     1.0  0.64872  0.05088  0.24520  1.0000
  C   C3048     1.0  0.66292  0.07895  0.37676  1.0000
  H   H3641     1.0  0.52927  0.05923  0.33506  1.0000
  H   H3642     1.0  0.62446  0.03817  0.31360  1.0000
  C   C3049     1.0  0.51592  0.08502  0.25433  1.0000
  C   C3050     1.0  0.53732  0.06340  0.31330  1.0000
  C   C3051     1.0  0.61263  0.07542  0.20938  1.0000
  H   H3643     1.0  0.67720  0.10498  0.28369  1.0000
  H   H3644     1.0  0.59850  0.06027  0.33070  1.0000
  C   C3052     1.0  0.68858  0.09363  0.31589  1.0000
  N   N199      1.0  0.67667  0.10068  0.30127  1.0000
  H   H3645     1.0  0.58574  0.15852  0.22955  1.0000
  H   H3646     1.0  0.59644  0.16804  0.21206  1.0000
  C   C3053     1.0  0.60102  0.05429  0.32543  1.0000
  H   H3647     1.0  0.88316  0.22917  0.34168  1.0000
  C   C3054     1.0  0.65633  0.08324  0.36888  1.0000
  C   C3055     1.0  0.61560  0.04169  0.31553  1.0000
  C   C3056     1.0  0.59017  0.16940  0.18729  1.0000
  C   C3057     1.0  0.64503  0.08201  0.25521  1.0000
  C   C3058     1.0  0.59426  0.15904  0.22898  1.0000
  C   C3059     1.0  0.55103  0.04823  0.29996  1.0000
  C   C3060     1.0  0.68103  0.10652  0.28984  1.0000
  C   C3061     1.0  0.51839  0.07437  0.31986  1.0000
  C   C3062     1.0  0.69389  0.09570  0.32309  1.0000
  H   H3648     1.0  0.66233  0.11420  0.30408  1.0000
  N   N200      1.0  0.75213  0.09246  0.35576  1.0000
  C   C3063     1.0  0.74841  0.08727  0.36758  1.0000
  C   C3064     1.0  0.74236  0.10069  0.35208  1.0000
  C   C3065     1.0  0.53162  0.06747  0.33164  1.0000
  C   C3066     1.0  0.76178  0.09742  0.35452  1.0000
  C   C3067     1.0  0.76129  0.10907  0.35120  1.0000
  C   C3068     1.0  0.77200  0.09053  0.35701  1.0000
  C   C3069     1.0  0.77043  0.11347  0.35061  1.0000
  C   C3070     1.0  0.78109  0.09502  0.35636  1.0000
  C   C3071     1.0  0.78027  0.10647  0.35326  1.0000
  H   H3649     1.0  0.74600  0.09350  0.37287  1.0000
  C   C3072     1.0  0.59976  0.09172  0.22107  1.0000
  C   C3073     1.0  0.75544  0.08375  0.34916  1.0000
  H   H3650     1.0  0.73886  0.10708  0.35722  1.0000
  H   H3651     1.0  0.52960  0.08874  0.32032  1.0000
  H   H3652     1.0  0.62841  0.13847  0.18377  1.0000
  N   N201      1.0  0.58778  0.07826  0.23375  1.0000
  C   C3074     1.0  0.59271  0.07088  0.24309  1.0000
  C   C3075     1.0  0.67830  0.08877  0.30110  1.0000
  H   H3653     1.0  0.75390  0.11503  0.34917  1.0000
  H   H3654     1.0  0.77295  0.08162  0.35985  1.0000
  H   H3655     1.0  0.76982  0.12240  0.34827  1.0000
  H   H3656     1.0  0.78867  0.08958  0.35865  1.0000
  H   H3657     1.0  0.78722  0.10997  0.35304  1.0000
  C   C3076     1.0  0.86386  0.21953  0.36715  1.0000
  H   H3658     1.0  0.69678  0.10807  0.32984  1.0000
  H   H3659     1.0  0.74105  0.08355  0.36889  1.0000
  H   H3660     1.0  0.50340  0.11410  0.27545  1.0000
  H   H3661     1.0  0.62369  0.01996  0.31070  1.0000
  C   C3077     1.0  0.63400  0.15240  0.18512  1.0000
  C   C3078     1.0  0.60777  0.03929  0.31093  1.0000
  H   H3662     1.0  0.55632  0.04273  0.29460  1.0000
  C   C3079     1.0  0.58015  0.08816  0.23767  1.0000
  H   H3663     1.0  0.67684  0.12060  0.30544  1.0000
  H   H3664     1.0  0.59009  0.04410  0.31010  1.0000
  C   C3080     1.0  0.61141  0.16478  0.21826  1.0000
  H   H3665     1.0  0.67042  0.06393  0.23396  1.0000
  H   H3666     1.0  0.61677  0.00195  0.23369  1.0000
  H   H3667     1.0  0.66082  0.10088  0.31276  1.0000
  H   H3668     1.0  0.75506  0.08041  0.37077  1.0000
  C   C3081     1.0  0.54904  0.05989  0.31268  1.0000
  H   H3669     1.0  0.66760  0.05340  0.22885  1.0000
  H   H3670     1.0  0.58441  0.09239  0.24130  1.0000
  N   N202      1.0  0.61121  0.03212  0.30274  1.0000
  H   H3671     1.0  0.54030  0.06647  0.33257  1.0000
  H   H3672     1.0  0.63906  0.16750  0.18395  1.0000
  C   C3082     1.0  0.59805  0.15946  0.19032  1.0000
  H   H3673     1.0  0.61390  0.03441  0.28505  1.0000
  N   N203      1.0  0.60180  0.10090  0.27213  1.0000
  C   C3083     1.0  0.60966  0.10167  0.27842  1.0000
  C   C3084     1.0  0.60380  0.10823  0.26095  1.0000
  C   C3085     1.0  0.59024  0.10535  0.27787  1.0000
  C   C3086     1.0  0.60372  0.08922  0.27118  1.0000
  C   C3087     1.0  0.59585  0.08243  0.27679  1.0000
  C   C3088     1.0  0.61386  0.08418  0.26473  1.0000
  C   C3089     1.0  0.59778  0.07149  0.27563  1.0000
  C   C3090     1.0  0.61575  0.07320  0.26362  1.0000
  C   C3091     1.0  0.60766  0.06691  0.26901  1.0000
  H   H3674     1.0  0.60820  0.11023  0.27977  1.0000
  H   H3675     1.0  0.60866  0.09599  0.28675  1.0000
  H   H3676     1.0  0.61855  0.09943  0.27409  1.0000
  H   H3677     1.0  0.59866  0.10720  0.25568  1.0000
  H   H3678     1.0  0.61269  0.10663  0.25656  1.0000
  H   H3679     1.0  0.60165  0.11718  0.26134  1.0000
  H   H3680     1.0  0.58841  0.10097  0.28669  1.0000
  H   H3681     1.0  0.58888  0.11430  0.27800  1.0000
  H   H3682     1.0  0.58388  0.10476  0.27369  1.0000
  H   H3683     1.0  0.58813  0.08539  0.28220  1.0000
  H   H3684     1.0  0.62040  0.08870  0.26056  1.0000
  H   H3685     1.0  0.59153  0.06657  0.27996  1.0000
  H   H3686     1.0  0.62352  0.06955  0.25860  1.0000
  H   H3687     1.0  0.60904  0.05845  0.26814  1.0000
  H   H3688     1.0  0.69027  0.10367  0.28738  1.0000
  H   H3689     1.0  0.88597  0.20822  0.36823  1.0000
  H   H3690     1.0  0.58446  0.05655  0.32291  1.0000
  H   H3691     1.0  0.67441  0.11000  0.37450  1.0000
  C   C3092     1.0  0.66624  0.11380  0.37928  1.0000
  H   H3692     1.0  0.67914  0.11568  0.28895  1.0000
  C   C3093     1.0  0.57686  0.16281  0.20416  1.0000
  H   H3693     1.0  0.63476  0.14464  0.22124  1.0000
  H   H3694     1.0  0.61061  0.10221  0.20999  1.0000
  H   H3695     1.0  0.86767  0.21079  0.36916  1.0000
  C   C3094     1.0  0.62272  0.02517  0.30239  1.0000
  C   C3095     1.0  0.76430  0.00356  0.37032  1.0000
  H   H3696     1.0  0.61845  0.05106  0.32573  1.0000
  H   H3697     1.0  0.61386  0.15043  0.24448  1.0000
  H   H3698     1.0  0.62915  0.03029  0.29938  1.0000
  C   C3096     1.0  0.65469  0.06315  0.25256  1.0000
  C   C3097     1.0  0.61674  0.15994  0.22740  1.0000
  H   H3699     1.0  0.53589  0.04815  0.29564  1.0000
  H   H3700     1.0  0.57297  0.17823  0.19308  1.0000
  H   H3701     1.0  0.67466  0.08396  0.30935  1.0000
  C   C3098     1.0  0.57949  0.17092  0.19461  1.0000
  H   H3702     1.0  0.57657  0.09424  0.23083  1.0000
  H   H3703     1.0  0.66323  0.03994  0.25768  1.0000
  H   H3704     1.0  0.62902  0.17559  0.21489  1.0000
  H   H3705     1.0  0.63431  0.16331  0.20901  1.0000
  C   C3099     1.0  0.66446  0.10515  0.30428  1.0000
  H   H3706     1.0  0.57811  0.07705  0.22290  1.0000
  H   H3707     1.0  0.64234  0.05782  0.24178  1.0000
  H   H3708     1.0  0.59818  0.06302  0.24087  1.0000
  H   H3709     1.0  0.65767  0.06599  0.22947  1.0000
  H   H3710     1.0  0.64429  0.14814  0.22708  1.0000
  H   H3711     1.0  0.71917  0.14772  0.37029  1.0000
  H   H3712     1.0  0.71166  0.07442  0.38061  1.0000
  C   C3100     1.0  0.79326  0.98921  0.36700  1.0000
  H   H3713     1.0  0.60951  0.99383  0.22222  1.0000
  C   C3101     1.0  0.61718  0.99309  0.23557  1.0000
  S   S822      1.0  0.62705  0.99149  0.25302  1.0000
  C   C3102     1.0  0.57368  0.99953  0.28185  1.0000
  H   H3714     1.0  0.66701  0.07022  0.37813  1.0000
  H   H3715     1.0  0.78976  0.99731  0.36242  1.0000
  C   C3103     1.0  0.84651  0.23341  0.36799  1.0000
  H   H3716     1.0  0.98555  0.23336  0.38014  1.0000
  C   C3104     1.0  0.49913  0.11186  0.27039  1.0000
  C   C3105     1.0  0.49905  0.09977  0.25848  1.0000
  H   H3717     1.0  0.91293  0.23695  0.37918  1.0000
  H   H3718     1.0  0.80181  0.99596  0.37507  1.0000
  H   H3719     1.0  0.74438  0.04289  0.37900  1.0000
  S   S823      1.0  0.80753  0.15237  0.38085  1.0000
  C   C3106     1.0  0.73445  0.01520  0.37757  1.0000
  H   H3720     1.0  0.73448  0.14802  0.37790  1.0000
  C   C3107     1.0  0.57559  0.99027  0.27724  1.0000
  C   C3108     1.0  0.71866  0.14491  0.37915  1.0000
  H   H3721     1.0  0.76915  0.09033  0.37958  1.0000
  C   C3109     1.0  0.65935  0.09742  0.38092  1.0000
  C   C3110     1.0  0.71878  0.06753  0.38023  1.0000
  H   H3722     1.0  0.88420  0.23794  0.36643  1.0000
  S   S824      1.0  0.77401  0.06665  0.38176  1.0000
  H   H3723     1.0  0.82760  0.10732  0.38151  1.0000
  H   H3724     1.0  0.89731  0.20735  0.38199  1.0000
  S   S825      1.0  0.89073  0.22757  0.56340  1.0000
  N   N204      1.0  0.80603  0.16097  0.56672  1.0000
  H   H3725     1.0  0.76936  0.17142  0.42198  1.0000
  Fe  Fe410     1.0  0.95224  0.21099  0.40012  1.0000
  C   C3111     1.0  0.96257  0.19479  0.44030  1.0000
  S   S826      1.0  0.97061  0.20401  0.40028  1.0000
  Fe  Fe411     1.0  0.92936  0.20532  0.40402  1.0000
  S   S827      1.0  0.92080  0.22308  0.39896  1.0000
  S   S828      1.0  0.91944  0.19182  0.41077  1.0000
  H   H3726     1.0  0.72399  0.03193  0.38672  1.0000
  H   H3727     1.0  0.78527  0.06561  0.56509  1.0000
  Fe  Fe412     1.0  0.93100  0.22661  0.40882  1.0000
  C   C3112     1.0  0.90177  0.23186  0.52246  1.0000
  S   S829      1.0  0.99171  0.22006  0.43110  1.0000
  S   S830      1.0  0.93841  0.20872  0.41514  1.0000
  H   H3728     1.0  0.75358  0.02103  0.54943  1.0000
  H   H3729     1.0  0.85357  0.23040  0.43500  1.0000
  C   C3113     1.0  0.89158  0.23210  0.53007  1.0000
  H   H3730     1.0  0.92467  0.21747  0.43264  1.0000
  S   S831      1.0  0.89351  0.22049  0.46445  1.0000
  C   C3114     1.0  0.82234  0.12141  0.41292  1.0000
  H   H3731     1.0  0.73436  0.05666  0.42721  1.0000
  C   C3115     1.0  0.78018  0.07525  0.38597  1.0000
  C   C3116     1.0  0.79595  0.16517  0.57475  1.0000
  C   C3117     1.0  0.81611  0.12236  0.42355  1.0000
  Fe  Fe413     1.0  0.84203  0.18144  0.40803  1.0000
  S   S832      1.0  0.83236  0.19323  0.41938  1.0000
  S   S833      1.0  0.83455  0.16648  0.40886  1.0000
  Fe  Fe414     1.0  0.86165  0.19387  0.40015  1.0000
  S   S834      1.0  0.85309  0.20649  0.41056  1.0000
  H   H3732     1.0  0.91100  0.22972  0.50643  1.0000
  Fe  Fe415     1.0  0.84864  0.19199  0.42387  1.0000
  S   S835      1.0  0.85274  0.19021  0.44048  1.0000
  Fe  Fe416     1.0  0.83783  0.20668  0.40503  1.0000
  H   H3733     1.0  0.96914  0.22331  0.42907  1.0000
  S   S836      1.0  0.85811  0.17913  0.41376  1.0000
  H   H3734     1.0  0.71196  0.08212  0.43158  1.0000
  S   S837      1.0  0.76402  0.03911  0.38572  1.0000
  S   S838      1.0  0.76218  0.14077  0.41570  1.0000
  C   C3118     1.0  0.71748  0.13720  0.40186  1.0000
  S   S839      1.0  0.69299  0.10124  0.40108  1.0000
  C   C3119     1.0  0.93979  0.23091  0.57386  1.0000
  Fe  Fe417     1.0  0.74626  0.09852  0.54881  1.0000
  S   S840      1.0  0.73092  0.10809  0.54245  1.0000
  S   S841      1.0  0.75215  0.08000  0.55201  1.0000
  Fe  Fe418     1.0  0.75447  0.11906  0.54775  1.0000
  S   S842      1.0  0.74010  0.13072  0.54060  1.0000
  S   S843      1.0  0.76967  0.12147  0.55206  1.0000
  Fe  Fe419     1.0  0.72970  0.11960  0.55342  1.0000
  S   S844      1.0  0.71313  0.12622  0.56383  1.0000
  Fe  Fe420     1.0  0.74237  0.11838  0.53004  1.0000
  S   S845      1.0  0.74224  0.12332  0.51166  1.0000
  S   S846      1.0  0.74379  0.10879  0.56124  1.0000
  S   S847      1.0  0.75789  0.10797  0.53579  1.0000
  H   H3735     1.0  0.72666  0.14184  0.41680  1.0000
  C   C3120     1.0  0.72021  0.05933  0.38980  1.0000
  Fe  Fe421     1.0  0.76709  0.03579  0.41562  1.0000
  H   H3736     1.0  0.82341  0.22938  0.42197  1.0000
  S   S848      1.0  0.76807  0.03380  0.43329  1.0000
  H   H3737     1.0  0.72375  0.10472  0.58035  1.0000
  C   C3121     1.0  0.80408  0.17800  0.41218  1.0000
  H   H3738     1.0  0.86685  0.23370  0.42807  1.0000
  H   H3739     1.0  0.70763  0.06926  0.41762  1.0000
  C   C3122     1.0  0.88246  0.23045  0.52720  1.0000
  S   S849      1.0  0.75953  0.02409  0.41127  1.0000
  Fe  Fe422     1.0  0.72990  0.08110  0.45977  1.0000
  S   S850      1.0  0.71458  0.09494  0.46058  1.0000
  S   S851      1.0  0.72883  0.06334  0.46192  1.0000
  Fe  Fe423     1.0  0.74547  0.09656  0.45592  1.0000
  S   S852      1.0  0.73158  0.11172  0.45578  1.0000
  S   S853      1.0  0.76333  0.09761  0.45332  1.0000
  Fe  Fe424     1.0  0.72282  0.10100  0.47076  1.0000
  S   S854      1.0  0.71487  0.10616  0.48726  1.0000
  Fe  Fe425     1.0  0.72492  0.10419  0.44555  1.0000
  S   S855      1.0  0.72081  0.11365  0.42879  1.0000
  S   S856      1.0  0.73712  0.08619  0.47124  1.0000
  S   S857      1.0  0.73983  0.08999  0.44440  1.0000
  N   N205      1.0  0.89519  0.22608  0.49761  1.0000
  N   N206      1.0  0.77377  0.06291  0.45020  1.0000
  C   C3123     1.0  0.78925  0.07087  0.39119  1.0000
  C   C3124     1.0  0.88016  0.19841  0.43572  1.0000
  C   C3125     1.0  0.75669  0.04203  0.44079  1.0000
  C   C3126     1.0  0.75259  0.05320  0.43619  1.0000
  C   C3127     1.0  0.74418  0.05989  0.44267  1.0000
  C   C3128     1.0  0.73948  0.05530  0.45361  1.0000
  C   C3129     1.0  0.74339  0.04407  0.45809  1.0000
  C   C3130     1.0  0.75213  0.03752  0.45178  1.0000
  H   H3740     1.0  0.75608  0.05678  0.42774  1.0000
  H   H3741     1.0  0.74132  0.06857  0.43915  1.0000
  H   H3742     1.0  0.73981  0.04048  0.46656  1.0000
  H   H3743     1.0  0.75530  0.02892  0.45540  1.0000
  C   C3131     1.0  0.76862  0.12927  0.56187  1.0000
  C   C3132     1.0  0.77537  0.12496  0.56972  1.0000
  C   C3133     1.0  0.77635  0.13165  0.57630  1.0000
  C   C3134     1.0  0.77071  0.14278  0.57494  1.0000
  C   C3135     1.0  0.76360  0.14702  0.56741  1.0000
  C   C3136     1.0  0.76250  0.14026  0.56093  1.0000
  H   H3744     1.0  0.78009  0.11649  0.57056  1.0000
  H   H3745     1.0  0.96445  0.19980  0.44487  1.0000
  C   C3137     1.0  0.66748  0.09942  0.39564  1.0000
  H   H3746     1.0  0.75740  0.14372  0.55479  1.0000
  C   C3138     1.0  0.89249  0.23185  0.41103  1.0000
  C   C3139     1.0  0.91114  0.21877  0.44681  1.0000
  C   C3140     1.0  0.73547  0.11709  0.50527  1.0000
  C   C3141     1.0  0.72658  0.11193  0.51127  1.0000
  C   C3142     1.0  0.72051  0.10834  0.50571  1.0000
  C   C3143     1.0  0.72348  0.10953  0.49414  1.0000
  C   C3144     1.0  0.73270  0.11421  0.48820  1.0000
  C   C3145     1.0  0.73854  0.11811  0.49372  1.0000
  H   H3747     1.0  0.72413  0.11098  0.52015  1.0000
  H   H3748     1.0  0.71340  0.10475  0.51037  1.0000
  H   H3749     1.0  0.73506  0.11521  0.47929  1.0000
  H   H3750     1.0  0.74540  0.12207  0.48898  1.0000
  C   C3146     1.0  0.81105  0.14074  0.56480  1.0000
  C   C3147     1.0  0.77060  0.99154  0.39011  1.0000
  C   C3148     1.0  0.73464  0.07919  0.56997  1.0000
  C   C3149     1.0  0.74495  0.07359  0.56472  1.0000
  C   C3150     1.0  0.74972  0.06283  0.56975  1.0000
  H   H3751     1.0  0.72559  0.00843  0.41233  1.0000
  H   H3752     1.0  0.87449  0.23086  0.53309  1.0000
  H   H3753     1.0  0.73083  0.08744  0.56599  1.0000
  H   H3754     1.0  0.89998  0.23409  0.48038  1.0000
  C   C3151     1.0  0.96879  0.18327  0.42673  1.0000
  H   H3755     1.0  0.73918  0.14674  0.41325  1.0000
  H   H3756     1.0  0.81690  0.12986  0.38842  1.0000
  C   C3152     1.0  0.70090  0.10448  0.40878  1.0000
  C   C3153     1.0  0.69744  0.10288  0.42038  1.0000
  C   C3154     1.0  0.70369  0.10521  0.42669  1.0000
  C   C3155     1.0  0.71346  0.10920  0.42144  1.0000
  C   C3156     1.0  0.71702  0.11056  0.40989  1.0000
  C   C3157     1.0  0.71080  0.10822  0.40360  1.0000
  H   H3757     1.0  0.68983  0.09993  0.42449  1.0000
  H   H3758     1.0  0.70079  0.10423  0.43557  1.0000
  H   H3759     1.0  0.72462  0.11351  0.40573  1.0000
  H   H3760     1.0  0.71363  0.10946  0.39471  1.0000
  C   C3158     1.0  0.76322  0.12900  0.42645  1.0000
  C   C3159     1.0  0.75677  0.12953  0.43708  1.0000
  C   C3160     1.0  0.75725  0.11993  0.44555  1.0000
  C   C3161     1.0  0.76428  0.10989  0.44341  1.0000
  C   C3162     1.0  0.77099  0.10945  0.43287  1.0000
  C   C3163     1.0  0.77039  0.11899  0.42437  1.0000
  H   H3761     1.0  0.75119  0.13724  0.43871  1.0000
  H   H3762     1.0  0.75203  0.12024  0.45372  1.0000
  H   H3763     1.0  0.77624  0.10163  0.43113  1.0000
  H   H3764     1.0  0.77522  0.11844  0.41615  1.0000
  C   C3164     1.0  0.79380  0.07692  0.57579  1.0000
  H   H3765     1.0  0.80260  0.11746  0.43677  1.0000
  H   H3766     1.0  0.75471  0.09482  0.40028  1.0000
  H   H3767     1.0  0.87218  0.21759  0.44296  1.0000
  H   H3768     1.0  0.78841  0.16859  0.57111  1.0000
  S   S858      1.0  0.73243  0.04152  0.40173  1.0000
  C   C3165     1.0  0.82201  0.15353  0.40547  1.0000
  Fe  Fe426     1.0  0.93600  0.22409  0.38521  1.0000
  H   H3769     1.0  0.98834  0.22255  0.39197  1.0000
  H   H3770     1.0  0.77525  0.08398  0.54837  1.0000
  H   H3771     1.0  0.82283  0.14881  0.41369  1.0000
  S   S859      1.0  0.86288  0.22805  0.48044  1.0000
  C   C3166     1.0  0.80631  0.17630  0.42260  1.0000
  C   C3167     1.0  0.82659  0.23684  0.42048  1.0000
  C   C3168     1.0  0.80507  0.11000  0.42295  1.0000
  C   C3169     1.0  0.84299  0.22047  0.45641  1.0000
  C   C3170     1.0  0.83684  0.21981  0.44913  1.0000
  C   C3171     1.0  0.83983  0.21064  0.44408  1.0000
  C   C3172     1.0  0.84870  0.20185  0.44665  1.0000
  C   C3173     1.0  0.85457  0.20233  0.45427  1.0000
  C   C3174     1.0  0.85192  0.21173  0.45891  1.0000
  H   H3772     1.0  0.82983  0.22650  0.44727  1.0000
  H   H3773     1.0  0.83514  0.21025  0.43837  1.0000
  H   H3774     1.0  0.86122  0.19541  0.45654  1.0000
  H   H3775     1.0  0.85657  0.21208  0.46467  1.0000
  C   C3175     1.0  0.90786  0.19358  0.40487  1.0000
  C   C3176     1.0  0.89959  0.18740  0.41035  1.0000
  C   C3177     1.0  0.89029  0.18868  0.40581  1.0000
  C   C3178     1.0  0.88943  0.19586  0.39554  1.0000
  C   C3179     1.0  0.66445  0.08588  0.38273  1.0000
  C   C3180     1.0  0.90687  0.20092  0.39472  1.0000
  H   H3776     1.0  0.90039  0.18158  0.41812  1.0000
  H   H3777     1.0  0.78644  0.14617  0.55030  1.0000
  H   H3778     1.0  0.97967  0.19027  0.43190  1.0000
  C   C3181     1.0  0.99270  0.20820  0.41562  1.0000
  Fe  Fe427     1.0  0.77106  0.04981  0.39231  1.0000
  H   H3779     1.0  0.94009  0.17160  0.43163  1.0000
  C   C3182     1.0  0.91768  0.22298  0.43661  1.0000
  C   C3183     1.0  0.90209  0.22588  0.45209  1.0000
  H   H3780     1.0  0.74219  0.15479  0.38886  1.0000
  S   S860      1.0  0.79724  0.09847  0.39439  1.0000
  C   C3184     1.0  0.99126  0.22982  0.38600  1.0000
  C   C3185     1.0  0.78302  0.16040  0.40644  1.0000
  H   H3781     1.0  0.84228  0.11422  0.39892  1.0000
  H   H3782     1.0  0.70280  0.14046  0.38223  1.0000
  C   C3186     1.0  0.98599  0.21510  0.42278  1.0000
  C   C3187     1.0  0.97440  0.21815  0.42339  1.0000
  C   C3188     1.0  0.96960  0.21485  0.41650  1.0000
  C   C3189     1.0  0.97633  0.20812  0.40921  1.0000
  C   C3190     1.0  0.98785  0.20463  0.40894  1.0000
  H   H3783     1.0  0.80294  0.16783  0.43964  1.0000
  C   C3191     1.0  0.80746  0.11670  0.42854  1.0000
  H   H3784     1.0  0.96069  0.21748  0.41687  1.0000
  H   H3785     1.0  0.94491  0.19833  0.44711  1.0000
  H   H3786     1.0  0.74971  0.14149  0.38555  1.0000
  H   H3787     1.0  0.88549  0.21920  0.44388  1.0000
  H   H3788     1.0  0.73202  0.99520  0.38281  1.0000
  H   H3789     1.0  0.77874  0.05786  0.41408  1.0000
  H   H3790     1.0  0.80888  0.10369  0.40848  1.0000
  H   H3791     1.0  0.71414  0.05983  0.39749  1.0000
  C   C3192     1.0  0.88465  0.22533  0.49526  1.0000
  H   H3792     1.0  0.82894  0.12600  0.40940  1.0000
  H   H3793     1.0  0.78296  0.06510  0.46101  1.0000
  C   C3193     1.0  0.80420  0.15165  0.56313  1.0000
  C   C3194     1.0  0.79689  0.17233  0.41055  1.0000
  H   H3794     1.0  0.81009  0.09163  0.58038  1.0000
  H   H3795     1.0  0.74486  0.02340  0.38727  1.0000
  H   H3796     1.0  0.80081  0.10616  0.56661  1.0000
  C   C3195     1.0  0.84060  0.23618  0.39363  1.0000
  H   H3797     1.0  0.66978  0.08202  0.38860  1.0000
  N   N207      1.0  0.88634  0.20717  0.43442  1.0000
  C   C3196     1.0  0.89792  0.20152  0.43562  1.0000
  C   C3197     1.0  0.88666  0.21519  0.42361  1.0000
  C   C3198     1.0  0.89197  0.22426  0.42122  1.0000
  C   C3199     1.0  0.88192  0.21423  0.41516  1.0000
  C   C3200     1.0  0.73476  0.06227  0.54812  1.0000
  C   C3201     1.0  0.88245  0.22192  0.40502  1.0000
  H   H3798     1.0  0.87590  0.22772  0.51498  1.0000
  H   H3799     1.0  0.89806  0.19539  0.44365  1.0000
  H   H3800     1.0  0.90231  0.19699  0.42886  1.0000
  H   H3801     1.0  0.90301  0.20746  0.43529  1.0000
  H   H3802     1.0  0.88418  0.19314  0.42951  1.0000
  H   H3803     1.0  0.94189  0.17083  0.41753  1.0000
  H   H3804     1.0  0.87786  0.20753  0.41607  1.0000
  N   N208      1.0  0.73189  0.01447  0.38972  1.0000
  H   H3805     1.0  0.87891  0.22088  0.39867  1.0000
  C   C3202     1.0  0.82001  0.11482  0.40688  1.0000
  N   N209      1.0  0.74273  0.03134  0.56063  1.0000
  N   N210      1.0  0.82655  0.11422  0.39550  1.0000
  H   H3806     1.0  0.72220  0.07123  0.43791  1.0000
  C   C3203     1.0  0.72237  0.02384  0.39212  1.0000
  C   C3204     1.0  0.74028  0.04185  0.55241  1.0000
  H   H3807     1.0  0.76635  0.08928  0.57714  1.0000
  S   S861      1.0  0.78066  0.00748  0.39165  1.0000
  C   C3205     1.0  0.74456  0.05796  0.58038  1.0000
  H   H3808     1.0  0.81420  0.12386  0.56287  1.0000
  H   H3809     1.0  0.88827  0.23660  0.39506  1.0000
  N   N211      1.0  0.73648  0.14060  0.40030  1.0000
  C   C3206     1.0  0.71650  0.07330  0.43208  1.0000
  H   H3810     1.0  0.71453  0.02263  0.39080  1.0000
  H   H3811     1.0  0.71008  0.06817  0.43601  1.0000
  H   H3812     1.0  0.78570  0.04731  0.44929  1.0000
  H   H3813     1.0  0.77828  0.10288  0.38397  1.0000
  H   H3814     1.0  0.79387  0.15838  0.58196  1.0000
  S   S862      1.0  0.77166  0.12338  0.39267  1.0000
  H   H3815     1.0  0.73478  0.07024  0.53106  1.0000
  C   C3207     1.0  0.72940  0.99486  0.39162  1.0000
  H   H3816     1.0  0.75921  0.15564  0.56631  1.0000
  H   H3817     1.0  0.84360  0.10830  0.38744  1.0000
  H   H3818     1.0  0.86005  0.22787  0.42124  1.0000
  H   H3819     1.0  0.83932  0.10071  0.40135  1.0000
  H   H3820     1.0  0.82967  0.13095  0.39101  1.0000
  H   H3821     1.0  0.80070  0.17376  0.55306  1.0000
  C   C3208     1.0  0.85771  0.23137  0.57718  1.0000
  H   H3822     1.0  0.88109  0.21834  0.50113  1.0000
  H   H3823     1.0  0.97091  0.16340  0.42114  1.0000
  H   H3824     1.0  0.90980  0.22511  0.57551  1.0000
  C   C3209     1.0  0.72934  0.07415  0.58051  1.0000
  C   C3210     1.0  0.80175  0.07925  0.58002  1.0000
  C   C3211     1.0  0.73956  0.05239  0.53339  1.0000
  H   H3825     1.0  0.84674  0.22899  0.39645  1.0000
  H   H3826     1.0  0.93823  0.18409  0.42092  1.0000
  C   C3212     1.0  0.72581  0.00209  0.40813  1.0000
  C   C3213     1.0  0.77274  0.00227  0.38562  1.0000
  Fe  Fe428     1.0  0.79017  0.11711  0.39088  1.0000
  H   H3827     1.0  0.79829  0.10564  0.42682  1.0000
  H   H3828     1.0  0.74066  0.05254  0.52468  1.0000
  C   C3214     1.0  0.86790  0.23291  0.56996  1.0000
  H   H3829     1.0  0.73088  0.03672  0.57488  1.0000
  H   H3830     1.0  0.95491  0.18943  0.40690  1.0000
  C   C3215     1.0  0.82573  0.16892  0.39027  1.0000
  H   H3831     1.0  0.88597  0.22380  0.48682  1.0000
  C   C3216     1.0  0.89974  0.23724  0.44730  1.0000
  H   H3832     1.0  0.93252  0.22221  0.56641  1.0000
  H   H3833     1.0  0.76129  0.08906  0.56549  1.0000
  C   C3217     1.0  0.78780  0.14652  0.42220  1.0000
  H   H3834     1.0  0.79661  0.14360  0.41805  1.0000
  H   H3835     1.0  0.78264  0.14158  0.42062  1.0000
  H   H3836     1.0  0.78729  0.14422  0.43128  1.0000
  H   H3837     1.0  0.66836  0.10536  0.40013  1.0000
  C   C3218     1.0  0.73329  0.08574  0.42014  1.0000
  S   S863      1.0  0.94550  0.22921  0.39464  1.0000
  H   H3838     1.0  0.91169  0.21554  0.49754  1.0000
  C   C3219     1.0  0.77609  0.06355  0.41967  1.0000
  C   C3220     1.0  0.74827  0.09011  0.40447  1.0000
  C   C3221     1.0  0.74548  0.14591  0.39244  1.0000
  H   H3839     1.0  0.76487  0.09079  0.41989  1.0000
  C   C3222     1.0  0.89373  0.22828  0.50872  1.0000
  Fe  Fe429     1.0  0.77340  0.02441  0.39614  1.0000
  H   H3840     1.0  0.73148  0.05651  0.41441  1.0000
  H   H3841     1.0  0.74258  0.09814  0.41830  1.0000
  H   H3842     1.0  0.77066  0.07770  0.40735  1.0000
  C   C3223     1.0  0.78211  0.06784  0.45223  1.0000
  H   H3843     1.0  0.72525  0.03108  0.56671  1.0000
  H   H3844     1.0  0.74887  0.00857  0.39179  1.0000
  H   H3845     1.0  0.89072  0.23366  0.53818  1.0000
  C   C3224     1.0  0.76814  0.08204  0.42295  1.0000
  C   C3225     1.0  0.73281  0.03032  0.56987  1.0000
  C   C3226     1.0  0.82263  0.10755  0.39008  1.0000
  C   C3227     1.0  0.72745  0.14502  0.38369  1.0000
  H   H3846     1.0  0.71831  0.07218  0.40555  1.0000
  H   H3847     1.0  0.90036  0.20842  0.50323  1.0000
  C   C3228     1.0  0.77154  0.07471  0.41585  1.0000
  H   H3848     1.0  0.73072  0.13308  0.56890  1.0000
  C   C3229     1.0  0.64953  0.11042  0.39286  1.0000
  C   C3230     1.0  0.72901  0.00381  0.39639  1.0000
  Fe  Fe430     1.0  0.79527  0.14073  0.38459  1.0000
  H   H3849     1.0  0.74476  0.12416  0.39771  1.0000
  H   H3850     1.0  0.71672  0.13386  0.41066  1.0000
  S   S864      1.0  0.82545  0.22234  0.39981  1.0000
  H   H3851     1.0  0.89592  0.22547  0.42714  1.0000
  C   C3231     1.0  0.82698  0.16286  0.40090  1.0000
  H   H3852     1.0  0.91325  0.20564  0.39036  1.0000
  H   H3853     1.0  0.70165  0.13372  0.40244  1.0000
  H   H3854     1.0  0.75020  0.03792  0.57004  1.0000
  H   H3855     1.0  0.81682  0.16500  0.57484  1.0000
  H   H3856     1.0  0.75219  0.14574  0.39657  1.0000
  H   H3857     1.0  0.66367  0.09286  0.40200  1.0000
  C   C3232     1.0  0.76894  0.07816  0.43402  1.0000
  C   C3233     1.0  0.95913  0.18054  0.40900  1.0000
  H   H3858     1.0  0.73748  0.07024  0.40094  1.0000
  H   H3859     1.0  0.78956  0.16131  0.55640  1.0000
  H   H3860     1.0  0.79855  0.12747  0.55346  1.0000
  C   C3234     1.0  0.73224  0.14630  0.40975  1.0000
  C   C3235     1.0  0.79897  0.09794  0.56904  1.0000
  H   H3861     1.0  0.70709  0.10516  0.57429  1.0000
  C   C3236     1.0  0.97116  0.18938  0.43300  1.0000
  H   H3862     1.0  0.73551  0.12445  0.41099  1.0000
  C   C3237     1.0  0.74679  0.08218  0.39974  1.0000
  C   C3238     1.0  0.78159  0.08593  0.55166  1.0000
  C   C3239     1.0  0.73842  0.07616  0.40506  1.0000
  C   C3240     1.0  0.73149  0.07765  0.41551  1.0000
  H   H3863     1.0  0.82327  0.09874  0.39469  1.0000
  H   H3864     1.0  0.64485  0.10407  0.39842  1.0000
  C   C3241     1.0  0.71440  0.12932  0.57592  1.0000
  H   H3865     1.0  0.72077  0.02493  0.40075  1.0000
  S   S865      1.0  0.84657  0.19516  0.39341  1.0000
  H   H3866     1.0  0.74427  0.03485  0.53758  1.0000
  C   C3242     1.0  0.72769  0.05908  0.42242  1.0000
  N   N212      1.0  0.77909  0.08326  0.56397  1.0000
  C   C3243     1.0  0.74160  0.04224  0.54095  1.0000
  H   H3867     1.0  0.79245  0.06196  0.39305  1.0000
  Fe  Fe431     1.0  0.87736  0.23294  0.46720  1.0000
  C   C3244     1.0  0.93340  0.23025  0.56683  1.0000
  H   H3868     1.0  0.72833  0.08763  0.42794  1.0000
  C   C3245     1.0  0.90328  0.21538  0.49668  1.0000
  Fe  Fe432     1.0  0.75066  0.03930  0.40121  1.0000
  H   H3869     1.0  0.78142  0.09492  0.54812  1.0000
  H   H3870     1.0  0.95719  0.17616  0.40359  1.0000
  H   H3871     1.0  0.72754  0.15494  0.40716  1.0000
  H   H3872     1.0  0.79048  0.06552  0.44683  1.0000
  H   H3873     1.0  0.77701  0.04790  0.46270  1.0000
  N   N213      1.0  0.71087  0.14303  0.52279  1.0000
  C   C3246     1.0  0.71325  0.13263  0.53115  1.0000
  C   C3247     1.0  0.72015  0.14885  0.52059  1.0000
  C   C3248     1.0  0.70043  0.15030  0.52761  1.0000
  C   C3249     1.0  0.70950  0.14032  0.51279  1.0000
  C   C3250     1.0  0.71691  0.14237  0.50229  1.0000
  C   C3251     1.0  0.70070  0.13513  0.51348  1.0000
  C   C3252     1.0  0.71547  0.13949  0.49310  1.0000
  C   C3253     1.0  0.69939  0.13223  0.50424  1.0000
  C   C3254     1.0  0.70675  0.13442  0.49407  1.0000
  H   H3874     1.0  0.72098  0.12698  0.52770  1.0000
  H   H3875     1.0  0.71451  0.13423  0.53879  1.0000
  H   H3876     1.0  0.70642  0.12799  0.53383  1.0000
  H   H3877     1.0  0.72089  0.15087  0.52824  1.0000
  H   H3878     1.0  0.71893  0.15679  0.51435  1.0000
  H   H3879     1.0  0.72840  0.14354  0.51761  1.0000
  H   H3880     1.0  0.69326  0.14608  0.53067  1.0000
  H   H3881     1.0  0.70137  0.15285  0.53489  1.0000
  H   H3882     1.0  0.69804  0.15798  0.52137  1.0000
  H   H3883     1.0  0.72416  0.14577  0.50102  1.0000
  H   H3884     1.0  0.69496  0.13298  0.52123  1.0000
  H   H3885     1.0  0.72146  0.14070  0.48528  1.0000
  H   H3886     1.0  0.69289  0.12791  0.50500  1.0000
  H   H3887     1.0  0.70600  0.13173  0.48704  1.0000
  H   H3888     1.0  0.71046  0.08297  0.41260  1.0000
  S   S866      1.0  0.78196  0.03499  0.40133  1.0000
  N   N214      1.0  0.72267  0.07116  0.42097  1.0000
  C   C3255     1.0  0.79380  0.16352  0.43006  1.0000
  C   C3256     1.0  0.74184  0.01591  0.39264  1.0000
  C   C3257     1.0  0.75227  0.03140  0.56515  1.0000
  Fe  Fe433     1.0  0.77405  0.13577  0.40071  1.0000
  C   C3258     1.0  0.80807  0.17016  0.55697  1.0000
  C   C3259     1.0  0.74152  0.09189  0.41464  1.0000
  H   H3889     1.0  0.77462  0.06938  0.57691  1.0000
  H   H3890     1.0  0.97572  0.17958  0.42089  1.0000
  H   H3891     1.0  0.76623  0.08418  0.43915  1.0000
  H   H3892     1.0  0.82372  0.15498  0.56644  1.0000
  H   H3893     1.0  0.79591  0.17379  0.40215  1.0000
  H   H3894     1.0  0.74012  0.01698  0.40129  1.0000
  H   H3895     1.0  0.76851  0.09957  0.56466  1.0000
  H   H3896     1.0  0.91017  0.23707  0.57981  1.0000
  C   C3260     1.0  0.73620  0.06238  0.53696  1.0000
  H   H3897     1.0  0.78994  0.15810  0.43727  1.0000
  S   S867      1.0  0.87822  0.19722  0.38924  1.0000
  C   C3261     1.0  0.77747  0.07164  0.56774  1.0000
  C   C3262     1.0  0.79046  0.08964  0.39124  1.0000
  H   H3898     1.0  0.66788  0.11945  0.38361  1.0000
  H   H3899     1.0  0.87980  0.19264  0.44399  1.0000
  H   H3900     1.0  0.75607  0.06366  0.45563  1.0000
  H   H3901     1.0  0.88396  0.18389  0.41009  1.0000
  C   C3263     1.0  0.70878  0.13707  0.39722  1.0000
  H   H3902     1.0  0.81224  0.18041  0.42367  1.0000
  H   H3903     1.0  0.77088  0.07044  0.56424  1.0000
  H   H3904     1.0  0.81528  0.16719  0.55051  1.0000
  C   C3264     1.0  0.89780  0.20190  0.38998  1.0000
  C   C3265     1.0  0.88775  0.23070  0.40295  1.0000
  C   C3266     1.0  0.87783  0.22531  0.57168  1.0000
  C   C3267     1.0  0.71441  0.07398  0.41390  1.0000
  H   H3905     1.0  0.81216  0.14321  0.40321  1.0000
  H   H3906     1.0  0.76014  0.07568  0.45638  1.0000
  C   C3268     1.0  0.72972  0.05072  0.38947  1.0000
  C   C3269     1.0  0.82975  0.23508  0.39427  1.0000
  C   C3270     1.0  0.85855  0.23373  0.42676  1.0000
  C   C3271     1.0  0.79531  0.15335  0.55773  1.0000
  H   H3907     1.0  0.77225  0.16046  0.43367  1.0000
  C   C3272     1.0  0.96170  0.16406  0.42345  1.0000
  H   H3908     1.0  0.94042  0.18757  0.43670  1.0000
  C   C3273     1.0  0.76275  0.06652  0.45741  1.0000
  H   H3909     1.0  0.67619  0.09563  0.39186  1.0000
  C   C3274     1.0  0.74158  0.12882  0.40450  1.0000
  C   C3275     1.0  0.79436  0.07804  0.39381  1.0000
  S   S868      1.0  0.75680  0.05107  0.40699  1.0000
  H   H3910     1.0  0.75967  0.03294  0.55839  1.0000
  C   C3276     1.0  0.91531  0.23434  0.43176  1.0000
  H   H3911     1.0  0.77959  0.16927  0.40294  1.0000
  C   C3277     1.0  0.80025  0.13416  0.55601  1.0000
  C   C3278     1.0  0.77708  0.05061  0.45368  1.0000
  H   H3912     1.0  0.73561  0.05258  0.56429  1.0000
  H   H3913     1.0  0.81792  0.13856  0.56896  1.0000
  H   H3914     1.0  0.77120  0.04647  0.45208  1.0000
  H   H3915     1.0  0.77970  0.07709  0.45049  1.0000
  C   C3279     1.0  0.79103  0.09570  0.56473  1.0000
  C   C3280     1.0  0.73674  0.05219  0.55575  1.0000
  H   H3916     1.0  0.76277  0.06322  0.46636  1.0000
  C   C3281     1.0  0.95158  0.19397  0.44151  1.0000
  C   C3282     1.0  0.76835  0.09062  0.56797  1.0000
  C   C3283     1.0  0.72715  0.14109  0.39523  1.0000
  S   S869      1.0  0.79217  0.12844  0.40066  1.0000
  S   S870      1.0  0.94391  0.20592  0.38945  1.0000
  C   C3284     1.0  0.77696  0.05958  0.43075  1.0000
  H   H3917     1.0  0.65025  0.11585  0.39798  1.0000
  H   H3918     1.0  0.90880  0.23328  0.52473  1.0000
  C   C3285     1.0  0.77312  0.06677  0.43837  1.0000
  H   H3919     1.0  0.78695  0.10240  0.55900  1.0000
  C   C3286     1.0  0.88086  0.21309  0.44361  1.0000
  Fe  Fe434     1.0  0.69925  0.10331  0.38243  1.0000
  H   H3920     1.0  0.80142  0.07458  0.39778  1.0000
  H   H3921     1.0  0.76641  0.15800  0.42365  1.0000
  H   H3922     1.0  0.72028  0.99112  0.42356  1.0000
  H   H3923     1.0  0.78034  0.05079  0.43318  1.0000
  C   C3287     1.0  0.77250  0.16230  0.42464  1.0000
  H   H3924     1.0  0.87136  0.20207  0.43486  1.0000
  H   H3925     1.0  0.72138  0.05392  0.42686  1.0000
  H   H3926     1.0  0.88032  0.20724  0.45186  1.0000
  C   C3288     1.0  0.78809  0.08516  0.56808  1.0000
  N   N215      1.0  0.78389  0.15865  0.41812  1.0000
  C   C3289     1.0  0.79157  0.16483  0.41948  1.0000
  H   H3927     1.0  0.79716  0.17186  0.57804  1.0000
  C   C3290     1.0  0.81589  0.15036  0.39958  1.0000
  C   C3291     1.0  0.79344  0.14474  0.55418  1.0000
  H   H3928     1.0  0.91303  0.20999  0.45055  1.0000
  H   H3929     1.0  0.78995  0.08112  0.54826  1.0000
  N   N216      1.0  0.95543  0.17574  0.42094  1.0000
  H   H3930     1.0  0.96828  0.18022  0.40650  1.0000
  H   H3931     1.0  0.75221  0.08060  0.39195  1.0000
  H   H3932     1.0  0.87533  0.19172  0.57831  1.0000
  H   H3933     1.0  0.74867  0.12809  0.40838  1.0000
  C   C3292     1.0  0.88343  0.22862  0.51669  1.0000
  H   H3934     1.0  0.95950  0.16031  0.43245  1.0000
  H   H3935     1.0  0.80834  0.18344  0.40522  1.0000
  C   C3293     1.0  0.90289  0.22990  0.51197  1.0000
  H   H3936     1.0  0.81801  0.12753  0.42793  1.0000
  H   H3937     1.0  0.74733  0.01346  0.56239  1.0000
  C   C3294     1.0  0.80114  0.16912  0.43155  1.0000
  H   H3938     1.0  0.79128  0.15764  0.40107  1.0000
  C   C3295     1.0  0.81574  0.15787  0.57212  1.0000
  C   C3296     1.0  0.95769  0.18226  0.42771  1.0000
  C   C3297     1.0  0.94913  0.18774  0.43541  1.0000
  C   C3298     1.0  0.72401  0.13247  0.57619  1.0000
  C   C3299     1.0  0.81129  0.10895  0.41232  1.0000
  H   H3939     1.0  0.73887  0.02058  0.55249  1.0000
  C   C3300     1.0  0.94340  0.17555  0.42291  1.0000
  N   N217      1.0  0.66068  0.10504  0.38712  1.0000
  C   C3301     1.0  0.80902  0.13215  0.56132  1.0000
  H   H3940     1.0  0.90440  0.21334  0.48848  1.0000
  H   H3941     1.0  0.77729  0.15558  0.40568  1.0000
  H   H3942     1.0  0.75756  0.05839  0.56557  1.0000
  H   H3943     1.0  0.73228  0.07008  0.55083  1.0000
  C   C3302     1.0  0.74574  0.02122  0.55595  1.0000
  H   H3944     1.0  0.95987  0.15881  0.41881  1.0000
  H   H3945     1.0  0.80993  0.17715  0.55927  1.0000
  C   C3303     1.0  0.83845  0.10915  0.39582  1.0000
  S   S871      1.0  0.77702  0.14862  0.38518  1.0000
  C   C3304     1.0  0.70941  0.14084  0.38587  1.0000
  C   C3305     1.0  0.87756  0.21603  0.58043  1.0000
  C   C3306     1.0  0.81477  0.15633  0.38890  1.0000
  H   H3946     1.0  0.99309  0.19932  0.40339  1.0000
  H   H3947     1.0  0.75494  0.02331  0.57077  1.0000
  C   C3307     1.0  0.80424  0.08977  0.57674  1.0000
  C   C3308     1.0  0.78132  0.09399  0.38612  1.0000
  H   H3948     1.0  0.82947  0.17609  0.38658  1.0000
  H   H3949     1.0  0.81378  0.11116  0.38931  1.0000
  C   C3309     1.0  0.89959  0.23509  0.48885  1.0000
  H   H3950     1.0  0.88520  0.21000  0.58161  1.0000
  H   H3951     1.0  0.79194  0.06876  0.57908  1.0000
  H   H3952     1.0  0.84170  0.22774  0.42516  1.0000
  H   H3953     1.0  0.85003  0.23726  0.57585  1.0000
  C   C3310     1.0  0.77621  0.08683  0.38353  1.0000
  H   H3954     1.0  0.89676  0.23860  0.40933  1.0000
  H   H3955     1.0  0.81462  0.15126  0.57978  1.0000
  H   H3956     1.0  0.73411  0.02214  0.57580  1.0000
  S   S872      1.0  0.83937  0.23232  0.46217  1.0000
  C   C3311     1.0  0.82579  0.12558  0.38837  1.0000
  C   C3312     1.0  0.72282  0.99219  0.41463  1.0000
  H   H3957     1.0  0.89694  0.23389  0.58079  1.0000
  H   H3958     1.0  0.87825  0.23319  0.49565  1.0000
  H   H3959     1.0  0.64428  0.11582  0.38696  1.0000
  H   H3960     1.0  0.90819  0.23533  0.48903  1.0000
  Fe  Fe435     1.0  0.85277  0.23688  0.46746  1.0000
  C   C3313     1.0  0.83718  0.23602  0.42224  1.0000
  C   C3314     1.0  0.81976  0.16562  0.38431  1.0000
  N   N218      1.0  0.99189  0.23808  0.39190  1.0000
  H   H3961     1.0  0.78187  0.12832  0.58206  1.0000
  C   C3315     1.0  0.90566  0.23021  0.58189  1.0000
  Fe  Fe436     1.0  0.95838  0.21567  0.61802  1.0000
  S   S873      1.0  0.97489  0.20816  0.62359  1.0000
  Fe  Fe437     1.0  0.93282  0.21846  0.62176  1.0000
  H   H3962     1.0  0.85883  0.16634  0.59956  1.0000
  S   S874      1.0  0.91603  0.21474  0.63201  1.0000
  Fe  Fe438     1.0  0.94696  0.22110  0.59851  1.0000
  C   C3316     1.0  0.53262  0.11738  0.71709  1.0000
  H   H3963     1.0  0.63927  0.09956  0.76409  1.0000
  S   S875      1.0  0.94748  0.20697  0.61344  1.0000
  S   S876      1.0  0.94371  0.22583  0.62779  1.0000
  Fe  Fe439     1.0  0.74519  0.05414  0.60730  1.0000
  S   S877      1.0  0.76262  0.05118  0.59707  1.0000
  Fe  Fe440     1.0  0.75325  0.05082  0.62840  1.0000
  S   S878      1.0  0.77144  0.04728  0.61998  1.0000
  S   S879      1.0  0.74579  0.05453  0.64526  1.0000
  Fe  Fe441     1.0  0.76644  0.06175  0.60639  1.0000
  S   S880      1.0  0.77154  0.07809  0.59740  1.0000
  Fe  Fe442     1.0  0.76581  0.03702  0.61143  1.0000
  S   S881      1.0  0.77368  0.01962  0.60856  1.0000
  S   S882      1.0  0.74871  0.06574  0.61540  1.0000
  S   S883      1.0  0.74808  0.03949  0.62112  1.0000
  H   H3964     1.0  0.68125  0.09223  0.66978  1.0000
  C   C3317     1.0  0.74020  0.15586  0.62136  1.0000
  C   C3318     1.0  0.88287  0.18205  0.59199  1.0000
  C   C3319     1.0  0.99587  0.21911  0.63519  1.0000
  Fe  Fe443     1.0  0.53358  0.09193  0.75961  1.0000
  S   S884      1.0  0.52774  0.10404  0.74507  1.0000
  S   S885      1.0  0.52700  0.12367  0.75762  1.0000
  Fe  Fe444     1.0  0.51558  0.11265  0.75795  1.0000
  Fe  Fe445     1.0  0.53958  0.11375  0.74593  1.0000
  S   S886      1.0  0.55116  0.12220  0.73148  1.0000
  S   S887      1.0  0.54668  0.10069  0.75918  1.0000
  N   N219      1.0  0.72899  0.09517  0.60077  1.0000
  Fe  Fe446     1.0  0.62188  0.12175  0.72938  1.0000
  S   S888      1.0  0.61749  0.11854  0.71478  1.0000
  S   S889      1.0  0.61583  0.13828  0.73443  1.0000
  Fe  Fe447     1.0  0.63558  0.09870  0.73523  1.0000
  S   S890      1.0  0.63214  0.09336  0.72161  1.0000
  S   S891      1.0  0.64761  0.08739  0.74549  1.0000
  Fe  Fe448     1.0  0.63559  0.10967  0.71094  1.0000
  S   S892      1.0  0.64735  0.10636  0.69482  1.0000
  Fe  Fe449     1.0  0.61449  0.10255  0.72651  1.0000
  S   S893      1.0  0.60078  0.09374  0.72814  1.0000
  S   S894      1.0  0.64024  0.11442  0.72440  1.0000
  S   S895      1.0  0.61759  0.10636  0.74134  1.0000
  H   H3965     1.0  0.68765  0.09296  0.65550  1.0000
  Fe  Fe450     1.0  0.70431  0.10609  0.63704  1.0000
  S   S896      1.0  0.69382  0.12205  0.62950  1.0000
  S   S897      1.0  0.70229  0.08974  0.63567  1.0000
  Fe  Fe451     1.0  0.71665  0.11758  0.64608  1.0000
  S   S898      1.0  0.70713  0.13447  0.63944  1.0000
  S   S899      1.0  0.72858  0.11554  0.65686  1.0000
  Fe  Fe452     1.0  0.69201  0.12681  0.64566  1.0000
  S   S900      1.0  0.67581  0.13571  0.65523  1.0000
  Fe  Fe453     1.0  0.70994  0.12798  0.62407  1.0000
  C   C3320     1.0  0.66726  0.13458  0.69403  1.0000
  S   S901      1.0  0.70143  0.11033  0.65347  1.0000
  S   S902      1.0  0.72061  0.11155  0.63039  1.0000
  Fe  Fe454     1.0  0.79529  0.12246  0.60816  1.0000
  S   S903      1.0  0.77693  0.12971  0.60953  1.0000
  S   S904      1.0  0.80150  0.10389  0.60922  1.0000
  Fe  Fe455     1.0  0.80124  0.14507  0.60586  1.0000
  S   S905      1.0  0.78315  0.15381  0.60693  1.0000
  S   S906      1.0  0.81388  0.15642  0.60145  1.0000
  Fe  Fe456     1.0  0.77925  0.13932  0.62060  1.0000
  S   S907      1.0  0.76713  0.14249  0.63638  1.0000
  C   C3321     1.0  0.53323  0.09863  0.71606  1.0000
  S   S908      1.0  0.79734  0.13112  0.62044  1.0000
  S   S909      1.0  0.80079  0.13557  0.59347  1.0000
  Fe  Fe457     1.0  0.84867  0.20739  0.63551  1.0000
  S   S910      1.0  0.85680  0.18911  0.63782  1.0000
  S   S911      1.0  0.84314  0.21666  0.64945  1.0000
  Fe  Fe458     1.0  0.84960  0.20950  0.61149  1.0000
  S   S912      1.0  0.85832  0.19179  0.61150  1.0000
  H   H3966     1.0  0.73187  0.11095  0.59019  1.0000
  Fe  Fe459     1.0  0.84577  0.18780  0.62719  1.0000
  S   S913      1.0  0.83748  0.17286  0.63077  1.0000
  Fe  Fe460     1.0  0.86862  0.19452  0.62190  1.0000
  S   S914      1.0  0.88745  0.18815  0.61907  1.0000
  S   S915      1.0  0.83639  0.20558  0.62664  1.0000
  S   S916      1.0  0.86106  0.21272  0.62020  1.0000
  S   S917      1.0  0.72989  0.05908  0.60011  1.0000
  N   N220      1.0  0.74040  0.15710  0.60142  1.0000
  H   H3967     1.0  0.74714  0.01598  0.62272  1.0000
  C   C3322     1.0  0.82046  0.16076  0.60979  1.0000
  C   C3323     1.0  0.82014  0.15581  0.62100  1.0000
  C   C3324     1.0  0.82551  0.15951  0.62720  1.0000
  C   C3325     1.0  0.83119  0.16830  0.62236  1.0000
  C   C3326     1.0  0.83152  0.17326  0.61115  1.0000
  C   C3327     1.0  0.82625  0.16947  0.60492  1.0000
  H   H3968     1.0  0.81578  0.14909  0.62490  1.0000
  H   H3969     1.0  0.82520  0.15554  0.63584  1.0000
  H   H3970     1.0  0.83582  0.18002  0.60726  1.0000
  H   H3971     1.0  0.82661  0.17338  0.59627  1.0000
  C   C3328     1.0  0.73893  0.12341  0.65073  1.0000
  C   C3329     1.0  0.74363  0.12505  0.63935  1.0000
  C   C3330     1.0  0.75252  0.13064  0.63484  1.0000
  C   C3331     1.0  0.75639  0.13499  0.64165  1.0000
  C   C3332     1.0  0.75139  0.13366  0.65294  1.0000
  C   C3333     1.0  0.74284  0.12772  0.65750  1.0000
  H   H3972     1.0  0.74059  0.12180  0.63406  1.0000
  H   H3973     1.0  0.75622  0.13175  0.62611  1.0000
  H   H3974     1.0  0.75430  0.13705  0.65823  1.0000
  H   H3975     1.0  0.73926  0.12648  0.66629  1.0000
  C   C3334     1.0  0.65567  0.11533  0.68541  1.0000
  C   C3335     1.0  0.65130  0.12663  0.68160  1.0000
  C   C3336     1.0  0.65762  0.13292  0.67248  1.0000
  C   C3337     1.0  0.66826  0.12793  0.66711  1.0000
  C   C3338     1.0  0.67270  0.11676  0.67120  1.0000
  C   C3339     1.0  0.66647  0.11053  0.68033  1.0000
  H   H3976     1.0  0.64288  0.13037  0.68535  1.0000
  H   H3977     1.0  0.65410  0.14157  0.66937  1.0000
  H   H3978     1.0  0.68076  0.11280  0.66714  1.0000
  H   H3979     1.0  0.66983  0.10182  0.68329  1.0000
  C   C3340     1.0  0.61697  0.13866  0.74768  1.0000
  C   C3341     1.0  0.61381  0.13061  0.75711  1.0000
  C   C3342     1.0  0.61324  0.13211  0.76775  1.0000
  C   C3343     1.0  0.61613  0.14148  0.76893  1.0000
  C   C3344     1.0  0.61961  0.14928  0.75948  1.0000
  C   C3345     1.0  0.61982  0.14799  0.74893  1.0000
  H   H3980     1.0  0.61139  0.12347  0.75623  1.0000
  C   C3346     1.0  0.91748  0.21876  0.59436  1.0000
  H   H3981     1.0  0.62195  0.15649  0.76032  1.0000
  H   H3982     1.0  0.62217  0.15429  0.74171  1.0000
  C   C3347     1.0  0.49794  0.10375  0.74408  1.0000
  C   C3348     1.0  0.56498  0.11427  0.72958  1.0000
  C   C3349     1.0  0.56707  0.10264  0.73228  1.0000
  C   C3350     1.0  0.57812  0.09642  0.73141  1.0000
  C   C3351     1.0  0.58713  0.10179  0.72810  1.0000
  C   C3352     1.0  0.58505  0.11341  0.72520  1.0000
  C   C3353     1.0  0.57400  0.11963  0.72576  1.0000
  H   H3983     1.0  0.56017  0.09842  0.73510  1.0000
  H   H3984     1.0  0.57968  0.08743  0.73354  1.0000
  H   H3985     1.0  0.59196  0.11761  0.72251  1.0000
  H   H3986     1.0  0.57244  0.12862  0.72349  1.0000
  C   C3354     1.0  0.71954  0.01678  0.62607  1.0000
  H   H3987     1.0  0.50643  0.11288  0.72050  1.0000
  C   C3355     1.0  0.63121  0.07592  0.75721  1.0000
  C   C3356     1.0  0.64224  0.07687  0.75572  1.0000
  C   C3357     1.0  0.64903  0.06953  0.76271  1.0000
  C   C3358     1.0  0.89155  0.20028  0.65883  1.0000
  H   H3988     1.0  0.81603  0.18743  0.62572  1.0000
  H   H3989     1.0  0.60224  0.08586  0.76203  1.0000
  H   H3990     1.0  0.65759  0.07023  0.76153  1.0000
  H   H3991     1.0  0.53568  0.13502  0.77939  1.0000
  H   H3992     1.0  0.66041  0.14108  0.69139  1.0000
  C   C3359     1.0  0.97285  0.22373  0.63579  1.0000
  S   S918      1.0  0.93190  0.23216  0.60663  1.0000
  H   H3993     1.0  0.53797  0.09037  0.71516  1.0000
  N   N221      1.0  0.58031  0.15333  0.76154  1.0000
  C   C3360     1.0  0.56783  0.06568  0.76664  1.0000
  C   C3361     1.0  0.55639  0.07001  0.76700  1.0000
  H   H3994     1.0  0.57153  0.06650  0.77294  1.0000
  H   H3995     1.0  0.91180  0.22294  0.65170  1.0000
  C   C3362     1.0  0.87784  0.22142  0.65889  1.0000
  H   H3996     1.0  0.70285  0.10491  0.68898  1.0000
  C   C3363     1.0  0.70154  0.11109  0.68123  1.0000
  H   H3997     1.0  0.57479  0.05564  0.74315  1.0000
  H   H3998     1.0  0.55126  0.07405  0.77362  1.0000
  H   H3999     1.0  0.75222  0.16553  0.58867  1.0000
  H   H4000     1.0  0.71871  0.15778  0.64381  1.0000
  H   H4001     1.0  0.69505  0.10903  0.67828  1.0000
  C   C3364     1.0  0.73277  0.06342  0.64412  1.0000
  C   C3365     1.0  0.72909  0.07273  0.64894  1.0000
  C   C3366     1.0  0.71960  0.08080  0.64649  1.0000
  C   C3367     1.0  0.71353  0.07930  0.63961  1.0000
  C   C3368     1.0  0.71683  0.06969  0.63532  1.0000
  C   C3369     1.0  0.72655  0.06186  0.63742  1.0000
  H   H4002     1.0  0.73382  0.07393  0.65418  1.0000
  H   H4003     1.0  0.71705  0.08819  0.64986  1.0000
  H   H4004     1.0  0.71220  0.06851  0.62996  1.0000
  H   H4005     1.0  0.72934  0.05468  0.63369  1.0000
  C   C3370     1.0  0.77982  0.08499  0.60109  1.0000
  C   C3371     1.0  0.77859  0.09653  0.59711  1.0000
  C   C3372     1.0  0.78512  0.10238  0.59965  1.0000
  C   C3373     1.0  0.79315  0.09671  0.60596  1.0000
  C   C3374     1.0  0.79450  0.08513  0.60982  1.0000
  C   C3375     1.0  0.78777  0.07929  0.60751  1.0000
  H   H4006     1.0  0.56483  0.03909  0.76544  1.0000
  H   H4007     1.0  0.78408  0.11126  0.59654  1.0000
  H   H4008     1.0  0.80071  0.08067  0.61470  1.0000
  C   C3376     1.0  0.57501  0.14741  0.75664  1.0000
  C   C3377     1.0  0.76614  0.01425  0.60226  1.0000
  C   C3378     1.0  0.76979  0.00324  0.60079  1.0000
  S   S919      1.0  0.99368  0.23604  0.64597  1.0000
  C   C3379     1.0  0.75433  0.00559  0.59203  1.0000
  C   C3380     1.0  0.75057  0.01651  0.59373  1.0000
  C   C3381     1.0  0.75648  0.02085  0.59874  1.0000
  C   C3382     1.0  0.73303  0.16068  0.59332  1.0000
  H   H4009     1.0  0.58039  0.10910  0.75016  1.0000
  H   H4010     1.0  0.75353  0.02930  0.59990  1.0000
  C   C3383     1.0  0.90832  0.20724  0.62822  1.0000
  C   C3384     1.0  0.91358  0.19871  0.62246  1.0000
  C   C3385     1.0  0.90713  0.19266  0.62000  1.0000
  C   C3386     1.0  0.89538  0.19520  0.62312  1.0000
  C   C3387     1.0  0.89015  0.20367  0.62895  1.0000
  C   C3388     1.0  0.89660  0.20961  0.63150  1.0000
  H   H4011     1.0  0.92262  0.19668  0.62003  1.0000
  H   H4012     1.0  0.91128  0.18610  0.61551  1.0000
  H   H4013     1.0  0.88113  0.20567  0.63149  1.0000
  H   H4014     1.0  0.89243  0.21618  0.63594  1.0000
  C   C3389     1.0  0.69882  0.13018  0.67161  1.0000
  H   H4015     1.0  0.68757  0.07972  0.66460  1.0000
  C   C3390     1.0  0.66444  0.11836  0.64478  1.0000
  N   N222      1.0  0.90572  0.22349  0.59326  1.0000
  C   C3391     1.0  0.87328  0.21241  0.65954  1.0000
  H   H4016     1.0  0.63544  0.11732  0.77007  1.0000
  H   H4017     1.0  0.71258  0.00372  0.62537  1.0000
  C   C3392     1.0  0.97999  0.21537  0.63051  1.0000
  H   H4018     1.0  0.57658  0.16705  0.76970  1.0000
  H   H4019     1.0  0.73936  0.15477  0.63859  1.0000
  H   H4020     1.0  0.81283  0.19871  0.63238  1.0000
  H   H4021     1.0  0.73227  0.13760  0.58593  1.0000
  N   N223      1.0  0.75829  0.08813  0.63848  1.0000
  C   C3393     1.0  0.76361  0.08420  0.62800  1.0000
  C   C3394     1.0  0.75816  0.07814  0.64765  1.0000
  C   C3395     1.0  0.74661  0.09399  0.63787  1.0000
  C   C3396     1.0  0.76413  0.09567  0.64057  1.0000
  C   C3397     1.0  0.76040  0.09964  0.65054  1.0000
  C   C3398     1.0  0.77349  0.09934  0.63291  1.0000
  C   C3399     1.0  0.76585  0.10665  0.65278  1.0000
  C   C3400     1.0  0.77881  0.10642  0.63519  1.0000
  C   C3401     1.0  0.77500  0.11009  0.64509  1.0000
  H   H4022     1.0  0.77241  0.07960  0.62797  1.0000
  H   H4023     1.0  0.75919  0.07834  0.62678  1.0000
  H   H4024     1.0  0.76350  0.09121  0.62062  1.0000
  H   H4025     1.0  0.76679  0.07395  0.64884  1.0000
  H   H4026     1.0  0.75458  0.07190  0.64598  1.0000
  H   H4027     1.0  0.75302  0.08009  0.65566  1.0000
  H   H4028     1.0  0.74170  0.09636  0.64580  1.0000
  H   H4029     1.0  0.74642  0.10178  0.63135  1.0000
  H   H4030     1.0  0.74204  0.08871  0.63593  1.0000
  H   H4031     1.0  0.75311  0.09752  0.65661  1.0000
  H   H4032     1.0  0.77688  0.09689  0.62507  1.0000
  H   H4033     1.0  0.76278  0.10968  0.66039  1.0000
  H   H4034     1.0  0.78594  0.10912  0.62922  1.0000
  H   H4035     1.0  0.77902  0.11578  0.64669  1.0000
  H   H4036     1.0  0.73791  0.10679  0.60203  1.0000
  H   H4037     1.0  0.90063  0.20834  0.60276  1.0000
  C   C3402     1.0  0.84669  0.22893  0.65018  1.0000
  H   H4038     1.0  0.54958  0.14256  0.75706  1.0000
  H   H4039     1.0  0.56564  0.09857  0.77836  1.0000
  H   H4040     1.0  0.77727  0.99810  0.60348  1.0000
  C   C3403     1.0  0.58201  0.01372  0.77561  1.0000
  H   H4041     1.0  0.76693  0.99051  0.59435  1.0000
  H   H4042     1.0  0.72734  0.15493  0.59490  1.0000
  C   C3404     1.0  0.88944  0.22010  0.65826  1.0000
  C   C3405     1.0  0.51689  0.13296  0.73108  1.0000
  C   C3406     1.0  0.79835  0.17798  0.62603  1.0000
  H   H4043     1.0  0.72150  0.07848  0.58474  1.0000
  H   H4044     1.0  0.72151  0.09436  0.61807  1.0000
  H   H4045     1.0  0.58910  0.02527  0.77952  1.0000
  H   H4046     1.0  0.69386  0.08672  0.60625  1.0000
  S   S920      1.0  0.77293  0.15169  0.58210  1.0000
  S   S921      1.0  0.57112  0.00049  0.77091  1.0000
  H   H4047     1.0  0.92195  0.21282  0.58885  1.0000
  C   C3407     1.0  0.76390  0.99891  0.59568  1.0000
  H   H4048     1.0  0.51228  0.14121  0.73296  1.0000
  H   H4049     1.0  0.73814  0.08010  0.59540  1.0000
  H   H4050     1.0  0.59633  0.15218  0.74987  1.0000
  H   H4051     1.0  0.80358  0.18234  0.61902  1.0000
  N   N224      1.0  0.80217  0.18682  0.63983  1.0000
  C   C3408     1.0  0.80895  0.19311  0.63002  1.0000
  C   C3409     1.0  0.79341  0.19510  0.64534  1.0000
  C   C3410     1.0  0.79688  0.17923  0.63704  1.0000
  C   C3411     1.0  0.79010  0.17268  0.64554  1.0000
  C   C3412     1.0  0.51541  0.11163  0.71915  1.0000
  H   H4052     1.0  0.78851  0.19119  0.65334  1.0000
  H   H4053     1.0  0.81566  0.17326  0.64409  1.0000
  C   C3413     1.0  0.78511  0.16536  0.64317  1.0000
  C   C3414     1.0  0.86650  0.17896  0.58829  1.0000
  C   C3415     1.0  0.60382  0.10445  0.77546  1.0000
  H   H4054     1.0  0.52593  0.13250  0.73029  1.0000
  H   H4055     1.0  0.83347  0.23072  0.66458  1.0000
  C   C3416     1.0  0.69939  0.09604  0.58989  1.0000
  H   H4056     1.0  0.49968  0.13183  0.71558  1.0000
  C   C3417     1.0  0.99150  0.21295  0.63042  1.0000
  H   H4057     1.0  0.72797  0.08106  0.61445  1.0000
  C   C3418     1.0  0.58476  0.10712  0.77376  1.0000
  C   C3419     1.0  0.50216  0.13277  0.72288  1.0000
  H   H4058     1.0  0.90477  0.20903  0.58822  1.0000
  N   N225      1.0  0.61812  0.06086  0.73698  1.0000
  C   C3420     1.0  0.61863  0.06748  0.72544  1.0000
  C   C3421     1.0  0.61341  0.05115  0.73786  1.0000
  C   C3422     1.0  0.61034  0.06788  0.74452  1.0000
  C   C3423     1.0  0.62909  0.05717  0.74021  1.0000
  C   C3424     1.0  0.63039  0.04930  0.75025  1.0000
  C   C3425     1.0  0.63849  0.06180  0.73404  1.0000
  C   C3426     1.0  0.64054  0.04603  0.75369  1.0000
  C   C3427     1.0  0.64856  0.05860  0.73765  1.0000
  C   C3428     1.0  0.64960  0.05068  0.74742  1.0000
  H   H4059     1.0  0.62478  0.06287  0.71937  1.0000
  H   H4060     1.0  0.61034  0.06971  0.72312  1.0000
  H   H4061     1.0  0.62077  0.07562  0.72440  1.0000
  H   H4062     1.0  0.61937  0.04526  0.73288  1.0000
  H   H4063     1.0  0.60538  0.05375  0.73497  1.0000
  H   H4064     1.0  0.61122  0.04647  0.74652  1.0000
  H   H4065     1.0  0.61349  0.07537  0.74394  1.0000
  H   H4066     1.0  0.60191  0.07086  0.74244  1.0000
  H   H4067     1.0  0.60914  0.06328  0.75330  1.0000
  H   H4068     1.0  0.62346  0.04593  0.75578  1.0000
  H   H4069     1.0  0.63822  0.06813  0.72654  1.0000
  H   H4070     1.0  0.64121  0.04025  0.76155  1.0000
  H   H4071     1.0  0.65548  0.06255  0.73305  1.0000
  H   H4072     1.0  0.65731  0.04846  0.75034  1.0000
  H   H4073     1.0  0.67241  0.11332  0.71574  1.0000
  H   H4074     1.0  0.69113  0.11087  0.70381  1.0000
  H   H4075     1.0  0.87220  0.22946  0.65867  1.0000
  H   H4076     1.0  0.58204  0.01835  0.76722  1.0000
  N   N226      1.0  0.87299  0.15854  0.61493  1.0000
  C   C3429     1.0  0.88370  0.15015  0.61450  1.0000
  C   C3430     1.0  0.87095  0.16356  0.62463  1.0000
  C   C3431     1.0  0.86388  0.15258  0.61684  1.0000
  C   C3432     1.0  0.87367  0.16733  0.60464  1.0000
  C   C3433     1.0  0.88228  0.17342  0.60141  1.0000
  H   H4077     1.0  0.89077  0.15366  0.61455  1.0000
  H   H4078     1.0  0.88326  0.14304  0.62178  1.0000
  H   H4079     1.0  0.88595  0.14676  0.60687  1.0000
  H   H4080     1.0  0.87752  0.16807  0.62403  1.0000
  H   H4081     1.0  0.87067  0.15719  0.63252  1.0000
  H   H4082     1.0  0.86279  0.16963  0.62548  1.0000
  H   H4083     1.0  0.86492  0.14847  0.60991  1.0000
  H   H4084     1.0  0.86361  0.14601  0.62459  1.0000
  H   H4085     1.0  0.85549  0.15832  0.61787  1.0000
  H   H4086     1.0  0.88843  0.17182  0.60635  1.0000
  C   C3434     1.0  0.73079  0.99862  0.62260  1.0000
  H   H4087     1.0  0.74074  0.13968  0.60408  1.0000
  H   H4088     1.0  0.70734  0.12851  0.66624  1.0000
  C   C3435     1.0  0.90040  0.21409  0.59459  1.0000
  H   H4089     1.0  0.73643  0.08983  0.61513  1.0000
  C   C3436     1.0  0.67783  0.13320  0.68696  1.0000
  H   H4090     1.0  0.88669  0.22161  0.61067  1.0000
  C   C3437     1.0  0.90000  0.23063  0.60139  1.0000
  C   C3438     1.0  0.64922  0.11540  0.66047  1.0000
  H   H4091     1.0  0.70403  0.13327  0.68938  1.0000
  C   C3439     1.0  0.70042  0.09070  0.60067  1.0000
  C   C3440     1.0  0.70638  0.12466  0.68793  1.0000
  H   H4092     1.0  0.69693  0.13909  0.67203  1.0000
  H   H4093     1.0  0.67035  0.07307  0.67278  1.0000
  H   H4094     1.0  0.86440  0.21364  0.65993  1.0000
  H   H4095     1.0  0.70959  0.10967  0.67506  1.0000
  C   C3441     1.0  0.85567  0.23339  0.64291  1.0000
  H   H4096     1.0  0.56156  0.13069  0.74423  1.0000
  H   H4097     1.0  0.56832  0.10354  0.75276  1.0000
  H   H4098     1.0  0.80500  0.17662  0.65576  1.0000
  H   H4099     1.0  0.92244  0.22526  0.59204  1.0000
  H   H4100     1.0  0.78888  0.07037  0.61050  1.0000
  C   C3442     1.0  0.53873  0.10679  0.71570  1.0000
  H   H4101     1.0  0.72859  0.02865  0.62630  1.0000
  C   C3443     1.0  0.58909  0.15844  0.75304  1.0000
  C   C3444     1.0  0.51808  0.13995  0.71144  1.0000
  C   C3445     1.0  0.60704  0.09573  0.76996  1.0000
  C   C3446     1.0  0.55855  0.14202  0.75487  1.0000
  H   H4102     1.0  0.53588  0.02502  0.77366  1.0000
  N   N227      1.0  0.51450  0.13122  0.72107  1.0000
  H   H4103     1.0  0.65058  0.09958  0.67118  1.0000
  H   H4104     1.0  0.56764  0.16850  0.76044  1.0000
  H   H4105     1.0  0.74308  0.02169  0.59113  1.0000
  C   C3447     1.0  0.58169  0.14008  0.74962  1.0000
  H   H4106     1.0  0.67857  0.13889  0.67897  1.0000
  H   H4107     1.0  0.74679  0.08854  0.59646  1.0000
  C   C3448     1.0  0.73460  0.06379  0.58592  1.0000
  H   H4108     1.0  0.70011  0.13005  0.60251  1.0000
  H   H4109     1.0  0.70788  0.16042  0.62960  1.0000
  H   H4110     1.0  0.72304  0.11174  0.60363  1.0000
  C   C3449     1.0  0.71627  0.13416  0.59537  1.0000
  H   H4111     1.0  0.78739  0.19993  0.63997  1.0000
  C   C3450     1.0  0.86747  0.21475  0.58792  1.0000
  C   C3451     1.0  0.67401  0.11892  0.70772  1.0000
  H   H4112     1.0  0.75106  0.14469  0.59246  1.0000
  C   C3452     1.0  0.89620  0.20923  0.65818  1.0000
  H   H4113     1.0  0.64997  0.13107  0.64894  1.0000
  H   H4114     1.0  0.61574  0.09148  0.76833  1.0000
  C   C3453     1.0  0.71691  0.15933  0.62725  1.0000
  H   H4115     1.0  0.78871  0.17307  0.65412  1.0000
  C   C3454     1.0  0.74852  0.16450  0.59771  1.0000
  C   C3455     1.0  0.57685  0.13425  0.74511  1.0000
  C   C3456     1.0  0.80965  0.18027  0.64750  1.0000
  H   H4116     1.0  0.52701  0.14018  0.71031  1.0000
  H   H4117     1.0  0.54778  0.10487  0.71458  1.0000
  C   C3457     1.0  0.88012  0.20187  0.65949  1.0000
  C   C3458     1.0  0.54200  0.04393  0.77209  1.0000
  H   H4118     1.0  0.54937  0.01803  0.76681  1.0000
  H   H4119     1.0  0.56613  0.15919  0.77391  1.0000
  C   C3459     1.0  0.64474  0.06140  0.77134  1.0000
  H   H4120     1.0  0.53730  0.12336  0.71689  1.0000
  H   H4121     1.0  0.77259  0.10099  0.59199  1.0000
  C   C3460     1.0  0.98871  0.22752  0.64039  1.0000
  C   C3461     1.0  0.58358  0.08648  0.75795  1.0000
  C   C3462     1.0  0.73961  0.01319  0.62334  1.0000
  H   H4122     1.0  0.61842  0.06709  0.76699  1.0000
  C   C3463     1.0  0.57228  0.16242  0.76655  1.0000
  H   H4123     1.0  0.57694  0.08484  0.75485  1.0000
  H   H4124     1.0  0.59014  0.08873  0.75054  1.0000
  H   H4125     1.0  0.79470  0.16965  0.61534  1.0000
  H   H4126     1.0  0.91797  0.21432  0.60302  1.0000
  H   H4127     1.0  0.49886  0.12673  0.73032  1.0000
  H   H4128     1.0  0.73794  0.16062  0.58469  1.0000
  C   C3464     1.0  0.56530  0.13524  0.74770  1.0000
  N   N228      1.0  0.89417  0.22987  0.65702  1.0000
  H   H4129     1.0  0.59156  0.13815  0.76709  1.0000
  H   H4130     1.0  0.51704  0.13852  0.70364  1.0000
  C   C3465     1.0  0.97717  0.22962  0.64085  1.0000
  H   H4131     1.0  0.67810  0.10462  0.64270  1.0000
  H   H4132     1.0  0.64131  0.11867  0.66559  1.0000
  H   H4133     1.0  0.66579  0.08298  0.64901  1.0000
  C   C3466     1.0  0.65472  0.10435  0.66361  1.0000
  C   C3467     1.0  0.65408  0.12240  0.65112  1.0000
  H   H4134     1.0  0.58705  0.07847  0.76312  1.0000
  H   H4135     1.0  0.87659  0.19497  0.65975  1.0000
  H   H4136     1.0  0.89692  0.19214  0.65843  1.0000
  C   C3468     1.0  0.62688  0.06780  0.76591  1.0000
  S   S922      1.0  0.58873  0.05516  0.75746  1.0000
  H   H4137     1.0  0.81472  0.18541  0.64893  1.0000
  Fe  Fe461     1.0  0.53366  0.11003  0.77099  1.0000
  C   C3469     1.0  0.73888  0.08885  0.59413  1.0000
  H   H4138     1.0  0.75293  0.14256  0.60623  1.0000
  S   S923      1.0  0.52094  0.09995  0.77261  1.0000
  C   C3470     1.0  0.71740  0.10077  0.58629  1.0000
  C   C3471     1.0  0.73051  0.10665  0.59906  1.0000
  C   C3472     1.0  0.59916  0.09262  0.76633  1.0000
  S   S924      1.0  0.59804  0.06413  0.77999  1.0000
  H   H4139     1.0  0.56866  0.11207  0.76138  1.0000
  H   H4140     1.0  0.79710  0.20114  0.64727  1.0000
  C   C3473     1.0  0.57776  0.00401  0.77949  1.0000
  H   H4141     1.0  0.67933  0.08636  0.64374  1.0000
  C   C3474     1.0  0.70993  0.09035  0.60434  1.0000
  H   H4142     1.0  0.72790  0.16923  0.59346  1.0000
  H   H4143     1.0  0.90673  0.22105  0.66657  1.0000
  N   N229      1.0  0.57912  0.09547  0.76427  1.0000
  C   C3475     1.0  0.58773  0.09827  0.76814  1.0000
  H   H4144     1.0  0.54190  0.03059  0.75956  1.0000
  C   C3476     1.0  0.57446  0.06053  0.75803  1.0000
  H   H4145     1.0  0.53951  0.04815  0.76404  1.0000
  C   C3477     1.0  0.86579  0.17032  0.59773  1.0000
  C   C3478     1.0  0.79329  0.17065  0.62376  1.0000
  C   C3479     1.0  0.73461  0.15612  0.63232  1.0000
  C   C3480     1.0  0.57391  0.10550  0.75688  1.0000
  H   H4146     1.0  0.51315  0.14841  0.71241  1.0000
  H   H4147     1.0  0.70697  0.11883  0.69604  1.0000
  S   S925      1.0  0.53723  0.07383  0.75962  1.0000
  S   S926      1.0  0.84515  0.22141  0.59625  1.0000
  C   C3481     1.0  0.55156  0.06887  0.75892  1.0000
  S   S927      1.0  0.74706  0.00092  0.58484  1.0000
  H   H4148     1.0  0.86745  0.20786  0.59495  1.0000
  H   H4149     1.0  0.69833  0.12605  0.58527  1.0000
  C   C3482     1.0  0.57043  0.09180  0.77394  1.0000
  H   H4150     1.0  0.56416  0.08892  0.77147  1.0000
  H   H4151     1.0  0.51733  0.09468  0.71802  1.0000
  Fe  Fe462     1.0  0.59260  0.05195  0.77414  1.0000
  H   H4152     1.0  0.88629  0.23135  0.67382  1.0000
  C   C3483     1.0  0.88528  0.23544  0.61733  1.0000
  C   C3484     1.0  0.72241  0.15914  0.61625  1.0000
  S   S928      1.0  0.95929  0.22856  0.60208  1.0000
  H   H4153     1.0  0.71017  0.08596  0.61276  1.0000
  C   C3485     1.0  0.68687  0.12455  0.69009  1.0000
  C   C3486     1.0  0.84035  0.23408  0.65887  1.0000
  C   C3487     1.0  0.67373  0.08261  0.65132  1.0000
  H   H4154     1.0  0.67798  0.07371  0.65351  1.0000
  C   C3488     1.0  0.68246  0.08831  0.66271  1.0000
  C   C3489     1.0  0.55993  0.03434  0.76323  1.0000
  H   H4155     1.0  0.55812  0.03891  0.75498  1.0000
  C   C3490     1.0  0.55816  0.06361  0.75038  1.0000
  C   C3491     1.0  0.56966  0.05961  0.74983  1.0000
  C   C3492     1.0  0.56327  0.14804  0.75930  1.0000
  H   H4156     1.0  0.58215  0.12892  0.73958  1.0000
  H   H4157     1.0  0.90518  0.20748  0.65719  1.0000
  C   C3493     1.0  0.71873  0.09544  0.59723  1.0000
  C   C3494     1.0  0.66548  0.08174  0.67062  1.0000
  H   H4158     1.0  0.65731  0.08114  0.66947  1.0000
  H   H4159     1.0  0.65001  0.05580  0.77678  1.0000
  H   H4160     1.0  0.56546  0.02614  0.76217  1.0000
  H   H4161     1.0  0.65703  0.12838  0.70966  1.0000
  C   C3495     1.0  0.72870  0.08988  0.61263  1.0000
  H   H4162     1.0  0.55756  0.15303  0.76489  1.0000
  H   H4163     1.0  0.59006  0.14904  0.77407  1.0000
  H   H4164     1.0  0.55440  0.06280  0.74411  1.0000
  H   H4165     1.0  0.62601  0.08151  0.75171  1.0000
  H   H4166     1.0  0.50676  0.10101  0.74404  1.0000
  H   H4167     1.0  0.74444  0.17293  0.59937  1.0000
  C   C3496     1.0  0.52075  0.12009  0.71906  1.0000
  H   H4168     1.0  0.74887  0.99762  0.62006  1.0000
  C   C3497     1.0  0.54390  0.02632  0.76781  1.0000
  H   H4169     1.0  0.63397  0.08311  0.77719  1.0000
  C   C3498     1.0  0.78671  0.16434  0.63230  1.0000
  N   N230      1.0  0.67157  0.08836  0.66053  1.0000
  H   H4170     1.0  0.71720  0.16002  0.61056  1.0000
  C   C3499     1.0  0.90592  0.22682  0.65847  1.0000
  C   C3500     1.0  0.63361  0.06061  0.77307  1.0000
  C   C3501     1.0  0.67002  0.10731  0.64782  1.0000
  H   H4171     1.0  0.61055  0.12608  0.77505  1.0000
  H   H4172     1.0  0.71495  0.12351  0.68254  1.0000
  H   H4173     1.0  0.59073  0.13867  0.74760  1.0000
  C   C3502     1.0  0.66532  0.12740  0.70433  1.0000
  H   H4174     1.0  0.57624  0.11179  0.77543  1.0000
  C   C3503     1.0  0.66537  0.09997  0.65739  1.0000
  H   H4175     1.0  0.66389  0.08544  0.67798  1.0000
  H   H4176     1.0  0.75578  0.16115  0.60179  1.0000
  S   S929      1.0  0.71773  0.13726  0.60738  1.0000
  Fe  Fe463     1.0  0.78246  0.14340  0.59572  1.0000
  H   H4177     1.0  0.69295  0.12902  0.66722  1.0000
  N   N231      1.0  0.69816  0.12272  0.68279  1.0000
  H   H4178     1.0  0.78003  0.16035  0.64977  1.0000
  C   C3504     1.0  0.58551  0.14519  0.77033  1.0000
  C   C3505     1.0  0.72299  0.15782  0.63526  1.0000
  H   H4179     1.0  0.59276  0.16343  0.75644  1.0000
  H   H4180     1.0  0.66828  0.12393  0.63765  1.0000
  H   H4181     1.0  0.58570  0.16393  0.74582  1.0000
  C   C3506     1.0  0.74048  0.00253  0.62189  1.0000
  C   C3507     1.0  0.68466  0.11754  0.70077  1.0000
  H   H4182     1.0  0.89876  0.23205  0.63931  1.0000
  H   H4183     1.0  0.51428  0.12655  0.73848  1.0000
  H   H4184     1.0  0.80381  0.19843  0.62399  1.0000
  H   H4185     1.0  0.71734  0.99248  0.61300  1.0000
  C   C3508     1.0  0.70677  0.13077  0.59519  1.0000
  C   C3509     1.0  0.63532  0.09999  0.77265  1.0000
  H   H4186     1.0  0.57422  0.08477  0.78006  1.0000
  H   H4187     1.0  0.89156  0.21709  0.59370  1.0000
  H   H4188     1.0  0.73992  0.09249  0.58510  1.0000
  C   C3510     1.0  0.73426  0.15750  0.61295  1.0000
  H   H4189     1.0  0.60522  0.99200  0.77181  1.0000
  C   C3511     1.0  0.70787  0.10104  0.58270  1.0000
  H   H4190     1.0  0.74924  0.15413  0.61961  1.0000
  C   C3512     1.0  0.74656  0.14552  0.60103  1.0000
  H   H4191     1.0  0.78292  0.15856  0.63052  1.0000
  C   C3513     1.0  0.89037  0.22858  0.60972  1.0000
  H   H4192     1.0  0.97154  0.23601  0.64497  1.0000
  C   C3514     1.0  0.52160  0.10107  0.71770  1.0000
  C   C3515     1.0  0.72485  0.13508  0.58583  1.0000
  H   H4193     1.0  0.71146  0.02239  0.62759  1.0000
  C   C3516     1.0  0.72919  0.02032  0.62536  1.0000
  C   C3517     1.0  0.72029  0.00608  0.62477  1.0000
  H   H4194     1.0  0.86068  0.22940  0.63623  1.0000
  H   H4195     1.0  0.57911  0.14153  0.77710  1.0000
  N   N232      1.0  0.54955  0.03286  0.77166  1.0000
  H   H4196     1.0  0.96398  0.22560  0.63604  1.0000
  C   C3518     1.0  0.85754  0.22243  0.58633  1.0000
  C   C3519     1.0  0.63318  0.10999  0.77599  1.0000
  C   C3520     1.0  0.70576  0.12854  0.58542  1.0000
  H   H4197     1.0  0.49769  0.14117  0.72444  1.0000
  H   H4198     1.0  0.87805  0.23361  0.62373  1.0000
  H   H4199     1.0  0.73075  0.99317  0.60393  1.0000
  H   H4200     1.0  0.49839  0.09288  0.73366  1.0000
  C   C3521     1.0  0.88739  0.23662  0.66529  1.0000
  C   C3522     1.0  0.59271  0.11016  0.77731  1.0000
  H   H4201     1.0  0.69202  0.09628  0.58706  1.0000
  Fe  Fe464     1.0  0.94425  0.23825  0.61165  1.0000
  H   H4202     1.0  0.90907  0.23426  0.65810  1.0000
  H   H4203     1.0  0.54599  0.04974  0.77394  1.0000
  H   H4204     1.0  0.98848  0.23377  0.61623  1.0000
  H   H4205     1.0  0.60995  0.10685  0.77823  1.0000
  H   H4206     1.0  0.53423  0.04323  0.77859  1.0000
  S   S930      1.0  0.60635  0.03766  0.77885  1.0000
  H   H4207     1.0  0.97682  0.23384  0.61108  1.0000
  H   H4208     1.0  0.86377  0.23528  0.60896  1.0000
  H   H4209     1.0  0.80566  0.07299  0.58623  1.0000
  H   H4210     1.0  0.98998  0.23535  0.60171  1.0000
  H   H4211     1.0  0.88933  0.18679  0.58993  1.0000
  H   H4212     1.0  0.74839  0.04976  0.58441  1.0000
  C   C3523     1.0  0.87499  0.18484  0.58546  1.0000
  H   H4213     1.0  0.99708  0.20647  0.62640  1.0000
  H   H4214     1.0  0.59019  0.11697  0.78150  1.0000
  C   C3524     1.0  0.63235  0.09057  0.78025  1.0000
  H   H4215     1.0  0.86027  0.18130  0.58328  1.0000
  H   H4216     1.0  0.86574  0.23650  0.59431  1.0000
  C   C3525     1.0  0.89400  0.23687  0.64577  1.0000
  C   C3526     1.0  0.98414  0.23774  0.60928  1.0000
  S   S931      1.0  0.61582  0.14362  0.78199  1.0000
  S   S932      1.0  0.94613  0.21867  0.58209  1.0000
  C   C3527     1.0  0.58620  0.01758  0.78254  1.0000
  Fe  Fe465     1.0  0.60771  0.21900  0.94637  1.0000
  H   H4217     1.0  0.55866  0.21889  0.93183  1.0000
  S   S933      1.0  0.61772  0.21650  0.92919  1.0000
  C   C3528     1.0  0.57822  0.19663  0.92818  1.0000
  H   H4218     1.0  0.56221  0.21355  0.91956  1.0000
  S   S934      1.0  0.61442  0.22682  0.95626  1.0000
  S   S935      1.0  0.59911  0.20854  0.96184  1.0000
  H   H4219     1.0  0.56921  0.22174  0.84279  1.0000
  C   C3529     1.0  0.64608  0.22752  0.89178  1.0000
  C   C3530     1.0  0.55230  0.02753  0.78266  1.0000
  H   H4220     1.0  0.62248  0.14575  0.84140  1.0000
  H   H4221     1.0  0.61826  0.07412  0.81677  1.0000
  N   N233      1.0  0.50950  0.23059  0.91165  1.0000
  S   S936      1.0  0.57546  0.07309  0.80353  1.0000
  C   C3531     1.0  0.64944  0.21980  0.87533  1.0000
  H   H4222     1.0  0.53282  0.09195  0.83607  1.0000
  H   H4223     1.0  0.53286  0.08204  0.82840  1.0000
  H   H4224     1.0  0.58328  0.21195  0.94367  1.0000
  H   H4225     1.0  0.55130  0.22418  0.94864  1.0000
  H   H4226     1.0  0.54185  0.23661  0.88450  1.0000
  H   H4227     1.0  0.54172  0.09587  0.80584  1.0000
  Fe  Fe466     1.0  0.61086  0.19444  0.85723  1.0000
  S   S937      1.0  0.60874  0.21276  0.84963  1.0000
  S   S938      1.0  0.61474  0.18240  0.84554  1.0000
  Fe  Fe467     1.0  0.60662  0.19899  0.88067  1.0000
  S   S939      1.0  0.60344  0.21753  0.87480  1.0000
  S   S940      1.0  0.60532  0.19140  0.89899  1.0000
  Fe  Fe468     1.0  0.59409  0.21463  0.86374  1.0000
  C   C3532     1.0  0.55966  0.11307  0.82479  1.0000
  Fe  Fe469     1.0  0.61842  0.21402  0.86134  1.0000
  S   S941      1.0  0.63157  0.22446  0.85512  1.0000
  S   S942      1.0  0.59557  0.19639  0.87088  1.0000
  S   S943      1.0  0.62226  0.19539  0.86766  1.0000
  Fe  Fe470     1.0  0.59194  0.12218  0.81437  1.0000
  N   N234      1.0  0.57597  0.21744  0.92356  1.0000
  S   S944      1.0  0.59457  0.10369  0.82183  1.0000
  Fe  Fe471     1.0  0.58883  0.14559  0.81863  1.0000
  H   H4228     1.0  0.57362  0.20517  0.85831  1.0000
  S   S945      1.0  0.58639  0.15498  0.83248  1.0000
  C   C3533     1.0  0.59151  0.08368  0.82061  1.0000
  C   C3534     1.0  0.62492  0.10123  0.79459  1.0000
  H   H4229     1.0  0.62698  0.08397  0.81380  1.0000
  S   S946      1.0  0.57682  0.13453  0.82069  1.0000
  Fe  Fe472     1.0  0.58666  0.05885  0.79611  1.0000
  C   C3535     1.0  0.60652  0.17512  0.84189  1.0000
  C   C3536     1.0  0.61079  0.17066  0.83230  1.0000
  C   C3537     1.0  0.60481  0.16451  0.82927  1.0000
  C   C3538     1.0  0.59442  0.16269  0.83582  1.0000
  C   C3539     1.0  0.59013  0.16720  0.84539  1.0000
  C   C3540     1.0  0.59613  0.17332  0.84843  1.0000
  H   H4230     1.0  0.61884  0.17191  0.82718  1.0000
  H   H4231     1.0  0.60826  0.16114  0.82189  1.0000
  H   H4232     1.0  0.58212  0.16585  0.85054  1.0000
  H   H4233     1.0  0.59283  0.17641  0.85596  1.0000
  H   H4234     1.0  0.58215  0.21099  0.90851  1.0000
  C   C3541     1.0  0.55739  0.03295  0.78764  1.0000
  C   C3542     1.0  0.61989  0.15019  0.88449  1.0000
  H   H4235     1.0  0.62608  0.11852  0.78939  1.0000
  H   H4236     1.0  0.57562  0.19700  0.92073  1.0000
  Fe  Fe473     1.0  0.61066  0.04946  0.78629  1.0000
  C   C3543     1.0  0.61775  0.14625  0.84973  1.0000
  C   C3544     1.0  0.60910  0.16778  0.87651  1.0000
  C   C3545     1.0  0.58062  0.18617  0.93515  1.0000
  S   S947      1.0  0.54075  0.11058  0.78530  1.0000
  C   C3546     1.0  0.64281  0.21754  0.89825  1.0000
  C   C3547     1.0  0.58243  0.20505  0.94089  1.0000
  C   C3548     1.0  0.58220  0.08123  0.80753  1.0000
  C   C3549     1.0  0.58052  0.09268  0.80308  1.0000
  C   C3550     1.0  0.58437  0.09963  0.80732  1.0000
  C   C3551     1.0  0.58976  0.09518  0.81619  1.0000
  H   H4237     1.0  0.60713  0.17354  0.86873  1.0000
  C   C3552     1.0  0.58783  0.07670  0.81623  1.0000
  C   C3553     1.0  0.61481  0.07812  0.79623  1.0000
  N   N235      1.0  0.57577  0.20469  0.84115  1.0000
  C   C3554     1.0  0.55884  0.23307  0.95557  1.0000
  H   H4238     1.0  0.64564  0.20377  0.87808  1.0000
  Fe  Fe474     1.0  0.57648  0.14141  0.80266  1.0000
  H   H4239     1.0  0.57999  0.22571  0.90637  1.0000
  H   H4240     1.0  0.55181  0.07316  0.82763  1.0000
  S   S948      1.0  0.58887  0.23163  0.97186  1.0000
  H   H4241     1.0  0.63080  0.16643  0.87411  1.0000
  H   H4242     1.0  0.56382  0.09553  0.82828  1.0000
  Fe  Fe475     1.0  0.60433  0.21796  0.97154  1.0000
  C   C3555     1.0  0.57766  0.22678  0.92727  1.0000
  C   C3556     1.0  0.56398  0.21955  0.92334  1.0000
  C   C3557     1.0  0.55263  0.01230  0.79917  1.0000
  H   H4243     1.0  0.52838  0.09649  0.82312  1.0000
  H   H4244     1.0  0.63995  0.21633  0.90716  1.0000
  C   C3558     1.0  0.57909  0.20641  0.93081  1.0000
  C   C3559     1.0  0.58271  0.21773  0.91211  1.0000
  H   H4245     1.0  0.55290  0.08162  0.83623  1.0000
  C   C3560     1.0  0.57156  0.21775  0.88253  1.0000
  C   C3561     1.0  0.56410  0.21755  0.89281  1.0000
  C   C3562     1.0  0.58385  0.18515  0.94496  1.0000
  C   C3563     1.0  0.58471  0.19457  0.94784  1.0000
  H   H4246     1.0  0.57989  0.21264  0.88211  1.0000
  H   H4247     1.0  0.56670  0.21227  0.90020  1.0000
  H   H4248     1.0  0.58961  0.18163  0.81529  1.0000
  H   H4249     1.0  0.56263  0.08063  0.82317  1.0000
  C   C3564     1.0  0.55352  0.22459  0.89356  1.0000
  H   H4250     1.0  0.59044  0.21019  0.83032  1.0000
  H   H4251     1.0  0.62073  0.10241  0.80285  1.0000
  C   C3565     1.0  0.61365  0.20976  0.92101  1.0000
  C   C3566     1.0  0.61584  0.21348  0.90943  1.0000
  C   C3567     1.0  0.61343  0.20789  0.90260  1.0000
  C   C3568     1.0  0.60881  0.19846  0.90729  1.0000
  C   C3569     1.0  0.60669  0.19470  0.91886  1.0000
  C   C3570     1.0  0.60900  0.20037  0.92570  1.0000
  H   H4252     1.0  0.61945  0.22071  0.90569  1.0000
  H   H4253     1.0  0.61524  0.21082  0.89371  1.0000
  H   H4254     1.0  0.60327  0.18733  0.92256  1.0000
  H   H4255     1.0  0.60751  0.19726  0.93457  1.0000
  H   H4256     1.0  0.55408  0.13085  0.82016  1.0000
  H   H4257     1.0  0.58566  0.17705  0.95038  1.0000
  H   H4258     1.0  0.58709  0.19379  0.95555  1.0000
  H   H4259     1.0  0.59168  0.21681  0.91191  1.0000
  Fe  Fe476     1.0  0.59402  0.03430  0.79494  1.0000
  C   C3571     1.0  0.55246  0.12279  0.82073  1.0000
  H   H4260     1.0  0.55636  0.09091  0.80535  1.0000
  S   S949      1.0  0.59255  0.23272  0.94524  1.0000
  S   S950      1.0  0.58703  0.15363  0.80102  1.0000
  H   H4261     1.0  0.63587  0.15539  0.86675  1.0000
  H   H4262     1.0  0.58292  0.10844  0.80391  1.0000
  H   H4263     1.0  0.55114  0.00411  0.80351  1.0000
  H   H4264     1.0  0.54728  0.08130  0.80990  1.0000
  H   H4265     1.0  0.53814  0.12976  0.81336  1.0000
  H   H4266     1.0  0.62637  0.14262  0.88288  1.0000
  H   H4267     1.0  0.63468  0.23143  0.95843  1.0000
  H   H4268     1.0  0.53478  0.11180  0.81364  1.0000
  H   H4269     1.0  0.58661  0.22576  0.92742  1.0000
  H   H4270     1.0  0.56689  0.11357  0.82743  1.0000
  H   H4271     1.0  0.57996  0.17883  0.93291  1.0000
  H   H4272     1.0  0.61204  0.07063  0.80198  1.0000
  N   N236      1.0  0.54631  0.09089  0.82178  1.0000
  C   C3572     1.0  0.53459  0.09034  0.82760  1.0000
  C   C3573     1.0  0.54795  0.08969  0.81026  1.0000
  C   C3574     1.0  0.55372  0.08119  0.82750  1.0000
  C   C3575     1.0  0.54854  0.10174  0.82156  1.0000
  C   C3576     1.0  0.54154  0.11182  0.81722  1.0000
  C   C3577     1.0  0.55777  0.10267  0.82523  1.0000
  C   C3578     1.0  0.54343  0.12216  0.81696  1.0000
  C   C3579     1.0  0.54738  0.12081  0.78610  1.0000
  H   H4273     1.0  0.55982  0.10858  0.79390  1.0000
  C   C3580     1.0  0.56833  0.22479  0.87297  1.0000
  H   H4274     1.0  0.63989  0.20164  0.89847  1.0000
  S   S951      1.0  0.56713  0.22090  0.96200  1.0000
  Fe  Fe477     1.0  0.58433  0.22302  0.96117  1.0000
  C   C3581     1.0  0.58381  0.19252  0.82684  1.0000
  H   H4275     1.0  0.57495  0.99036  0.79335  1.0000
  H   H4276     1.0  0.59214  0.19396  0.82528  1.0000
  H   H4277     1.0  0.55997  0.01401  0.81169  1.0000
  C   C3582     1.0  0.62039  0.08188  0.81103  1.0000
  C   C3583     1.0  0.55753  0.23140  0.87364  1.0000
  H   H4278     1.0  0.63020  0.23425  0.90929  1.0000
  H   H4279     1.0  0.57614  0.09620  0.79640  1.0000
  C   C3584     1.0  0.55760  0.01785  0.80380  1.0000
  C   C3585     1.0  0.58641  0.01164  0.79339  1.0000
  S   S952      1.0  0.59089  0.01696  0.80236  1.0000
  H   H4280     1.0  0.56807  0.12224  0.79767  1.0000
  C   C3586     1.0  0.64596  0.21022  0.88191  1.0000
  H   H4281     1.0  0.57701  0.19146  0.85556  1.0000
  S   S953      1.0  0.60401  0.13250  0.81370  1.0000
  C   C3587     1.0  0.61488  0.15257  0.86693  1.0000
  C   C3588     1.0  0.64272  0.20906  0.89336  1.0000
  C   C3589     1.0  0.56121  0.12509  0.79345  1.0000
  H   H4282     1.0  0.56320  0.19997  0.85574  1.0000
  C   C3590     1.0  0.57224  0.20011  0.85318  1.0000
  C   C3591     1.0  0.57827  0.99783  0.79025  1.0000
  C   C3592     1.0  0.58269  0.00160  0.79715  1.0000
  H   H4283     1.0  0.55694  0.19769  0.84183  1.0000
  C   C3593     1.0  0.58735  0.20630  0.83912  1.0000
  H   H4284     1.0  0.58283  0.99698  0.80555  1.0000
  H   H4285     1.0  0.58786  0.21192  0.84413  1.0000
  H   H4286     1.0  0.57515  0.23495  0.92171  1.0000
  C   C3594     1.0  0.56309  0.18713  0.83029  1.0000
  C   C3595     1.0  0.56426  0.19439  0.83610  1.0000
  H   H4287     1.0  0.58895  0.06789  0.81989  1.0000
  H   H4288     1.0  0.59562  0.08017  0.82752  1.0000
  S   S954      1.0  0.57795  0.22560  0.86030  1.0000
  S   S955      1.0  0.56105  0.14628  0.79514  1.0000
  C   C3596     1.0  0.57220  0.18260  0.82278  1.0000
  H   H4289     1.0  0.59328  0.19828  0.84142  1.0000
  H   H4290     1.0  0.55512  0.18486  0.83171  1.0000
  C   C3597     1.0  0.63374  0.07105  0.79888  1.0000
  C   C3598     1.0  0.57471  0.19719  0.83468  1.0000
  H   H4291     1.0  0.55947  0.21546  0.84031  1.0000
  C   C3599     1.0  0.56846  0.21580  0.83823  1.0000
  C   C3600     1.0  0.51755  0.23522  0.90184  1.0000
  H   H4292     1.0  0.52312  0.22865  0.89747  1.0000
  H   H4293     1.0  0.57070  0.21943  0.82920  1.0000
  H   H4294     1.0  0.61270  0.08844  0.81224  1.0000
  H   H4295     1.0  0.54344  0.14873  0.78390  1.0000
  C   C3601     1.0  0.60500  0.14825  0.87081  1.0000
  S   S956      1.0  0.62832  0.05088  0.78452  1.0000
  H   H4296     1.0  0.56102  0.22797  0.91846  1.0000
  H   H4297     1.0  0.63176  0.06348  0.80511  1.0000
  H   H4298     1.0  0.62861  0.15473  0.85229  1.0000
  H   H4299     1.0  0.62775  0.16861  0.86087  1.0000
  H   H4300     1.0  0.61146  0.17261  0.88123  1.0000
  C   C3602     1.0  0.60796  0.14221  0.85375  1.0000
  N   N237      1.0  0.62409  0.08069  0.79933  1.0000
  C   C3603     1.0  0.62118  0.15141  0.85615  1.0000
  Fe  Fe478     1.0  0.60154  0.13991  0.79629  1.0000
  H   H4301     1.0  0.57140  0.17670  0.81854  1.0000
  C   C3604     1.0  0.58249  0.18540  0.82097  1.0000
  H   H4302     1.0  0.65182  0.22072  0.86640  1.0000
  S   S957      1.0  0.59097  0.12849  0.79655  1.0000
  H   H4303     1.0  0.60512  0.13861  0.84855  1.0000
  C   C3605     1.0  0.55639  0.13643  0.79103  1.0000
  H   H4304     1.0  0.56422  0.03221  0.80154  1.0000
  H   H4305     1.0  0.51086  0.21883  0.92722  1.0000
  S   S958      1.0  0.59962  0.04486  0.80304  1.0000
  C   C3606     1.0  0.62861  0.16227  0.86867  1.0000
  H   H4306     1.0  0.62265  0.15400  0.88984  1.0000
  H   H4307     1.0  0.59972  0.14890  0.87886  1.0000
  H   H4308     1.0  0.61212  0.14742  0.88949  1.0000
  H   H4309     1.0  0.65197  0.23569  0.87445  1.0000
  C   C3607     1.0  0.60161  0.14319  0.86427  1.0000
  H   H4310     1.0  0.59389  0.14020  0.86725  1.0000
  S   S959      1.0  0.54533  0.22633  0.90654  1.0000
  C   C3608     1.0  0.63308  0.23669  0.85808  1.0000
  C   C3609     1.0  0.55012  0.23131  0.88396  1.0000
  H   H4311     1.0  0.55498  0.23681  0.86625  1.0000
  H   H4312     1.0  0.60121  0.16533  0.88158  1.0000
  C   C3610     1.0  0.55655  0.11734  0.79123  1.0000
  C   C3611     1.0  0.55204  0.23228  0.94900  1.0000
  C   C3612     1.0  0.55999  0.02814  0.79804  1.0000
  N   N238      1.0  0.61814  0.15811  0.87395  1.0000
  H   H4313     1.0  0.50754  0.22917  0.89065  1.0000
  C   C3613     1.0  0.64066  0.23680  0.98057  1.0000
  C   C3614     1.0  0.55004  0.01699  0.78875  1.0000
  S   S960      1.0  0.57992  0.04793  0.78966  1.0000
  H   H4314     1.0  0.63620  0.06850  0.79083  1.0000
  H   H4315     1.0  0.52229  0.22567  0.92121  1.0000
  H   H4316     1.0  0.57251  0.22744  0.93566  1.0000
  H   H4317     1.0  0.66092  0.22884  0.90234  1.0000
  H   H4318     1.0  0.64119  0.07293  0.80035  1.0000
  C   C3615     1.0  0.63714  0.23018  0.96616  1.0000
  H   H4319     1.0  0.60738  0.08518  0.79637  1.0000
  C   C3616     1.0  0.51615  0.22214  0.91920  1.0000
  H   H4320     1.0  0.52103  0.21499  0.91532  1.0000
  C   C3617     1.0  0.65208  0.23254  0.90583  1.0000
  H   H4321     1.0  0.61728  0.07630  0.78779  1.0000
  C   C3618     1.0  0.64949  0.22838  0.88012  1.0000
  C   C3619     1.0  0.62723  0.09081  0.79150  1.0000
  H   H4322     1.0  0.63873  0.21244  0.96915  1.0000
  H   H4323     1.0  0.64870  0.22616  0.91279  1.0000
  C   C3620     1.0  0.63956  0.21924  0.97218  1.0000
  H   H4324     1.0  0.60205  0.23587  0.89930  1.0000
  H   H4325     1.0  0.60975  0.23764  0.91437  1.0000
  C   C3621     1.0  0.50180  0.22555  0.89772  1.0000
  N   N239      1.0  0.64539  0.23665  0.89713  1.0000
  H   H4326     1.0  0.55962  0.04085  0.78342  1.0000
  C   C3622     1.0  0.54291  0.13222  0.78311  1.0000
  H   H4327     1.0  0.54661  0.01201  0.78551  1.0000
  C   C3623     1.0  0.62793  0.11062  0.78691  1.0000
  C   C3624     1.0  0.54731  0.13997  0.78572  1.0000
  H   H4328     1.0  0.62078  0.23681  0.87344  1.0000
  C   C3625     1.0  0.50174  0.22555  0.90882  1.0000
  H   H4329     1.0  0.49766  0.23683  0.92543  1.0000
  Fe  Fe479     1.0  0.53611  0.26215  0.11593  1.0000
  H   H4330     1.0  0.51710  0.29665  0.08814  1.0000
  S   S961      1.0  0.51729  0.26646  0.11757  1.0000
  Fe  Fe480     1.0  0.55848  0.26986  0.11023  1.0000
  S   S962      1.0  0.56796  0.25285  0.11665  1.0000
  S   S963      1.0  0.56556  0.28545  0.10336  1.0000
  Fe  Fe481     1.0  0.55795  0.24707  0.10820  1.0000
  H   H4331     1.0  0.73448  0.39188  0.01228  1.0000
  Fe  Fe482     1.0  0.55303  0.25214  0.13081  1.0000
  S   S964      1.0  0.54956  0.26421  0.10049  1.0000
  S   S965      1.0  0.54408  0.26961  0.12495  1.0000
  H   H4332     1.0  0.76917  0.33352  0.99094  1.0000
  C   C3626     1.0  0.75372  0.40610  0.99408  1.0000
  Fe  Fe483     1.0  0.62351  0.25785  0.04248  1.0000
  H   H4333     1.0  0.69839  0.37045  0.15812  1.0000
  S   S966      1.0  0.62953  0.27245  0.04388  1.0000
  H   H4334     1.0  0.75416  0.43843  0.08829  1.0000
  H   H4335     1.0  0.77878  0.45085  0.07434  1.0000
  H   H4336     1.0  0.55557  0.25201  0.08375  1.0000
  S   S967      1.0  0.61178  0.25967  0.03154  1.0000
  H   H4337     1.0  0.76704  0.45020  0.08610  1.0000
  H   H4338     1.0  0.56944  0.24475  0.00964  1.0000
  Fe  Fe484     1.0  0.78665  0.37622  0.13304  1.0000
  S   S968      1.0  0.76810  0.37876  0.13960  1.0000
  S   S969      1.0  0.79414  0.37915  0.11453  1.0000
  Fe  Fe485     1.0  0.79212  0.37164  0.15622  1.0000
  S   S970      1.0  0.77387  0.37334  0.16459  1.0000
  S   S971      1.0  0.80657  0.36746  0.16536  1.0000
  Fe  Fe486     1.0  0.77226  0.36385  0.15288  1.0000
  S   S972      1.0  0.76196  0.35057  0.15943  1.0000
  Fe  Fe487     1.0  0.77113  0.38798  0.15065  1.0000
  S   S973      1.0  0.75951  0.40388  0.15368  1.0000
  S   S974      1.0  0.79086  0.36052  0.14568  1.0000
  S   S975      1.0  0.78929  0.38700  0.14295  1.0000
  Fe  Fe488     1.0  0.70917  0.34605  0.13844  1.0000
  S   S976      1.0  0.69123  0.35521  0.13874  1.0000
  S   S977      1.0  0.71727  0.34169  0.15320  1.0000
  Fe  Fe489     1.0  0.71311  0.34492  0.11461  1.0000
  S   S978      1.0  0.69586  0.35446  0.11285  1.0000
  S   S979      1.0  0.72522  0.33939  0.09990  1.0000
  Fe  Fe490     1.0  0.69858  0.36550  0.12244  1.0000
  S   S980      1.0  0.69431  0.38438  0.11676  1.0000
  Fe  Fe491     1.0  0.69027  0.34315  0.12900  1.0000
  S   S981      1.0  0.67534  0.33499  0.13149  1.0000
  S   S982      1.0  0.71637  0.35679  0.12272  1.0000
  S   S983      1.0  0.70760  0.33310  0.13031  1.0000
  Fe  Fe492     1.0  0.62489  0.29508  0.10571  1.0000
  S   S984      1.0  0.62922  0.27664  0.10924  1.0000
  S   S985      1.0  0.60729  0.30363  0.10356  1.0000
  Fe  Fe493     1.0  0.64856  0.29704  0.10595  1.0000
  S   S986      1.0  0.65455  0.27833  0.10896  1.0000
  S   S987      1.0  0.66209  0.30686  0.10405  1.0000
  Fe  Fe494     1.0  0.64491  0.27862  0.09652  1.0000
  S   S988      1.0  0.64968  0.26585  0.08586  1.0000
  Fe  Fe495     1.0  0.63832  0.27791  0.12123  1.0000
  S   S989      1.0  0.63672  0.26568  0.13756  1.0000
  S   S990      1.0  0.64025  0.29730  0.09221  1.0000
  S   S991      1.0  0.63259  0.29649  0.11902  1.0000
  Fe  Fe496     1.0  0.76670  0.38074  0.04231  1.0000
  S   S992      1.0  0.75222  0.39531  0.04382  1.0000
  S   S993      1.0  0.77382  0.37653  0.02528  1.0000
  Fe  Fe497     1.0  0.76706  0.37586  0.06714  1.0000
  S   S994      1.0  0.75228  0.38971  0.07039  1.0000
  S   S995      1.0  0.77302  0.36469  0.08241  1.0000
  Fe  Fe498     1.0  0.74523  0.38408  0.05924  1.0000
  S   S996      1.0  0.72724  0.38330  0.06345  1.0000
  Fe  Fe499     1.0  0.76078  0.39956  0.05471  1.0000
  S   S997      1.0  0.76155  0.41728  0.05318  1.0000
  S   S998      1.0  0.75912  0.36917  0.05732  1.0000
  S   S999      1.0  0.77618  0.38605  0.05190  1.0000
  Fe  Fe500     1.0  0.74106  0.44251  0.10939  1.0000
  S   S1000     1.0  0.72851  0.44317  0.12538  1.0000
  S   S1001     1.0  0.75958  0.43812  0.10828  1.0000
  Fe  Fe501     1.0  0.72329  0.44681  0.09616  1.0000
  S   S1002     1.0  0.70923  0.44798  0.11107  1.0000
  S   S1003     1.0  0.72131  0.44837  0.07895  1.0000
  Fe  Fe502     1.0  0.71898  0.45817  0.11530  1.0000
  S   S1004     1.0  0.71200  0.47559  0.11873  1.0000
  Fe  Fe503     1.0  0.72025  0.43287  0.11959  1.0000
  S   S1005     1.0  0.71784  0.41569  0.12963  1.0000
  S   S1006     1.0  0.73219  0.45795  0.09959  1.0000
  S   S1007     1.0  0.73360  0.43132  0.10431  1.0000
  H   H4339     1.0  0.64634  0.28498  0.13449  1.0000
  H   H4340     1.0  0.77992  0.44114  0.05893  1.0000
  S   S1008     1.0  0.74478  0.36129  0.00094  1.0000
  C   C3627     1.0  0.75266  0.36627  0.00731  1.0000
  C   C3628     1.0  0.74917  0.36607  0.01872  1.0000
  C   C3629     1.0  0.75544  0.36941  0.02426  1.0000
  C   C3630     1.0  0.76535  0.37290  0.01845  1.0000
  C   C3631     1.0  0.76880  0.37320  0.00702  1.0000
  C   C3632     1.0  0.76247  0.36995  0.00145  1.0000
  H   H4341     1.0  0.74162  0.36320  0.02334  1.0000
  H   H4342     1.0  0.75270  0.36911  0.03306  1.0000
  H   H4343     1.0  0.77648  0.37584  0.00247  1.0000
  H   H4344     1.0  0.76537  0.37001  0.99272  1.0000
  C   C3633     1.0  0.74958  0.42543  0.06003  1.0000
  C   C3634     1.0  0.74698  0.43687  0.05565  1.0000
  C   C3635     1.0  0.73811  0.44381  0.06139  1.0000
  C   C3636     1.0  0.73201  0.43939  0.07173  1.0000
  C   C3637     1.0  0.73449  0.42792  0.07613  1.0000
  C   C3638     1.0  0.74319  0.42091  0.07020  1.0000
  H   H4345     1.0  0.75186  0.44040  0.04778  1.0000
  H   H4346     1.0  0.73612  0.45265  0.05792  1.0000
  H   H4347     1.0  0.72960  0.42449  0.08401  1.0000
  H   H4348     1.0  0.74515  0.41210  0.07362  1.0000
  C   C3639     1.0  0.67767  0.34870  0.09605  1.0000
  H   H4349     1.0  0.50893  0.28594  0.08279  1.0000
  H   H4350     1.0  0.78127  0.43637  0.09058  1.0000
  C   C3640     1.0  0.66699  0.27272  0.13563  1.0000
  C   C3641     1.0  0.71797  0.48211  0.12558  1.0000
  H   H4351     1.0  0.58374  0.26074  0.12654  1.0000
  H   H4352     1.0  0.63055  0.25034  0.11074  1.0000
  Fe  Fe504     1.0  0.60245  0.24929  0.04609  1.0000
  H   H4353     1.0  0.74536  0.39491  0.14596  1.0000
  H   H4354     1.0  0.74837  0.46051  0.11493  1.0000
  H   H4355     1.0  0.59830  0.29523  0.12776  1.0000
  H   H4356     1.0  0.72339  0.39607  0.17202  1.0000
  C   C3642     1.0  0.74688  0.39702  0.01652  1.0000
  C   C3643     1.0  0.75836  0.47704  0.14112  1.0000
  C   C3644     1.0  0.68276  0.30252  0.14156  1.0000
  C   C3645     1.0  0.67190  0.32705  0.12379  1.0000
  C   C3646     1.0  0.67924  0.32371  0.11438  1.0000
  C   C3647     1.0  0.67611  0.31751  0.10855  1.0000
  C   C3648     1.0  0.66563  0.31448  0.11201  1.0000
  C   C3649     1.0  0.65833  0.31772  0.12148  1.0000
  C   C3650     1.0  0.66146  0.32393  0.12730  1.0000
  H   H4357     1.0  0.68732  0.32592  0.11161  1.0000
  H   H4358     1.0  0.68185  0.31509  0.10125  1.0000
  H   H4359     1.0  0.65019  0.31562  0.12423  1.0000
  H   H4360     1.0  0.65569  0.32642  0.13456  1.0000
  C   C3651     1.0  0.72565  0.35143  0.08951  1.0000
  C   C3652     1.0  0.71932  0.36164  0.09185  1.0000
  C   C3653     1.0  0.71945  0.37135  0.08365  1.0000
  C   C3654     1.0  0.72622  0.37094  0.07316  1.0000
  C   C3655     1.0  0.73272  0.36077  0.07079  1.0000
  C   C3656     1.0  0.73235  0.35096  0.07896  1.0000
  H   H4361     1.0  0.71443  0.36218  0.10002  1.0000
  H   H4362     1.0  0.71457  0.37919  0.08558  1.0000
  H   H4363     1.0  0.73799  0.36049  0.06264  1.0000
  H   H4364     1.0  0.73733  0.34308  0.07714  1.0000
  C   C3657     1.0  0.70126  0.39296  0.12004  1.0000
  C   C3658     1.0  0.69667  0.40443  0.11874  1.0000
  C   C3659     1.0  0.70206  0.41158  0.12099  1.0000
  C   C3660     1.0  0.71198  0.40727  0.12485  1.0000
  C   C3661     1.0  0.71665  0.39581  0.12607  1.0000
  C   C3662     1.0  0.71135  0.38869  0.12363  1.0000
  H   H4365     1.0  0.68869  0.40778  0.11634  1.0000
  H   H4366     1.0  0.69823  0.42034  0.12029  1.0000
  H   H4367     1.0  0.72427  0.39234  0.12911  1.0000
  H   H4368     1.0  0.71499  0.37989  0.12470  1.0000
  C   C3663     1.0  0.81218  0.37583  0.17072  1.0000
  N   N240      1.0  0.50170  0.29699  0.10063  1.0000
  H   H4369     1.0  0.58528  0.24226  0.09777  1.0000
  C   C3664     1.0  0.80792  0.38727  0.16988  1.0000
  C   C3665     1.0  0.66864  0.28871  0.14158  1.0000
  H   H4370     1.0  0.80091  0.39132  0.16593  1.0000
  C   C3666     1.0  0.76064  0.41377  0.14122  1.0000
  C   C3667     1.0  0.75428  0.42460  0.14091  1.0000
  C   C3668     1.0  0.75456  0.43235  0.13081  1.0000
  C   C3669     1.0  0.76118  0.42928  0.12103  1.0000
  C   C3670     1.0  0.76796  0.41861  0.12140  1.0000
  C   C3671     1.0  0.76762  0.41082  0.13148  1.0000
  H   H4371     1.0  0.74893  0.42692  0.14842  1.0000
  H   H4372     1.0  0.74951  0.44068  0.13059  1.0000
  H   H4373     1.0  0.77307  0.41623  0.11385  1.0000
  H   H4374     1.0  0.77254  0.40247  0.13165  1.0000
  C   C3672     1.0  0.78826  0.37494  0.10573  1.0000
  C   C3673     1.0  0.78006  0.36857  0.11001  1.0000
  C   C3674     1.0  0.77529  0.36568  0.10278  1.0000
  C   C3675     1.0  0.77840  0.36938  0.09124  1.0000
  C   C3676     1.0  0.78652  0.37583  0.08698  1.0000
  C   C3677     1.0  0.79157  0.37841  0.09419  1.0000
  H   H4375     1.0  0.77749  0.36577  0.11887  1.0000
  H   H4376     1.0  0.76913  0.36057  0.10617  1.0000
  H   H4377     1.0  0.78924  0.37844  0.07810  1.0000
  H   H4378     1.0  0.79811  0.38307  0.09077  1.0000
  C   C3678     1.0  0.74926  0.34926  0.15714  1.0000
  C   C3679     1.0  0.74437  0.35574  0.14820  1.0000
  C   C3680     1.0  0.73454  0.35361  0.14668  1.0000
  C   C3681     1.0  0.72954  0.34512  0.15421  1.0000
  C   C3682     1.0  0.73432  0.33902  0.16323  1.0000
  C   C3683     1.0  0.74410  0.34098  0.16461  1.0000
  H   H4379     1.0  0.74825  0.36222  0.14244  1.0000
  H   H4380     1.0  0.73077  0.35855  0.13980  1.0000
  H   H4381     1.0  0.73052  0.33254  0.16915  1.0000
  H   H4382     1.0  0.74775  0.33596  0.17155  1.0000
  C   C3684     1.0  0.63462  0.27081  0.05582  1.0000
  C   C3685     1.0  0.63477  0.26099  0.06392  1.0000
  C   C3686     1.0  0.63926  0.25961  0.07316  1.0000
  C   C3687     1.0  0.64310  0.26826  0.07472  1.0000
  C   C3688     1.0  0.64257  0.27827  0.06682  1.0000
  C   C3689     1.0  0.63857  0.27945  0.05728  1.0000
  H   H4383     1.0  0.63164  0.25435  0.06295  1.0000
  H   H4384     1.0  0.63989  0.25172  0.07898  1.0000
  H   H4385     1.0  0.64573  0.28491  0.06780  1.0000
  H   H4386     1.0  0.63863  0.28704  0.05096  1.0000
  C   C3690     1.0  0.77086  0.44135  0.06250  1.0000
  C   C3691     1.0  0.57288  0.26342  0.15320  1.0000
  H   H4387     1.0  0.75071  0.44694  0.07556  1.0000
  C   C3692     1.0  0.57727  0.28930  0.10505  1.0000
  C   C3693     1.0  0.58753  0.28186  0.10625  1.0000
  C   C3694     1.0  0.59691  0.28595  0.10611  1.0000
  C   C3695     1.0  0.59597  0.29745  0.10481  1.0000
  C   C3696     1.0  0.58564  0.30466  0.10394  1.0000
  C   C3697     1.0  0.57645  0.30065  0.10396  1.0000
  H   H4388     1.0  0.58835  0.27310  0.10681  1.0000
  H   H4389     1.0  0.60485  0.28029  0.10679  1.0000
  H   H4390     1.0  0.58479  0.31352  0.10294  1.0000
  H   H4391     1.0  0.56865  0.30648  0.10291  1.0000
  C   C3698     1.0  0.51115  0.26255  0.10880  1.0000
  C   C3699     1.0  0.51718  0.26068  0.09838  1.0000
  C   C3700     1.0  0.51175  0.25877  0.09110  1.0000
  H   H4392     1.0  0.75964  0.46271  0.12646  1.0000
  C   C3701     1.0  0.65463  0.27734  0.15226  1.0000
  C   C3702     1.0  0.75594  0.48091  0.12225  1.0000
  H   H4393     1.0  0.52595  0.26097  0.09581  1.0000
  H   H4394     1.0  0.73182  0.38571  0.99829  1.0000
  H   H4395     1.0  0.76311  0.47799  0.14679  1.0000
  C   C3703     1.0  0.70502  0.37406  0.15853  1.0000
  C   C3704     1.0  0.77437  0.34462  0.01631  1.0000
  H   H4396     1.0  0.56032  0.27216  0.13831  1.0000
  N   N241      1.0  0.73889  0.39998  0.98908  1.0000
  C   C3705     1.0  0.56768  0.25307  0.06831  1.0000
  C   C3706     1.0  0.56368  0.24832  0.07941  1.0000
  H   H4397     1.0  0.67700  0.29044  0.12407  1.0000
  H   H4398     1.0  0.62163  0.26127  0.10303  1.0000
  H   H4399     1.0  0.56270  0.26054  0.06418  1.0000
  C   C3707     1.0  0.57015  0.23873  0.08480  1.0000
  H   H4400     1.0  0.82467  0.36194  0.17671  1.0000
  C   C3708     1.0  0.61036  0.24710  0.11910  1.0000
  H   H4401     1.0  0.55883  0.24012  0.17008  1.0000
  H   H4402     1.0  0.51878  0.29545  0.10178  1.0000
  H   H4403     1.0  0.61603  0.24499  0.12498  1.0000
  H   H4404     1.0  0.50463  0.29399  0.11719  1.0000
  H   H4405     1.0  0.57434  0.25368  0.03206  1.0000
  H   H4406     1.0  0.76513  0.34849  0.98725  1.0000
  H   H4407     1.0  0.74786  0.38435  0.16391  1.0000
  C   C3709     1.0  0.71345  0.36757  0.16399  1.0000
  S   S1009     1.0  0.55319  0.24757  0.14896  1.0000
  H   H4408     1.0  0.70651  0.35614  0.07661  1.0000
  C   C3710     1.0  0.51399  0.29308  0.09703  1.0000
  H   H4409     1.0  0.57495  0.25544  0.01772  1.0000
  C   C3711     1.0  0.59950  0.24379  0.10286  1.0000
  C   C3712     1.0  0.49974  0.26224  0.11198  1.0000
  H   H4410     1.0  0.51636  0.28385  0.09837  1.0000
  H   H4411     1.0  0.70049  0.33202  0.07213  1.0000
  H   H4412     1.0  0.76067  0.40220  0.01883  1.0000
  H   H4413     1.0  0.68790  0.30810  0.14143  1.0000
  C   C3713     1.0  0.59227  0.24635  0.09563  1.0000
  H   H4414     1.0  0.72509  0.39415  0.98743  1.0000
  C   C3714     1.0  0.60694  0.27977  0.13628  1.0000
  H   H4415     1.0  0.76865  0.43481  0.05984  1.0000
  C   C3715     1.0  0.73794  0.39152  0.14670  1.0000
  H   H4416     1.0  0.74947  0.48109  0.14393  1.0000
  H   H4417     1.0  0.59671  0.25649  0.14793  1.0000
  H   H4418     1.0  0.71328  0.35892  0.16784  1.0000
  C   C3716     1.0  0.60892  0.24871  0.10019  1.0000
  C   C3717     1.0  0.61074  0.25618  0.08972  1.0000
  C   C3718     1.0  0.78314  0.34346  0.99696  1.0000
  C   C3719     1.0  0.60350  0.25857  0.08250  1.0000
  H   H4419     1.0  0.72265  0.40494  0.15859  1.0000
  C   C3720     1.0  0.59429  0.25366  0.08545  1.0000
  H   H4420     1.0  0.72872  0.36635  0.16824  1.0000
  H   H4421     1.0  0.62767  0.24653  0.15048  1.0000
  H   H4422     1.0  0.60572  0.25588  0.11887  1.0000
  C   C3721     1.0  0.72919  0.39452  0.99392  1.0000
  C   C3722     1.0  0.57828  0.24841  0.06273  1.0000
  H   H4423     1.0  0.58619  0.25091  0.13917  1.0000
  H   H4424     1.0  0.64799  0.29685  0.13835  1.0000
  N   N242      1.0  0.57713  0.26750  0.14118  1.0000
  N   N243      1.0  0.61666  0.24557  0.10784  1.0000
  H   H4425     1.0  0.73158  0.47680  0.14653  1.0000
  C   C3723     1.0  0.74119  0.39631  0.00893  1.0000
  H   H4426     1.0  0.60518  0.26403  0.07443  1.0000
  C   C3724     1.0  0.75942  0.40664  0.00175  1.0000
  H   H4427     1.0  0.58884  0.25528  0.07974  1.0000
  C   C3725     1.0  0.63339  0.24431  0.14308  1.0000
  N   N244      1.0  0.58295  0.23905  0.02542  1.0000
  C   C3726     1.0  0.67501  0.29930  0.15114  1.0000
  H   H4428     1.0  0.76663  0.41043  0.99900  1.0000
  H   H4429     1.0  0.57869  0.25598  0.15689  1.0000
  C   C3727     1.0  0.76988  0.45010  0.07711  1.0000
  H   H4430     1.0  0.59537  0.24728  0.01357  1.0000
  Fe  Fe505     1.0  0.62166  0.24325  0.02753  1.0000
  S   S1010     1.0  0.58385  0.25512  0.04938  1.0000
  H   H4431     1.0  0.69516  0.34616  0.06528  1.0000
  H   H4432     1.0  0.77997  0.47762  0.13087  1.0000
  C   C3728     1.0  0.66565  0.24601  0.05589  1.0000
  H   H4433     1.0  0.77552  0.46731  0.12719  1.0000
  H   H4434     1.0  0.80023  0.34611  0.99209  1.0000
  N   N245      1.0  0.78285  0.34206  0.98597  1.0000
  H   H4435     1.0  0.72464  0.46709  0.13633  1.0000
  H   H4436     1.0  0.67047  0.27553  0.12666  1.0000
  N   N246      1.0  0.60443  0.29455  0.06857  1.0000
  C   C3729     1.0  0.61141  0.28674  0.07615  1.0000
  C   C3730     1.0  0.61197  0.29886  0.05811  1.0000
  C   C3731     1.0  0.59814  0.30425  0.07361  1.0000
  C   C3732     1.0  0.59671  0.28864  0.06684  1.0000
  C   C3733     1.0  0.58720  0.28638  0.07523  1.0000
  C   C3734     1.0  0.59881  0.28426  0.05723  1.0000
  C   C3735     1.0  0.57994  0.28064  0.07386  1.0000
  C   C3736     1.0  0.59152  0.27846  0.05598  1.0000
  C   C3737     1.0  0.58205  0.27677  0.06421  1.0000
  H   H4437     1.0  0.61727  0.29080  0.07790  1.0000
  H   H4438     1.0  0.60619  0.28344  0.08424  1.0000
  H   H4439     1.0  0.61649  0.27948  0.07256  1.0000
  H   H4440     1.0  0.61793  0.29205  0.05439  1.0000
  H   H4441     1.0  0.61730  0.30376  0.05948  1.0000
  H   H4442     1.0  0.60711  0.30430  0.05187  1.0000
  H   H4443     1.0  0.60379  0.30929  0.07417  1.0000
  H   H4444     1.0  0.59192  0.30980  0.06876  1.0000
  H   H4445     1.0  0.59363  0.30175  0.08227  1.0000
  H   H4446     1.0  0.58530  0.28888  0.08301  1.0000
  H   H4447     1.0  0.60607  0.28506  0.05059  1.0000
  H   H4448     1.0  0.57271  0.27907  0.08041  1.0000
  H   H4449     1.0  0.59326  0.27514  0.04861  1.0000
  H   H4450     1.0  0.57644  0.27231  0.06316  1.0000
  C   C3738     1.0  0.77542  0.42951  0.07978  1.0000
  C   C3739     1.0  0.77599  0.41923  0.07716  1.0000
  C   C3740     1.0  0.78153  0.42910  0.08770  1.0000
  C   C3741     1.0  0.78253  0.40929  0.08190  1.0000
  C   C3742     1.0  0.78799  0.41910  0.09244  1.0000
  C   C3743     1.0  0.78852  0.40923  0.08953  1.0000
  H   H4451     1.0  0.76478  0.45780  0.07284  1.0000
  H   H4452     1.0  0.76598  0.44936  0.05847  1.0000
  H   H4453     1.0  0.77131  0.41877  0.07147  1.0000
  H   H4454     1.0  0.78291  0.40158  0.07966  1.0000
  H   H4455     1.0  0.79247  0.41900  0.09855  1.0000
  H   H4456     1.0  0.79348  0.40152  0.09333  1.0000
  N   N247      1.0  0.75344  0.39942  0.10659  1.0000
  C   C3744     1.0  0.76552  0.39581  0.10668  1.0000
  C   C3745     1.0  0.75234  0.40816  0.09638  1.0000
  C   C3746     1.0  0.74759  0.40453  0.11625  1.0000
  C   C3747     1.0  0.74877  0.38976  0.10733  1.0000
  C   C3748     1.0  0.74987  0.38034  0.11621  1.0000
  C   C3749     1.0  0.74281  0.38946  0.09954  1.0000
  C   C3750     1.0  0.74552  0.37113  0.11708  1.0000
  C   C3751     1.0  0.73844  0.38023  0.10054  1.0000
  C   C3752     1.0  0.73978  0.37111  0.10929  1.0000
  H   H4457     1.0  0.77011  0.39158  0.09975  1.0000
  H   H4458     1.0  0.76932  0.40296  0.10581  1.0000
  H   H4459     1.0  0.76723  0.39003  0.11452  1.0000
  H   H4460     1.0  0.75678  0.40484  0.08880  1.0000
  H   H4461     1.0  0.75598  0.41527  0.09606  1.0000
  H   H4462     1.0  0.74343  0.41169  0.09595  1.0000
  H   H4463     1.0  0.74916  0.39887  0.12418  1.0000
  H   H4464     1.0  0.75032  0.41226  0.11575  1.0000
  H   H4465     1.0  0.73839  0.40679  0.11685  1.0000
  H   H4466     1.0  0.75417  0.37999  0.12252  1.0000
  H   H4467     1.0  0.74144  0.39622  0.09255  1.0000
  H   H4468     1.0  0.74665  0.36392  0.12378  1.0000
  H   H4469     1.0  0.73404  0.38008  0.09444  1.0000
  H   H4470     1.0  0.73644  0.36397  0.10998  1.0000
  H   H4471     1.0  0.73731  0.37756  0.17331  1.0000
  H   H4472     1.0  0.65080  0.25517  0.11981  1.0000
  H   H4473     1.0  0.66524  0.24598  0.07595  1.0000
  C   C3753     1.0  0.77395  0.34276  0.00621  1.0000
  C   C3754     1.0  0.58014  0.25811  0.13552  1.0000
  H   H4474     1.0  0.64564  0.23891  0.05934  1.0000
  Fe  Fe506     1.0  0.74659  0.36312  0.98243  1.0000
  H   H4475     1.0  0.63145  0.25046  0.09673  1.0000
  H   H4476     1.0  0.71149  0.33600  0.08715  1.0000
  C   C3755     1.0  0.82128  0.37078  0.17596  1.0000
  H   H4477     1.0  0.50409  0.31254  0.10207  1.0000
  H   H4478     1.0  0.57142  0.27001  0.15789  1.0000
  C   C3756     1.0  0.65260  0.28948  0.13471  1.0000
  H   H4479     1.0  0.78391  0.34916  0.02523  1.0000
  N   N248      1.0  0.73233  0.38813  0.15843  1.0000
  H   H4480     1.0  0.68205  0.33403  0.07605  1.0000
  H   H4481     1.0  0.74444  0.39321  0.02520  1.0000
  H   H4482     1.0  0.67400  0.26752  0.13962  1.0000
  H   H4483     1.0  0.73235  0.39822  0.14193  1.0000
  C   C3757     1.0  0.74297  0.47804  0.10882  1.0000
  H   H4484     1.0  0.67426  0.30234  0.15847  1.0000
  H   H4485     1.0  0.80044  0.34973  0.00975  1.0000
  C   C3758     1.0  0.82603  0.37701  0.18032  1.0000
  C   C3759     1.0  0.62541  0.25223  0.10441  1.0000
  N   N249      1.0  0.76021  0.33747  0.10038  1.0000
  C   C3760     1.0  0.75362  0.34836  0.09560  1.0000
  C   C3761     1.0  0.77221  0.33718  0.09512  1.0000
  C   C3762     1.0  0.75706  0.32853  0.09733  1.0000
  C   C3763     1.0  0.75775  0.33595  0.11260  1.0000
  C   C3764     1.0  0.74681  0.33522  0.11892  1.0000
  C   C3765     1.0  0.76593  0.33535  0.11854  1.0000
  C   C3766     1.0  0.74434  0.33347  0.13046  1.0000
  C   C3767     1.0  0.76333  0.33370  0.13010  1.0000
  C   C3768     1.0  0.75263  0.33258  0.13604  1.0000
  H   H4486     1.0  0.75542  0.35004  0.08638  1.0000
  H   H4487     1.0  0.74447  0.34888  0.09850  1.0000
  H   H4488     1.0  0.75560  0.35527  0.09790  1.0000
  H   H4489     1.0  0.77512  0.34395  0.09666  1.0000
  H   H4490     1.0  0.77376  0.33854  0.08593  1.0000
  H   H4491     1.0  0.77762  0.32908  0.09815  1.0000
  H   H4492     1.0  0.75919  0.32924  0.08820  1.0000
  H   H4493     1.0  0.76139  0.32016  0.10126  1.0000
  H   H4494     1.0  0.74793  0.32882  0.09991  1.0000
  H   H4495     1.0  0.74004  0.33596  0.11499  1.0000
  H   H4496     1.0  0.77440  0.33613  0.11450  1.0000
  H   H4497     1.0  0.73593  0.33286  0.13515  1.0000
  H   H4498     1.0  0.76963  0.33330  0.13453  1.0000
  H   H4499     1.0  0.75072  0.33115  0.14500  1.0000
  N   N250      1.0  0.82525  0.37651  0.13210  1.0000
  C   C3769     1.0  0.83303  0.37640  0.12114  1.0000
  C   C3770     1.0  0.83207  0.37182  0.14071  1.0000
  C   C3771     1.0  0.81759  0.36902  0.13378  1.0000
  C   C3772     1.0  0.81860  0.38794  0.13249  1.0000
  C   C3773     1.0  0.81795  0.39339  0.14101  1.0000
  C   C3774     1.0  0.81220  0.39383  0.12437  1.0000
  C   C3775     1.0  0.81126  0.40403  0.14133  1.0000
  C   C3776     1.0  0.80555  0.40448  0.12477  1.0000
  C   C3777     1.0  0.80506  0.40954  0.13326  1.0000
  H   H4500     1.0  0.83841  0.38254  0.11925  1.0000
  H   H4501     1.0  0.83862  0.36806  0.12082  1.0000
  H   H4502     1.0  0.82854  0.37841  0.11430  1.0000
  H   H4503     1.0  0.83800  0.37710  0.14000  1.0000
  H   H4504     1.0  0.83711  0.36331  0.14011  1.0000
  H   H4505     1.0  0.82670  0.37093  0.14922  1.0000
  H   H4506     1.0  0.81256  0.37157  0.12729  1.0000
  H   H4507     1.0  0.82218  0.36027  0.13373  1.0000
  H   H4508     1.0  0.81158  0.36898  0.14191  1.0000
  H   H4509     1.0  0.82232  0.38955  0.14768  1.0000
  H   H4510     1.0  0.81191  0.39007  0.11789  1.0000
  H   H4511     1.0  0.81072  0.40790  0.14805  1.0000
  H   H4512     1.0  0.80046  0.40865  0.11868  1.0000
  H   H4513     1.0  0.79968  0.41767  0.13371  1.0000
  N   N251      1.0  0.70607  0.40950  0.08227  1.0000
  C   C3778     1.0  0.69697  0.41455  0.09065  1.0000
  C   C3779     1.0  0.70135  0.40243  0.07811  1.0000
  C   C3780     1.0  0.71502  0.40232  0.08803  1.0000
  C   C3781     1.0  0.71076  0.41779  0.07285  1.0000
  C   C3782     1.0  0.71953  0.41424  0.06416  1.0000
  C   C3783     1.0  0.70683  0.42947  0.07192  1.0000
  C   C3784     1.0  0.72397  0.42185  0.05505  1.0000
  C   C3785     1.0  0.71125  0.43701  0.06271  1.0000
  C   C3786     1.0  0.71979  0.43322  0.05430  1.0000
  H   H4514     1.0  0.68986  0.41999  0.08695  1.0000
  H   H4515     1.0  0.69341  0.40805  0.09736  1.0000
  H   H4516     1.0  0.70005  0.41946  0.09469  1.0000
  H   H4517     1.0  0.69472  0.40755  0.07357  1.0000
  H   H4518     1.0  0.69764  0.39614  0.08499  1.0000
  H   H4519     1.0  0.70779  0.39769  0.07232  1.0000
  H   H4520     1.0  0.71903  0.40740  0.09093  1.0000
  H   H4521     1.0  0.71166  0.39626  0.09544  1.0000
  H   H4522     1.0  0.72168  0.39732  0.08260  1.0000
  H   H4523     1.0  0.72310  0.40554  0.06437  1.0000
  H   H4524     1.0  0.70052  0.43305  0.07827  1.0000
  H   H4525     1.0  0.73083  0.41891  0.04866  1.0000
  H   H4526     1.0  0.70836  0.44589  0.06233  1.0000
  H   H4527     1.0  0.72342  0.43912  0.04737  1.0000
  H   H4528     1.0  0.69868  0.39018  0.14915  1.0000
  C   C3787     1.0  0.59388  0.24237  0.02225  1.0000
  H   H4529     1.0  0.75458  0.43213  0.07736  1.0000
  H   H4530     1.0  0.61782  0.26008  0.08682  1.0000
  H   H4531     1.0  0.66212  0.29047  0.15887  1.0000
  H   H4532     1.0  0.77791  0.47975  0.11708  1.0000
  C   C3788     1.0  0.75535  0.47016  0.12165  1.0000
  S   S1011     1.0  0.54398  0.24463  0.12302  1.0000
  H   H4533     1.0  0.74074  0.38434  0.14255  1.0000
  C   C3789     1.0  0.79284  0.34568  0.99865  1.0000
  H   H4534     1.0  0.61451  0.28273  0.13501  1.0000
  C   C3790     1.0  0.79311  0.34764  0.00875  1.0000
  H   H4535     1.0  0.75041  0.38486  0.98600  1.0000
  C   C3791     1.0  0.78385  0.34722  0.01753  1.0000
  N   N252      1.0  0.76834  0.43993  0.07474  1.0000
  H   H4536     1.0  0.67318  0.24672  0.05824  1.0000
  C   C3792     1.0  0.69770  0.35555  0.08079  1.0000
  H   H4537     1.0  0.68946  0.30167  0.12452  1.0000
  C   C3793     1.0  0.75644  0.43934  0.07915  1.0000
  C   C3794     1.0  0.70235  0.33636  0.09025  1.0000
  C   C3795     1.0  0.66694  0.33751  0.08768  1.0000
  H   H4538     1.0  0.80931  0.40235  0.17344  1.0000
  H   H4539     1.0  0.75871  0.46802  0.14243  1.0000
  C   C3796     1.0  0.72366  0.47603  0.13400  1.0000
  H   H4540     1.0  0.58135  0.28883  0.13021  1.0000
  C   C3797     1.0  0.60639  0.26891  0.14192  1.0000
  C   C3798     1.0  0.72818  0.39812  0.16336  1.0000
  C   C3799     1.0  0.74092  0.38036  0.16436  1.0000
  H   H4541     1.0  0.66138  0.26722  0.13596  1.0000
  H   H4542     1.0  0.69209  0.36190  0.07574  1.0000
  C   C3800     1.0  0.72283  0.38325  0.15895  1.0000
  H   H4543     1.0  0.71370  0.39833  0.14964  1.0000
  H   H4544     1.0  0.65963  0.24147  0.09587  1.0000
  C   C3801     1.0  0.71390  0.38972  0.15377  1.0000
  H   H4545     1.0  0.65663  0.29271  0.12599  1.0000
  C   C3802     1.0  0.63898  0.25218  0.13533  1.0000
  C   C3803     1.0  0.74894  0.46878  0.11503  1.0000
  H   H4546     1.0  0.70096  0.32778  0.09186  1.0000
  S   S1012     1.0  0.62407  0.24307  0.00932  1.0000
  C   C3804     1.0  0.56779  0.27579  0.13676  1.0000
  C   C3805     1.0  0.74445  0.40087  0.99743  1.0000
  S   S1013     1.0  0.61317  0.24889  0.05748  1.0000
  C   C3806     1.0  0.59670  0.26500  0.14353  1.0000
  C   C3807     1.0  0.66655  0.34796  0.10085  1.0000
  H   H4547     1.0  0.64936  0.27190  0.15169  1.0000
  H   H4548     1.0  0.65853  0.25275  0.05846  1.0000
  H   H4549     1.0  0.56555  0.24740  0.02803  1.0000
  H   H4550     1.0  0.61295  0.24730  0.99158  1.0000
  C   C3808     1.0  0.72764  0.48158  0.13974  1.0000
  C   C3809     1.0  0.74344  0.48868  0.10914  1.0000
  H   H4551     1.0  0.56499  0.28308  0.14074  1.0000
  H   H4552     1.0  0.73762  0.47701  0.10407  1.0000
  H   H4553     1.0  0.74490  0.37290  0.16068  1.0000
  H   H4554     1.0  0.72908  0.41671  0.98811  1.0000
  C   C3810     1.0  0.70520  0.38514  0.15349  1.0000
  C   C3811     1.0  0.58721  0.27193  0.13951  1.0000
  C   C3812     1.0  0.68361  0.29891  0.13202  1.0000
  H   H4555     1.0  0.73521  0.40173  0.16346  1.0000
  H   H4556     1.0  0.57013  0.27875  0.12762  1.0000
  C   C3813     1.0  0.58804  0.28299  0.13377  1.0000
  H   H4557     1.0  0.56481  0.26081  0.15482  1.0000
  H   H4558     1.0  0.66223  0.35132  0.10816  1.0000
  C   C3814     1.0  0.59778  0.28680  0.13225  1.0000
  H   H4559     1.0  0.57267  0.25488  0.13622  1.0000
  H   H4560     1.0  0.64867  0.28391  0.15639  1.0000
  N   N253      1.0  0.66087  0.28213  0.14115  1.0000
  H   H4561     1.0  0.68152  0.35267  0.09997  1.0000
  C   C3815     1.0  0.64643  0.24919  0.12584  1.0000
  H   H4562     1.0  0.51640  0.25759  0.08295  1.0000
  H   H4563     1.0  0.76617  0.34120  0.00579  1.0000
  H   H4564     1.0  0.72265  0.39910  0.99980  1.0000
  H   H4565     1.0  0.66756  0.24784  0.04666  1.0000
  C   C3816     1.0  0.77453  0.47644  0.12599  1.0000
  H   H4566     1.0  0.61354  0.26350  0.14508  1.0000
  N   N254      1.0  0.76271  0.48214  0.12941  1.0000
  C   C3817     1.0  0.70024  0.34095  0.07143  1.0000
  C   C3818     1.0  0.75602  0.40207  0.01294  1.0000
  H   H4567     1.0  0.70903  0.34194  0.06789  1.0000
  H   H4568     1.0  0.70003  0.33877  0.09840  1.0000
  C   C3819     1.0  0.66805  0.29247  0.15122  1.0000
  H   H4569     1.0  0.69638  0.35805  0.08875  1.0000
  C   C3820     1.0  0.66120  0.34236  0.09668  1.0000
  C   C3821     1.0  0.67807  0.33825  0.08279  1.0000
  H   H4570     1.0  0.65273  0.34143  0.10069  1.0000
  N   N255      1.0  0.69578  0.34421  0.08232  1.0000
  C   C3822     1.0  0.67653  0.29230  0.13192  1.0000
  H   H4571     1.0  0.66285  0.33280  0.08476  1.0000
  C   C3823     1.0  0.68378  0.34395  0.08681  1.0000
  C   C3824     1.0  0.72230  0.37200  0.16416  1.0000
  H   H4572     1.0  0.66044  0.27217  0.15771  1.0000
  H   H4573     1.0  0.76710  0.34452  0.02310  1.0000
  H   H4574     1.0  0.59439  0.24754  0.02773  1.0000
  C   C3825     1.0  0.57402  0.24932  0.02577  1.0000
  C   C3826     1.0  0.82179  0.38847  0.17945  1.0000
  C   C3827     1.0  0.81273  0.39352  0.17414  1.0000
  H   H4575     1.0  0.64087  0.24314  0.98456  1.0000
  H   H4576     1.0  0.78903  0.32436  0.98988  1.0000
  H   H4577     1.0  0.50130  0.31269  0.08901  1.0000
  H   H4578     1.0  0.60423  0.24165  0.12282  1.0000
  S   S1014     1.0  0.63455  0.24247  0.03702  1.0000
  C   C3828     1.0  0.66140  0.23888  0.07955  1.0000
  C   C3829     1.0  0.77169  0.34112  0.98525  1.0000
  H   H4579     1.0  0.79972  0.33218  0.98318  1.0000
  C   C3830     1.0  0.79100  0.33183  0.98348  1.0000
  C   C3831     1.0  0.50034  0.25845  0.09427  1.0000
  C   C3832     1.0  0.49866  0.29291  0.11284  1.0000
  H   H4580     1.0  0.75678  0.40959  0.98546  1.0000
  C   C3833     1.0  0.50001  0.28781  0.08603  1.0000
  C   C3834     1.0  0.49921  0.30931  0.09811  1.0000
  H   H4581     1.0  0.49868  0.28388  0.11495  1.0000
  C   C3835     1.0  0.73479  0.41121  0.98258  1.0000
  C   C3836     1.0  0.90425  0.25054  0.35523  1.0000
  Fe  Fe507     1.0  0.95201  0.38618  0.22685  1.0000
  S   S1015     1.0  0.94623  0.38095  0.24523  1.0000
  S   S1016     1.0  0.97023  0.38686  0.21940  1.0000
  Fe  Fe508     1.0  0.92801  0.39137  0.22280  1.0000
  S   S1017     1.0  0.92072  0.38660  0.24089  1.0000
  S   S1018     1.0  0.91523  0.39978  0.21211  1.0000
  Fe  Fe509     1.0  0.93222  0.39586  0.24318  1.0000
  S   S1019     1.0  0.92617  0.40727  0.25511  1.0000
  Fe  Fe510     1.0  0.93544  0.37224  0.24093  1.0000
  S   S1020     1.0  0.93314  0.35504  0.24969  1.0000
  S   S1021     1.0  0.93866  0.40172  0.22504  1.0000
  S   S1022     1.0  0.94214  0.37627  0.22254  1.0000
  Fe  Fe511     1.0  0.86816  0.44515  0.27211  1.0000
  S   S1023     1.0  0.87050  0.43806  0.25737  1.0000
  S   S1024     1.0  0.87080  0.43474  0.28875  1.0000
  Fe  Fe512     1.0  0.86118  0.46910  0.25999  1.0000
  S   S1025     1.0  0.86248  0.46396  0.24411  1.0000
  Fe  Fe513     1.0  0.85439  0.44994  0.25479  1.0000
  S   S1026     1.0  0.84161  0.44220  0.25197  1.0000
  Fe  Fe514     1.0  0.87837  0.45253  0.24796  1.0000
  S   S1027     1.0  0.89392  0.45017  0.23480  1.0000
  S   S1028     1.0  0.85139  0.45616  0.27041  1.0000
  S   S1029     1.0  0.87772  0.45852  0.26298  1.0000
  Fe  Fe515     1.0  0.86295  0.37397  0.29916  1.0000
  S   S1030     1.0  0.87789  0.37318  0.28510  1.0000
  S   S1031     1.0  0.85293  0.39012  0.30386  1.0000
  Fe  Fe516     1.0  0.86425  0.34897  0.30455  1.0000
  S   S1032     1.0  0.87913  0.34632  0.29064  1.0000
  S   S1033     1.0  0.85788  0.33350  0.31444  1.0000
  Fe  Fe517     1.0  0.88532  0.35799  0.29646  1.0000
  S   S1034     1.0  0.90320  0.35370  0.29792  1.0000
  Fe  Fe518     1.0  0.87022  0.36165  0.28058  1.0000
  S   S1035     1.0  0.87232  0.36276  0.26240  1.0000
  S   S1036     1.0  0.87109  0.35967  0.31112  1.0000
  S   S1037     1.0  0.85462  0.36343  0.29387  1.0000
  Fe  Fe519     1.0  0.86173  0.38849  0.20388  1.0000
  S   S1038     1.0  0.85478  0.39643  0.21852  1.0000
  S   S1039     1.0  0.88006  0.37964  0.20108  1.0000
  Fe  Fe520     1.0  0.83901  0.39521  0.19656  1.0000
  S   S1040     1.0  0.83078  0.40406  0.21073  1.0000
  H   H4582     1.0  0.82679  0.31766  0.33178  1.0000
  Fe  Fe521     1.0  0.84638  0.41064  0.20697  1.0000
  S   S1041     1.0  0.84834  0.42784  0.20659  1.0000
  Fe  Fe522     1.0  0.84000  0.38907  0.22097  1.0000
  S   S1042     1.0  0.83194  0.38139  0.23825  1.0000
  S   S1043     1.0  0.85405  0.40316  0.19193  1.0000
  S   S1044     1.0  0.84750  0.37978  0.20723  1.0000
  H   H4583     1.0  0.84505  0.31485  0.37209  1.0000
  Fe  Fe523     1.0  0.87982  0.26636  0.36274  1.0000
  H   H4584     1.0  0.89231  0.47867  0.29076  1.0000
  C   C3837     1.0  0.89175  0.29550  0.33574  1.0000
  C   C3838     1.0  0.89211  0.30632  0.32964  1.0000
  H   H4585     1.0  0.88391  0.29357  0.34088  1.0000
  H   H4586     1.0  0.83989  0.29276  0.37524  1.0000
  Fe  Fe524     1.0  0.86948  0.28930  0.36757  1.0000
  S   S1045     1.0  0.86857  0.30782  0.36151  1.0000
  H   H4587     1.0  0.83083  0.32210  0.37678  1.0000
  S   S1046     1.0  0.86432  0.27882  0.35923  1.0000
  H   H4588     1.0  0.88191  0.45264  0.30627  1.0000
  H   H4589     1.0  0.83326  0.33529  0.32673  1.0000
  C   C3839     1.0  0.86138  0.32638  0.32730  1.0000
  C   C3840     1.0  0.86006  0.31537  0.33155  1.0000
  C   C3841     1.0  0.86232  0.30956  0.34197  1.0000
  C   C3842     1.0  0.86578  0.31478  0.34831  1.0000
  C   C3843     1.0  0.86707  0.32582  0.34408  1.0000
  C   C3844     1.0  0.86498  0.33157  0.33357  1.0000
  H   H4590     1.0  0.85722  0.31133  0.32677  1.0000
  H   H4591     1.0  0.86134  0.30108  0.34504  1.0000
  H   H4592     1.0  0.86971  0.32993  0.34895  1.0000
  H   H4593     1.0  0.86588  0.34010  0.33044  1.0000
  C   C3845     1.0  0.86069  0.36629  0.25631  1.0000
  C   C3846     1.0  0.84970  0.36856  0.26245  1.0000
  C   C3847     1.0  0.84073  0.37264  0.25697  1.0000
  C   C3848     1.0  0.84279  0.37468  0.24537  1.0000
  C   C3849     1.0  0.85373  0.37199  0.23935  1.0000
  C   C3850     1.0  0.86263  0.36776  0.24480  1.0000
  H   H4594     1.0  0.84815  0.36729  0.27136  1.0000
  H   H4595     1.0  0.83224  0.37445  0.26169  1.0000
  H   H4596     1.0  0.85539  0.37324  0.23043  1.0000
  H   H4597     1.0  0.87107  0.36599  0.24001  1.0000
  H   H4598     1.0  0.92005  0.30174  0.31763  1.0000
  H   H4599     1.0  0.83932  0.34123  0.34044  1.0000
  H   H4600     1.0  0.83930  0.32993  0.35893  1.0000
  H   H4601     1.0  0.86849  0.24596  0.35767  1.0000
  H   H4602     1.0  0.89531  0.41742  0.24872  1.0000
  H   H4603     1.0  0.88438  0.31248  0.33016  1.0000
  C   C3851     1.0  0.97987  0.36574  0.24368  1.0000
  H   H4604     1.0  0.91786  0.38016  0.20348  1.0000
  C   C3852     1.0  0.89941  0.41661  0.18953  1.0000
  S   S1047     1.0  0.83857  0.26931  0.38008  1.0000
  C   C3853     1.0  0.82079  0.30791  0.37322  1.0000
  H   H4605     1.0  0.89936  0.47375  0.27320  1.0000
  C   C3854     1.0  0.84360  0.43836  0.23925  1.0000
  C   C3855     1.0  0.84987  0.44360  0.22946  1.0000
  C   C3856     1.0  0.85097  0.44054  0.21943  1.0000
  C   C3857     1.0  0.84633  0.43183  0.21922  1.0000
  C   C3858     1.0  0.84014  0.42653  0.22904  1.0000
  C   C3859     1.0  0.83857  0.42998  0.23895  1.0000
  H   H4606     1.0  0.85352  0.45028  0.22955  1.0000
  H   H4607     1.0  0.85536  0.44498  0.21178  1.0000
  H   H4608     1.0  0.83634  0.41997  0.22892  1.0000
  H   H4609     1.0  0.83345  0.42614  0.24639  1.0000
  C   C3860     1.0  0.86643  0.42202  0.29274  1.0000
  C   C3861     1.0  0.85850  0.42004  0.30260  1.0000
  C   C3862     1.0  0.85470  0.41009  0.30600  1.0000
  C   C3863     1.0  0.85906  0.40183  0.29980  1.0000
  C   C3864     1.0  0.86728  0.40361  0.29006  1.0000
  C   C3865     1.0  0.87085  0.41380  0.28644  1.0000
  H   H4610     1.0  0.85516  0.42628  0.30756  1.0000
  H   H4611     1.0  0.84836  0.40877  0.31352  1.0000
  H   H4612     1.0  0.87063  0.39734  0.28514  1.0000
  H   H4613     1.0  0.87710  0.41522  0.27887  1.0000
  C   C3866     1.0  0.92531  0.35465  0.26329  1.0000
  C   C3867     1.0  0.92186  0.36421  0.26771  1.0000
  C   C3868     1.0  0.91506  0.36393  0.27838  1.0000
  C   C3869     1.0  0.91169  0.35410  0.28460  1.0000
  C   C3870     1.0  0.91511  0.34457  0.28016  1.0000
  C   C3871     1.0  0.92196  0.34483  0.26954  1.0000
  H   H4614     1.0  0.92444  0.37181  0.26294  1.0000
  H   H4615     1.0  0.91241  0.37131  0.28180  1.0000
  H   H4616     1.0  0.91244  0.33700  0.28490  1.0000
  H   H4617     1.0  0.92454  0.33747  0.26609  1.0000
  C   C3872     1.0  0.90550  0.39303  0.21055  1.0000
  C   C3873     1.0  0.89405  0.39793  0.21284  1.0000
  C   C3874     1.0  0.88621  0.39387  0.21002  1.0000
  C   C3875     1.0  0.88973  0.38481  0.20488  1.0000
  C   C3876     1.0  0.90117  0.37976  0.20274  1.0000
  C   C3877     1.0  0.90903  0.38384  0.20558  1.0000
  H   H4618     1.0  0.89123  0.40515  0.21643  1.0000
  H   H4619     1.0  0.87751  0.39801  0.21149  1.0000
  H   H4620     1.0  0.89512  0.33246  0.30352  1.0000
  C   C3878     1.0  0.89961  0.46494  0.27517  1.0000
  C   C3879     1.0  0.91786  0.41980  0.24954  1.0000
  C   C3880     1.0  0.90912  0.42552  0.25655  1.0000
  C   C3881     1.0  0.90187  0.43507  0.25207  1.0000
  C   C3882     1.0  0.90352  0.43900  0.24058  1.0000
  C   C3883     1.0  0.91251  0.43353  0.23362  1.0000
  C   C3884     1.0  0.91961  0.42392  0.23809  1.0000
  H   H4621     1.0  0.90766  0.42227  0.26541  1.0000
  H   H4622     1.0  0.89488  0.43921  0.25751  1.0000
  H   H4623     1.0  0.91384  0.43656  0.22473  1.0000
  H   H4624     1.0  0.92644  0.41978  0.23262  1.0000
  H   H4625     1.0  0.82652  0.43817  0.27305  1.0000
  C   C3885     1.0  0.97779  0.39925  0.24180  1.0000
  C   C3886     1.0  0.97228  0.39453  0.23672  1.0000
  C   C3887     1.0  0.97735  0.39197  0.22635  1.0000
  C   C3888     1.0  0.98822  0.39367  0.22135  1.0000
  H   H4626     1.0  0.89471  0.44810  0.19898  1.0000
  H   H4627     1.0  0.97371  0.40139  0.24973  1.0000
  H   H4628     1.0  0.96404  0.39300  0.24076  1.0000
  C   C3889     1.0  0.89477  0.32400  0.30877  1.0000
  C   C3890     1.0  0.91151  0.28960  0.32865  1.0000
  C   C3891     1.0  0.83046  0.41480  0.27759  1.0000
  C   C3892     1.0  0.91197  0.30044  0.32257  1.0000
  C   C3893     1.0  0.89311  0.44825  0.28581  1.0000
  H   H4629     1.0  0.91689  0.31738  0.30372  1.0000
  N   N256      1.0  0.80685  0.38154  0.21733  1.0000
  C   C3894     1.0  0.80389  0.39343  0.21175  1.0000
  C   C3895     1.0  0.80481  0.38105  0.22940  1.0000
  C   C3896     1.0  0.81898  0.37727  0.21346  1.0000
  C   C3897     1.0  0.80046  0.37497  0.21454  1.0000
  C   C3898     1.0  0.79380  0.36801  0.22270  1.0000
  C   C3899     1.0  0.80103  0.37517  0.20330  1.0000
  H   H4630     1.0  0.96434  0.35931  0.26962  1.0000
  C   C3900     1.0  0.79530  0.36889  0.20037  1.0000
  H   H4631     1.0  0.98693  0.37927  0.27352  1.0000
  H   H4632     1.0  0.79470  0.39676  0.21380  1.0000
  H   H4633     1.0  0.80809  0.39870  0.21417  1.0000
  H   H4634     1.0  0.80658  0.39479  0.20257  1.0000
  H   H4635     1.0  0.79582  0.38417  0.23290  1.0000
  H   H4636     1.0  0.80961  0.38626  0.23116  1.0000
  H   H4637     1.0  0.80768  0.37246  0.23406  1.0000
  H   H4638     1.0  0.82148  0.37846  0.20428  1.0000
  H   H4639     1.0  0.82406  0.38163  0.21592  1.0000
  H   H4640     1.0  0.82150  0.36823  0.21704  1.0000
  H   H4641     1.0  0.79294  0.36720  0.23147  1.0000
  H   H4642     1.0  0.80599  0.38015  0.19666  1.0000
  H   H4643     1.0  0.92654  0.25922  0.37127  1.0000
  C   C3901     1.0  0.99302  0.38125  0.26561  1.0000
  H   H4644     1.0  0.87795  0.46605  0.30938  1.0000
  C   C3902     1.0  0.91456  0.24901  0.34778  1.0000
  H   H4645     1.0  0.88272  0.48271  0.28152  1.0000
  H   H4646     1.0  0.81972  0.42698  0.26699  1.0000
  C   C3903     1.0  0.90142  0.28714  0.33523  1.0000
  C   C3904     1.0  0.83253  0.31676  0.35671  1.0000
  H   H4647     1.0  0.90465  0.39956  0.25897  1.0000
  C   C3905     1.0  0.83514  0.39613  0.27357  1.0000
  H   H4648     1.0  0.84136  0.40007  0.28546  1.0000
  H   H4649     1.0  0.81538  0.43322  0.28391  1.0000
  N   N257      1.0  0.83171  0.42240  0.28385  1.0000
  H   H4650     1.0  0.84939  0.41574  0.28224  1.0000
  N   N258      1.0  0.90230  0.32076  0.31666  1.0000
  C   C3906     1.0  0.89823  0.32848  0.32439  1.0000
  C   C3907     1.0  0.91357  0.32243  0.31019  1.0000
  H   H4651     1.0  0.88939  0.32862  0.32881  1.0000
  H   H4652     1.0  0.89852  0.33724  0.31993  1.0000
  H   H4653     1.0  0.90338  0.32613  0.33076  1.0000
  H   H4654     1.0  0.91337  0.33125  0.30572  1.0000
  H   H4655     1.0  0.91962  0.32042  0.31565  1.0000
  C   C3908     1.0  0.82905  0.31364  0.34859  1.0000
  H   H4656     1.0  0.85761  0.40873  0.23429  1.0000
  H   H4657     1.0  0.87850  0.38435  0.25965  1.0000
  C   C3909     1.0  0.82867  0.39994  0.26557  1.0000
  C   C3910     1.0  0.82903  0.41766  0.29595  1.0000
  H   H4658     1.0  0.82949  0.42338  0.30089  1.0000
  H   H4659     1.0  0.99478  0.37169  0.23907  1.0000
  H   H4660     1.0  0.89052  0.41913  0.22440  1.0000
  H   H4661     1.0  0.90658  0.43815  0.20333  1.0000
  H   H4662     1.0  0.98863  0.38848  0.26015  1.0000
  C   C3911     1.0  0.78806  0.36177  0.21969  1.0000
  H   H4663     1.0  0.88748  0.44385  0.29234  1.0000
  C   C3912     1.0  0.83974  0.29845  0.36698  1.0000
  C   C3913     1.0  0.84342  0.42379  0.28063  1.0000
  H   H4664     1.0  0.88583  0.32429  0.31301  1.0000
  C   C3914     1.0  0.87214  0.46614  0.29035  1.0000
  H   H4665     1.0  0.82798  0.39432  0.26093  1.0000
  H   H4666     1.0  0.84847  0.29933  0.36294  1.0000
  H   H4667     1.0  0.93236  0.24277  0.34592  1.0000
  H   H4668     1.0  0.83500  0.40979  0.29849  1.0000
  C   C3915     1.0  0.82312  0.41105  0.26345  1.0000
  H   H4669     1.0  0.83709  0.29405  0.36211  1.0000
  S   S1048     1.0  0.87137  0.25746  0.37908  1.0000
  C   C3916     1.0  0.83620  0.33363  0.34286  1.0000
  C   C3917     1.0  0.83608  0.40343  0.27947  1.0000
  C   C3918     1.0  0.83279  0.33029  0.33509  1.0000
  H   H4670     1.0  0.86762  0.38681  0.24638  1.0000
  C   C3919     1.0  0.98848  0.40132  0.23664  1.0000
  C   C3920     1.0  0.82402  0.41844  0.26928  1.0000
  H   H4671     1.0  0.82049  0.41586  0.29861  1.0000
  C   C3921     1.0  0.90222  0.30918  0.32293  1.0000
  C   C3922     1.0  0.78881  0.36221  0.20856  1.0000
  H   H4672     1.0  0.89577  0.24755  0.37243  1.0000
  H   H4673     1.0  0.99225  0.39162  0.21336  1.0000
  H   H4674     1.0  0.91502  0.25217  0.33899  1.0000
  H   H4675     1.0  0.86522  0.47088  0.29582  1.0000
  H   H4676     1.0  0.81820  0.41400  0.25711  1.0000
  N   N259      1.0  0.95367  0.42776  0.23318  1.0000
  C   C3923     1.0  0.96102  0.42315  0.22357  1.0000
  C   C3924     1.0  0.96076  0.43184  0.23799  1.0000
  C   C3925     1.0  0.94930  0.41851  0.24152  1.0000
  C   C3926     1.0  0.94415  0.43684  0.23027  1.0000
  C   C3927     1.0  0.94201  0.44042  0.21940  1.0000
  C   C3928     1.0  0.93654  0.44229  0.23852  1.0000
  C   C3929     1.0  0.93288  0.44898  0.21699  1.0000
  C   C3930     1.0  0.92739  0.45076  0.23603  1.0000
  C   C3931     1.0  0.92558  0.45412  0.22529  1.0000
  H   H4677     1.0  0.95650  0.41910  0.22002  1.0000
  H   H4678     1.0  0.96465  0.42966  0.21696  1.0000
  H   H4679     1.0  0.96827  0.41660  0.22595  1.0000
  H   H4680     1.0  0.96835  0.42535  0.23972  1.0000
  H   H4681     1.0  0.95628  0.43422  0.24600  1.0000
  H   H4682     1.0  0.96371  0.43922  0.23221  1.0000
  H   H4683     1.0  0.94443  0.41479  0.23806  1.0000
  H   H4684     1.0  0.95611  0.41174  0.24438  1.0000
  H   H4685     1.0  0.94371  0.42112  0.24908  1.0000
  H   H4686     1.0  0.94719  0.43668  0.21261  1.0000
  H   H4687     1.0  0.93748  0.43986  0.24701  1.0000
  C   C3932     1.0  0.90771  0.45867  0.26813  1.0000
  H   H4688     1.0  0.92148  0.45457  0.24251  1.0000
  C   C3933     1.0  0.92008  0.26582  0.37504  1.0000
  N   N260      1.0  0.90177  0.36247  0.23902  1.0000
  C   C3934     1.0  0.91287  0.36152  0.23128  1.0000
  C   C3935     1.0  0.89545  0.37415  0.23680  1.0000
  C   C3936     1.0  0.90375  0.35990  0.25041  1.0000
  C   C3937     1.0  0.89545  0.35510  0.23738  1.0000
  C   C3938     1.0  0.89139  0.34656  0.24601  1.0000
  C   C3939     1.0  0.89280  0.35665  0.22694  1.0000
  C   C3940     1.0  0.88483  0.34026  0.24430  1.0000
  C   C3941     1.0  0.88624  0.35033  0.22531  1.0000
  C   C3942     1.0  0.88221  0.34217  0.23399  1.0000
  H   H4689     1.0  0.91221  0.36415  0.22246  1.0000
  H   H4690     1.0  0.91793  0.36682  0.23244  1.0000
  H   H4691     1.0  0.91781  0.35281  0.23264  1.0000
  H   H4692     1.0  0.89424  0.37702  0.22817  1.0000
  H   H4693     1.0  0.89985  0.38000  0.23804  1.0000
  H   H4694     1.0  0.88700  0.37505  0.24236  1.0000
  H   H4695     1.0  0.90847  0.36564  0.25132  1.0000
  H   H4696     1.0  0.89580  0.36079  0.25673  1.0000
  H   H4697     1.0  0.90882  0.35133  0.25253  1.0000
  H   H4698     1.0  0.89282  0.34484  0.25427  1.0000
  H   H4699     1.0  0.89554  0.36297  0.21999  1.0000
  H   H4700     1.0  0.88153  0.33405  0.25110  1.0000
  H   H4701     1.0  0.88408  0.35197  0.21731  1.0000
  H   H4702     1.0  0.87695  0.33742  0.23277  1.0000
  H   H4703     1.0  0.90164  0.43324  0.28000  1.0000
  C   C3943     1.0  0.90121  0.44207  0.27873  1.0000
  H   H4704     1.0  0.89611  0.38316  0.26426  1.0000
  H   H4705     1.0  0.90400  0.37281  0.19868  1.0000
  C   C3944     1.0  0.82923  0.32031  0.33794  1.0000
  C   C3945     1.0  0.83617  0.32698  0.35350  1.0000
  C   C3946     1.0  0.97117  0.36190  0.26309  1.0000
  H   H4706     1.0  0.91231  0.26634  0.37231  1.0000
  H   H4707     1.0  0.85332  0.39400  0.24866  1.0000
  H   H4708     1.0  0.87068  0.45756  0.29219  1.0000
  H   H4709     1.0  0.82632  0.30593  0.35036  1.0000
  C   C3947     1.0  0.99380  0.39829  0.22649  1.0000
  H   H4710     1.0  0.91900  0.28303  0.32824  1.0000
  N   N261      1.0  0.89049  0.43396  0.21153  1.0000
  C   C3948     1.0  0.89771  0.44217  0.20623  1.0000
  C   C3949     1.0  0.87944  0.44008  0.21674  1.0000
  C   C3950     1.0  0.89539  0.42572  0.22051  1.0000
  C   C3951     1.0  0.88986  0.42815  0.20327  1.0000
  H   H4711     1.0  0.90794  0.42234  0.19823  1.0000
  C   C3952     1.0  0.90852  0.44726  0.26992  1.0000
  H   H4712     1.0  0.89253  0.46009  0.30482  1.0000
  H   H4713     1.0  0.87245  0.40351  0.23131  1.0000
  S   S1049     1.0  0.99459  0.40820  0.24289  1.0000
  H   H4714     1.0  0.79595  0.36916  0.19169  1.0000
  H   H4715     1.0  0.89783  0.44711  0.21211  1.0000
  C   C3953     1.0  0.83621  0.31391  0.37542  1.0000
  H   H4716     1.0  0.87524  0.44638  0.21041  1.0000
  H   H4717     1.0  0.88021  0.44465  0.22265  1.0000
  H   H4718     1.0  0.87382  0.43433  0.22162  1.0000
  H   H4719     1.0  0.91472  0.44244  0.26440  1.0000
  H   H4720     1.0  0.89545  0.42966  0.22718  1.0000
  C   C3954     1.0  0.85252  0.24180  0.36352  1.0000
  C   C3955     1.0  0.98851  0.36886  0.24609  1.0000
  H   H4721     1.0  0.98663  0.25211  0.37931  1.0000
  C   C3956     1.0  0.89209  0.45986  0.28432  1.0000
  H   H4722     1.0  0.86010  0.38891  0.26005  1.0000
  C   C3957     1.0  0.91346  0.24053  0.37048  1.0000
  N   N262      1.0  0.83234  0.30947  0.36790  1.0000
  C   C3958     1.0  0.97125  0.36224  0.25214  1.0000
  C   C3959     1.0  0.87954  0.42738  0.20151  1.0000
  H   H4723     1.0  0.78440  0.35733  0.20624  1.0000
  H   H4724     1.0  0.90108  0.27873  0.33991  1.0000
  H   H4725     1.0  0.78304  0.35650  0.22603  1.0000
  H   H4726     1.0  0.82531  0.43904  0.28687  1.0000
  H   H4727     1.0  0.91330  0.46272  0.26118  1.0000
  H   H4728     1.0  0.83945  0.38746  0.27524  1.0000
  H   H4729     1.0  0.89711  0.31810  0.30314  1.0000
  S   S1050     1.0  0.89214  0.25758  0.35019  1.0000
  S   S1051     1.0  0.88578  0.27740  0.36963  1.0000
  H   H4730     1.0  0.84487  0.42929  0.28526  1.0000
  H   H4731     1.0  0.84576  0.42751  0.27166  1.0000
  C   C3960     1.0  0.82436  0.43366  0.28182  1.0000
  C   C3961     1.0  0.97978  0.36497  0.26561  1.0000
  H   H4732     1.0  0.87128  0.46999  0.28165  1.0000
  H   H4733     1.0  0.87739  0.41935  0.24422  1.0000
  H   H4734     1.0  0.87152  0.43117  0.20592  1.0000
  H   H4735     1.0  0.86652  0.41717  0.23427  1.0000
  C   C3962     1.0  0.88397  0.46101  0.30356  1.0000
  N   N263      1.0  0.86517  0.40343  0.24856  1.0000
  C   C3963     1.0  0.85669  0.41090  0.25525  1.0000
  C   C3964     1.0  0.86552  0.40843  0.23662  1.0000
  C   C3965     1.0  0.86143  0.39283  0.25105  1.0000
  C   C3966     1.0  0.87620  0.40202  0.25113  1.0000
  C   C3967     1.0  0.88135  0.41124  0.24831  1.0000
  C   C3968     1.0  0.88183  0.39180  0.25696  1.0000
  C   C3969     1.0  0.89155  0.41028  0.25098  1.0000
  C   C3970     1.0  0.89200  0.39097  0.25969  1.0000
  C   C3971     1.0  0.89682  0.40020  0.25674  1.0000
  H   H4736     1.0  0.85826  0.41946  0.25298  1.0000
  H   H4737     1.0  0.84813  0.41170  0.25411  1.0000
  H   H4738     1.0  0.85668  0.40768  0.26422  1.0000
  C   C3972     1.0  0.88406  0.47800  0.28989  1.0000
  H   H4739     1.0  0.97933  0.36462  0.27422  1.0000
  Fe  Fe525     1.0  0.85636  0.27104  0.37648  1.0000
  C   C3973     1.0  0.90371  0.24641  0.36661  1.0000
  H   H4740     1.0  0.91831  0.46051  0.22349  1.0000
  H   H4741     1.0  0.90418  0.42151  0.21747  1.0000
  H   H4742     1.0  0.81771  0.30349  0.36870  1.0000
  H   H4743     1.0  0.87756  0.48252  0.29587  1.0000
  C   C3974     1.0  0.89978  0.42258  0.19702  1.0000
  C   C3975     1.0  0.92435  0.24367  0.35170  1.0000
  H   H4744     1.0  0.93134  0.45152  0.20868  1.0000
  N   N264      1.0  0.88327  0.46622  0.29186  1.0000
  C   C3976     1.0  0.92384  0.23943  0.36305  1.0000
  C   C3977     1.0  0.87926  0.42141  0.19399  1.0000
  H   H4745     1.0  0.92293  0.27377  0.37139  1.0000
  H   H4746     1.0  0.84808  0.25044  0.36248  1.0000
  H   H4747     1.0  0.88889  0.41109  0.18249  1.0000
  C   C3978     1.0  0.88917  0.41600  0.18804  1.0000
  H   H4748     1.0  0.90438  0.28270  0.37793  1.0000
  S   S1052     1.0  0.85707  0.48748  0.26036  1.0000
  H   H4749     1.0  0.85075  0.48769  0.28367  1.0000
  H   H4750     1.0  0.87128  0.42080  0.19293  1.0000
  H   H4751     1.0  0.96453  0.35992  0.25018  1.0000
  S   S1053     1.0  0.82707  0.39681  0.18515  1.0000
  H   H4752     1.0  0.97973  0.36627  0.23513  1.0000
  C   C3979     1.0  0.98876  0.36850  0.25720  1.0000
  H   H4753     1.0  0.81484  0.31607  0.37362  1.0000
  H   H4754     1.0  0.88443  0.24042  0.34674  1.0000
  H   H4755     1.0  0.90712  0.41205  0.18521  1.0000
  H   H4756     1.0  0.83299  0.37295  0.18434  1.0000
  C   C3980     1.0  0.86422  0.23912  0.36075  1.0000
  H   H4757     1.0  0.82028  0.30278  0.38181  1.0000
  Fe  Fe526     1.0  0.90626  0.26135  0.55071  1.0000
  S   S1054     1.0  0.89332  0.27616  0.54490  1.0000
  H   H4758     1.0  0.86802  0.23988  0.56299  1.0000
  C   C3981     1.0  0.84350  0.24665  0.38926  1.0000
  S   S1055     1.0  0.87599  0.25925  0.55210  1.0000
  Fe  Fe527     1.0  0.88883  0.26460  0.53703  1.0000
  S   S1056     1.0  0.88691  0.26859  0.51917  1.0000
  Fe  Fe528     1.0  0.88177  0.26942  0.56051  1.0000
  H   H4759     1.0  0.88660  0.29297  0.40798  1.0000
  H   H4760     1.0  0.83841  0.29236  0.49290  1.0000
  H   H4761     1.0  0.85727  0.25793  0.40756  1.0000
  S   S1057     1.0  0.86333  0.27252  0.44722  1.0000
  S   S1058     1.0  0.88478  0.26133  0.40002  1.0000
  H   H4762     1.0  0.96988  0.23933  0.39106  1.0000
  C   C3982     1.0  0.86945  0.26997  0.43391  1.0000
  C   C3983     1.0  0.87848  0.26100  0.43254  1.0000
  C   C3984     1.0  0.88319  0.25856  0.42206  1.0000
  C   C3985     1.0  0.87880  0.26499  0.41289  1.0000
  C   C3986     1.0  0.86977  0.27403  0.41418  1.0000
  C   C3987     1.0  0.86516  0.27659  0.42470  1.0000
  H   H4763     1.0  0.88192  0.25601  0.43956  1.0000
  H   H4764     1.0  0.89028  0.25168  0.42110  1.0000
  H   H4765     1.0  0.86641  0.27908  0.40710  1.0000
  H   H4766     1.0  0.85817  0.28356  0.42574  1.0000
  Fe  Fe529     1.0  0.86451  0.25618  0.45956  1.0000
  C   C3988     1.0  0.87900  0.26182  0.51472  1.0000
  C   C3989     1.0  0.87463  0.25705  0.49941  1.0000
  C   C3990     1.0  0.88128  0.26153  0.50345  1.0000
  N   N265      1.0  0.85284  0.24508  0.42190  1.0000
  H   H4767     1.0  0.88813  0.26498  0.49779  1.0000
  H   H4768     1.0  0.83813  0.26354  0.41349  1.0000
  H   H4769     1.0  0.88355  0.29032  0.50051  1.0000
  H   H4770     1.0  0.90528  0.28406  0.55725  1.0000
  C   C3991     1.0  0.87733  0.28952  0.49659  1.0000
  H   H4771     1.0  0.85793  0.26702  0.48511  1.0000
  H   H4772     1.0  0.95378  0.24839  0.42203  1.0000
  C   C3992     1.0  0.86336  0.25301  0.51788  1.0000
  H   H4773     1.0  0.85139  0.28429  0.50363  1.0000
  H   H4774     1.0  0.88788  0.29128  0.48033  1.0000
  S   S1059     1.0  0.90300  0.25049  0.54145  1.0000
  N   N266      1.0  0.85276  0.28480  0.48174  1.0000
  H   H4775     1.0  0.81225  0.24763  0.41462  1.0000
  H   H4776     1.0  0.99439  0.25481  0.38769  1.0000
  H   H4777     1.0  0.87640  0.25709  0.49070  1.0000
  H   H4778     1.0  0.84970  0.28422  0.46614  1.0000
  H   H4779     1.0  0.91328  0.24952  0.40045  1.0000
  H   H4780     1.0  0.93597  0.25576  0.38569  1.0000
  H   H4781     1.0  0.86065  0.24416  0.40499  1.0000
  C   C3993     1.0  0.97168  0.24650  0.41780  1.0000
  Fe  Fe530     1.0  0.87617  0.26945  0.38588  1.0000
  H   H4782     1.0  0.97206  0.24828  0.42546  1.0000
  H   H4783     1.0  0.86536  0.28687  0.51193  1.0000
  C   C3994     1.0  0.90483  0.28709  0.56449  1.0000
  C   C3995     1.0  0.86131  0.28644  0.48665  1.0000
  C   C3996     1.0  0.92926  0.26162  0.39018  1.0000
  H   H4784     1.0  0.85786  0.29400  0.46506  1.0000
  C   C3997     1.0  0.96095  0.24397  0.40619  1.0000
  C   C3998     1.0  0.83554  0.25598  0.38557  1.0000
  H   H4785     1.0  0.89761  0.27669  0.41876  1.0000
  H   H4786     1.0  0.89017  0.29576  0.38759  1.0000
  H   H4787     1.0  0.92011  0.27625  0.56747  1.0000
  S   S1060     1.0  0.85709  0.24699  0.50182  1.0000
  C   C3999     1.0  0.82189  0.24442  0.39053  1.0000
  C   C4000     1.0  0.99369  0.24842  0.38366  1.0000
  C   C4001     1.0  0.84229  0.29328  0.48391  1.0000
  C   C4002     1.0  0.86019  0.24898  0.41118  1.0000
  C   C4003     1.0  0.90642  0.24149  0.43719  1.0000
  H   H4788     1.0  0.89418  0.24337  0.48979  1.0000
  H   H4789     1.0  0.88787  0.30512  0.58019  1.0000
  C   C4004     1.0  0.86565  0.25274  0.50661  1.0000
  S   S1061     1.0  0.92330  0.23966  0.41890  1.0000
  C   C4005     1.0  0.86702  0.28760  0.50304  1.0000
  C   C4006     1.0  0.85031  0.27360  0.48683  1.0000
  C   C4007     1.0  0.83509  0.25595  0.41570  1.0000
  H   H4790     1.0  0.94592  0.24187  0.57972  1.0000
  Fe  Fe531     1.0  0.89044  0.24575  0.55686  1.0000
  H   H4791     1.0  0.92123  0.24566  0.38776  1.0000
  S   S1062     1.0  0.87599  0.24919  0.47151  1.0000
  C   C4008     1.0  0.82029  0.24714  0.41631  1.0000
  H   H4792     1.0  0.93726  0.25900  0.56763  1.0000
  C   C4009     1.0  0.84169  0.24561  0.42007  1.0000
  C   C4010     1.0  0.85623  0.28565  0.46957  1.0000
  C   C4011     1.0  0.91331  0.28264  0.57045  1.0000
  C   C4012     1.0  0.98146  0.24079  0.40023  1.0000
  C   C4013     1.0  0.87003  0.25748  0.52193  1.0000
  H   H4793     1.0  0.85185  0.24747  0.38874  1.0000
  H   H4794     1.0  0.90459  0.25029  0.43352  1.0000
  H   H4795     1.0  0.98922  0.24380  0.41216  1.0000
  H   H4796     1.0  0.86811  0.25775  0.53061  1.0000
  H   H4797     1.0  0.86887  0.24802  0.41210  1.0000
  H   H4798     1.0  0.87442  0.28879  0.47150  1.0000
  C   C4014     1.0  0.98156  0.24379  0.41007  1.0000
  C   C4015     1.0  0.93598  0.25101  0.56757  1.0000
  H   H4799     1.0  0.83585  0.29265  0.47985  1.0000
  H   H4800     1.0  0.88894  0.29836  0.56355  1.0000
  C   C4016     1.0  0.87977  0.28995  0.48525  1.0000
  C   C4017     1.0  0.92938  0.25036  0.56073  1.0000
  H   H4801     1.0  0.84371  0.27214  0.48356  1.0000
  C   C4018     1.0  0.90983  0.27158  0.39275  1.0000
  C   C4019     1.0  0.90759  0.27032  0.40443  1.0000
  H   H4802     1.0  0.84737  0.27219  0.49598  1.0000
  C   C4020     1.0  0.89571  0.29522  0.56796  1.0000
  C   C4021     1.0  0.87192  0.28845  0.48029  1.0000
  C   C4022     1.0  0.85912  0.28604  0.49819  1.0000
  H   H4803     1.0  0.84391  0.30184  0.48076  1.0000
  S   S1063     1.0  0.92292  0.26260  0.55258  1.0000
  H   H4804     1.0  0.89285  0.24277  0.45144  1.0000
  S   S1064     1.0  0.84908  0.25328  0.47239  1.0000
  C   C4023     1.0  0.91296  0.28619  0.58010  1.0000
  C   C4024     1.0  0.85174  0.25231  0.42959  1.0000
  S   S1065     1.0  0.89494  0.25532  0.56660  1.0000
  H   H4805     1.0  0.86386  0.27920  0.46735  1.0000
  S   S1066     1.0  0.87034  0.28015  0.57242  1.0000
  H   H4806     1.0  0.85994  0.25185  0.43143  1.0000
  C   C4025     1.0  0.82456  0.25667  0.41384  1.0000
  H   H4807     1.0  0.92903  0.25802  0.39914  1.0000
  H   H4808     1.0  0.92298  0.23941  0.55514  1.0000
  H   H4809     1.0  0.85640  0.24972  0.52352  1.0000
  C   C4026     1.0  0.89317  0.28719  0.40374  1.0000
  H   H4810     1.0  0.91191  0.26315  0.40957  1.0000
  C   C4027     1.0  0.89940  0.27804  0.40980  1.0000
  Fe  Fe532     1.0  0.86079  0.24489  0.48404  1.0000
  H   H4811     1.0  0.81980  0.26460  0.41021  1.0000
  H   H4812     1.0  0.93527  0.27811  0.57208  1.0000
  C   C4028     1.0  0.90341  0.28109  0.38679  1.0000
  H   H4813     1.0  0.84851  0.26124  0.42618  1.0000
  C   C4029     1.0  0.96140  0.24653  0.41590  1.0000
  S   S1067     1.0  0.86752  0.24032  0.45394  1.0000
  S   S1068     1.0  0.86037  0.28242  0.38471  1.0000
  C   C4030     1.0  0.97079  0.24124  0.39840  1.0000
  H   H4814     1.0  0.84596  0.24980  0.43765  1.0000
  C   C4031     1.0  0.89515  0.29904  0.57731  1.0000
  H   H4815     1.0  0.81350  0.24362  0.39101  1.0000
  H   H4816     1.0  0.81856  0.26196  0.38341  1.0000
  H   H4817     1.0  0.95293  0.24392  0.40483  1.0000
  H   H4818     1.0  0.90681  0.25290  0.38893  1.0000
  C   C4032     1.0  0.91476  0.25233  0.39130  1.0000
  H   H4819     1.0  0.83606  0.30820  0.38372  1.0000
  C   C4033     1.0  0.92799  0.23997  0.56046  1.0000
  C   C4034     1.0  0.82475  0.25481  0.38624  1.0000
  N   N267      1.0  0.91831  0.26308  0.38732  1.0000
  H   H4820     1.0  0.93186  0.26970  0.38808  1.0000
  H   H4821     1.0  0.93277  0.29159  0.57509  1.0000
  C   C4035     1.0  0.93294  0.28263  0.57892  1.0000
  C   C4036     1.0  0.94094  0.24133  0.57435  1.0000
  C   C4037     1.0  0.89518  0.28873  0.39226  1.0000
  H   H4822     1.0  0.89020  0.26938  0.58188  1.0000
  C   C4038     1.0  0.90492  0.28702  0.68106  1.0000
  H   H4823     1.0  0.92930  0.29642  0.67456  1.0000
  S   S1069     1.0  0.94278  0.25624  0.61082  1.0000
  C   C4039     1.0  0.91892  0.37441  0.73053  1.0000
  Fe  Fe533     1.0  0.96779  0.35728  0.76189  1.0000
  S   S1070     1.0  0.96505  0.35685  0.74534  1.0000
  S   S1071     1.0  0.98595  0.35263  0.76356  1.0000
  Fe  Fe534     1.0  0.94334  0.36818  0.76956  1.0000
  S   S1072     1.0  0.93903  0.36911  0.75357  1.0000
  C   C4040     1.0  0.90360  0.30110  0.69136  1.0000
  Fe  Fe535     1.0  0.94899  0.35171  0.75487  1.0000
  S   S1073     1.0  0.93998  0.34023  0.75182  1.0000
  Fe  Fe536     1.0  0.95533  0.37422  0.74564  1.0000
  S   S1074     1.0  0.95629  0.38857  0.73104  1.0000
  S   S1075     1.0  0.95252  0.35031  0.77156  1.0000
  S   S1076     1.0  0.95882  0.37500  0.76153  1.0000
  Fe  Fe537     1.0  0.90115  0.42939  0.73294  1.0000
  S   S1077     1.0  0.90732  0.43602  0.71487  1.0000
  S   S1078     1.0  0.91082  0.42088  0.74609  1.0000
  Fe  Fe538     1.0  0.87689  0.43810  0.73200  1.0000
  S   S1079     1.0  0.88080  0.44531  0.71380  1.0000
  S   S1080     1.0  0.85970  0.44185  0.74256  1.0000
  Fe  Fe539     1.0  0.89353  0.42922  0.71290  1.0000
  S   S1081     1.0  0.89691  0.42083  0.69859  1.0000
  Fe  Fe540     1.0  0.89411  0.45139  0.71750  1.0000
  S   S1082     1.0  0.89539  0.46942  0.71081  1.0000
  S   S1083     1.0  0.88837  0.42146  0.73088  1.0000
  S   S1084     1.0  0.88923  0.44521  0.73576  1.0000
  Fe  Fe541     1.0  0.87453  0.29067  0.65306  1.0000
  S   S1085     1.0  0.87538  0.27276  0.66206  1.0000
  S   S1086     1.0  0.87035  0.30304  0.66461  1.0000
  Fe  Fe542     1.0  0.88103  0.28380  0.63029  1.0000
  S   S1087     1.0  0.88289  0.26558  0.63790  1.0000
  S   S1088     1.0  0.88685  0.28809  0.61152  1.0000
  Fe  Fe543     1.0  0.86697  0.27066  0.64970  1.0000
  S   S1089     1.0  0.85374  0.26022  0.65595  1.0000
  Fe  Fe544     1.0  0.89109  0.26922  0.64948  1.0000
  S   S1090     1.0  0.90644  0.25815  0.65489  1.0000
  S   S1091     1.0  0.86440  0.28899  0.64163  1.0000
  S   S1092     1.0  0.89082  0.28704  0.64095  1.0000
  Fe  Fe545     1.0  0.91110  0.34618  0.70488  1.0000
  S   S1093     1.0  0.90423  0.35304  0.68944  1.0000
  S   S1094     1.0  0.92831  0.34785  0.70493  1.0000
  Fe  Fe546     1.0  0.88899  0.34136  0.71864  1.0000
  S   S1095     1.0  0.88018  0.34782  0.70443  1.0000
  S   S1096     1.0  0.88035  0.33586  0.73633  1.0000
  Fe  Fe547     1.0  0.89575  0.33843  0.69467  1.0000
  S   S1097     1.0  0.89720  0.32992  0.68041  1.0000
  Fe  Fe548     1.0  0.88930  0.36173  0.70024  1.0000
  S   S1098     1.0  0.88089  0.37957  0.69425  1.0000
  S   S1099     1.0  0.90398  0.33084  0.70940  1.0000
  S   S1100     1.0  0.89681  0.35601  0.71516  1.0000
  C   C4041     1.0  0.91454  0.30208  0.68621  1.0000
  C   C4042     1.0  0.88957  0.24451  0.61687  1.0000
  H   H4824     1.0  0.88120  0.36180  0.76617  1.0000
  S   S1101     1.0  0.86025  0.37826  0.75729  1.0000
  H   H4825     1.0  0.93004  0.24801  0.65106  1.0000
  H   H4826     1.0  0.88533  0.24016  0.64439  1.0000
  C   C4043     1.0  0.87385  0.34747  0.74230  1.0000
  C   C4044     1.0  0.87211  0.35813  0.73555  1.0000
  C   C4045     1.0  0.86773  0.36748  0.74027  1.0000
  C   C4046     1.0  0.86491  0.36624  0.75180  1.0000
  C   C4047     1.0  0.86623  0.35557  0.75860  1.0000
  C   C4048     1.0  0.87075  0.34619  0.75385  1.0000
  H   H4827     1.0  0.87408  0.35917  0.72665  1.0000
  H   H4828     1.0  0.86666  0.37567  0.73494  1.0000
  H   H4829     1.0  0.86386  0.35455  0.76751  1.0000
  H   H4830     1.0  0.87196  0.33794  0.75909  1.0000
  C   C4049     1.0  0.87814  0.31024  0.66898  1.0000
  C   C4050     1.0  0.87372  0.31384  0.67906  1.0000
  C   C4051     1.0  0.87933  0.31989  0.68269  1.0000
  C   C4052     1.0  0.88951  0.32245  0.67629  1.0000
  C   C4053     1.0  0.89393  0.31885  0.66623  1.0000
  C   C4054     1.0  0.88828  0.31288  0.66256  1.0000
  H   H4831     1.0  0.86582  0.31201  0.68407  1.0000
  H   H4832     1.0  0.87577  0.32257  0.69044  1.0000
  H   H4833     1.0  0.90178  0.32075  0.66118  1.0000
  H   H4834     1.0  0.89171  0.31048  0.65466  1.0000
  C   C4055     1.0  0.87017  0.47150  0.73360  1.0000
  C   C4056     1.0  0.86750  0.28854  0.59082  1.0000
  C   C4057     1.0  0.86511  0.24108  0.60075  1.0000
  C   C4058     1.0  0.98520  0.37595  0.74147  1.0000
  H   H4835     1.0  0.87942  0.46955  0.73090  1.0000
  H   H4836     1.0  0.91805  0.30808  0.68797  1.0000
  H   H4837     1.0  0.86695  0.41631  0.69034  1.0000
  C   C4059     1.0  0.85864  0.43294  0.75569  1.0000
  C   C4060     1.0  0.85239  0.43711  0.76504  1.0000
  C   C4061     1.0  0.84484  0.26247  0.62688  1.0000
  H   H4838     1.0  0.85082  0.46937  0.74869  1.0000
  C   C4062     1.0  0.93489  0.38224  0.72064  1.0000
  C   C4063     1.0  0.86389  0.42168  0.75688  1.0000
  H   H4839     1.0  0.84827  0.44580  0.76416  1.0000
  H   H4840     1.0  0.94451  0.24765  0.63362  1.0000
  H   H4841     1.0  0.98930  0.37342  0.74863  1.0000
  H   H4842     1.0  0.86883  0.41848  0.74971  1.0000
  C   C4064     1.0  0.89258  0.40894  0.69819  1.0000
  C   C4065     1.0  0.89004  0.40057  0.70757  1.0000
  C   C4066     1.0  0.88694  0.39116  0.70646  1.0000
  C   C4067     1.0  0.88615  0.39029  0.69602  1.0000
  C   C4068     1.0  0.88861  0.39872  0.68679  1.0000
  C   C4069     1.0  0.89199  0.40785  0.68783  1.0000
  H   H4843     1.0  0.89054  0.40130  0.71559  1.0000
  H   H4844     1.0  0.88488  0.38475  0.71367  1.0000
  H   H4845     1.0  0.88791  0.39819  0.67875  1.0000
  H   H4846     1.0  0.89398  0.41423  0.68055  1.0000
  C   C4070     1.0  0.93655  0.34292  0.73878  1.0000
  C   C4071     1.0  0.92752  0.33909  0.73796  1.0000
  C   C4072     1.0  0.92474  0.34086  0.72766  1.0000
  C   C4073     1.0  0.93123  0.34611  0.71803  1.0000
  C   C4074     1.0  0.94024  0.34999  0.71884  1.0000
  C   C4075     1.0  0.94279  0.34856  0.72921  1.0000
  H   H4847     1.0  0.92276  0.33458  0.74530  1.0000
  H   H4848     1.0  0.91783  0.33777  0.72711  1.0000
  H   H4849     1.0  0.94530  0.35405  0.71141  1.0000
  H   H4850     1.0  0.94982  0.35147  0.72975  1.0000
  H   H4851     1.0  0.86705  0.26047  0.58772  1.0000
  N   N268      1.0  0.90010  0.27924  0.67804  1.0000
  H   H4852     1.0  0.91996  0.26787  0.61504  1.0000
  C   C4076     1.0  0.84555  0.25704  0.61854  1.0000
  C   C4077     1.0  0.92081  0.29557  0.67861  1.0000
  H   H4853     1.0  0.97529  0.36658  0.77981  1.0000
  H   H4854     1.0  0.85148  0.47918  0.75613  1.0000
  C   C4078     1.0  0.94421  0.39841  0.73491  1.0000
  C   C4079     1.0  0.93952  0.40701  0.72702  1.0000
  C   C4080     1.0  0.92925  0.41414  0.73035  1.0000
  C   C4081     1.0  0.92384  0.41267  0.74155  1.0000
  C   C4082     1.0  0.92872  0.40429  0.74939  1.0000
  C   C4083     1.0  0.93885  0.39720  0.74608  1.0000
  H   H4855     1.0  0.94365  0.40800  0.71836  1.0000
  H   H4856     1.0  0.92555  0.42071  0.72427  1.0000
  H   H4857     1.0  0.92459  0.40308  0.75805  1.0000
  H   H4858     1.0  0.94242  0.39076  0.75228  1.0000
  H   H4859     1.0  0.83761  0.24745  0.66707  1.0000
  H   H4860     1.0  0.90785  0.34036  0.76369  1.0000
  H   H4861     1.0  0.89237  0.39766  0.77821  1.0000
  N   N269      1.0  0.89895  0.35747  0.75955  1.0000
  N   N270      1.0  0.92265  0.38391  0.72200  1.0000
  C   C4084     1.0  0.89304  0.38917  0.75184  1.0000
  C   C4085     1.0  0.90849  0.47466  0.73398  1.0000
  C   C4086     1.0  0.90458  0.46946  0.72791  1.0000
  C   C4087     1.0  0.89944  0.47584  0.71921  1.0000
  H   H4862     1.0  0.89002  0.36048  0.74643  1.0000
  C   C4088     1.0  0.85439  0.47666  0.74800  1.0000
  H   H4863     1.0  0.91278  0.46964  0.74048  1.0000
  H   H4864     1.0  0.90595  0.46049  0.72969  1.0000
  C   C4089     1.0  0.93326  0.25808  0.62319  1.0000
  C   C4090     1.0  0.92232  0.26392  0.62286  1.0000
  C   C4091     1.0  0.91418  0.26408  0.63265  1.0000
  C   C4092     1.0  0.91693  0.25833  0.64282  1.0000
  C   C4093     1.0  0.92791  0.25255  0.64321  1.0000
  C   C4094     1.0  0.93609  0.25240  0.63336  1.0000
  C   C4095     1.0  0.92058  0.28599  0.59601  1.0000
  H   H4865     1.0  0.97780  0.37214  0.74415  1.0000
  H   H4866     1.0  0.88563  0.24977  0.62280  1.0000
  H   H4867     1.0  0.98909  0.41977  0.75612  1.0000
  C   C4096     1.0  0.92143  0.39460  0.70257  1.0000
  C   C4097     1.0  0.88884  0.35578  0.76828  1.0000
  H   H4868     1.0  0.88686  0.39595  0.74840  1.0000
  C   C4098     1.0  0.88797  0.27653  0.59592  1.0000
  C   C4099     1.0  0.88123  0.28426  0.60225  1.0000
  C   C4100     1.0  0.87087  0.29013  0.59976  1.0000
  H   H4869     1.0  0.86697  0.47857  0.72721  1.0000
  C   C4101     1.0  0.86229  0.41928  0.71682  1.0000
  H   H4870     1.0  0.89603  0.27213  0.59761  1.0000
  H   H4871     1.0  0.86566  0.29626  0.60443  1.0000
  H   H4872     1.0  0.93106  0.46393  0.71612  1.0000
  C   C4102     1.0  0.99581  0.41208  0.75608  1.0000
  H   H4873     1.0  0.91586  0.38460  0.76264  1.0000
  H   H4874     1.0  0.85253  0.39590  0.72005  1.0000
  C   C4103     1.0  0.92014  0.38498  0.71110  1.0000
  C   C4104     1.0  0.91701  0.37635  0.70840  1.0000
  C   C4105     1.0  0.91502  0.37747  0.69793  1.0000
  C   C4106     1.0  0.84818  0.41805  0.73918  1.0000
  H   H4875     1.0  0.91266  0.28479  0.60217  1.0000
  H   H4876     1.0  0.83762  0.26277  0.63373  1.0000
  C   C4107     1.0  0.84636  0.39981  0.73964  1.0000
  H   H4877     1.0  0.91548  0.26676  0.67587  1.0000
  C   C4108     1.0  0.90412  0.23998  0.60115  1.0000
  C   C4109     1.0  0.98439  0.40414  0.74927  1.0000
  H   H4878     1.0  0.95801  0.40522  0.74632  1.0000
  N   N271      1.0  0.99113  0.40219  0.75765  1.0000
  Fe  Fe549     1.0  0.85882  0.37680  0.77545  1.0000
  H   H4879     1.0  0.97146  0.26353  0.59758  1.0000
  H   H4880     1.0  0.87036  0.40841  0.73604  1.0000
  H   H4881     1.0  0.90505  0.35668  0.74233  1.0000
  H   H4882     1.0  0.84367  0.39857  0.74884  1.0000
  C   C4110     1.0  0.97193  0.40797  0.73279  1.0000
  H   H4883     1.0  0.88522  0.37681  0.75095  1.0000
  C   C4111     1.0  0.85852  0.25886  0.58952  1.0000
  H   H4884     1.0  0.89607  0.29105  0.66346  1.0000
  H   H4885     1.0  0.85374  0.42390  0.73757  1.0000
  H   H4886     1.0  0.90245  0.25366  0.60868  1.0000
  C   C4112     1.0  0.99078  0.25458  0.60602  1.0000
  C   C4113     1.0  0.90671  0.26772  0.68075  1.0000
  H   H4887     1.0  0.89014  0.29377  0.69285  1.0000
  C   C4114     1.0  0.89878  0.29376  0.68882  1.0000
  H   H4888     1.0  0.92128  0.28330  0.67007  1.0000
  C   C4115     1.0  0.90933  0.38280  0.75987  1.0000
  H   H4889     1.0  0.88271  0.28753  0.68173  1.0000
  H   H4890     1.0  0.87896  0.24094  0.66364  1.0000
  H   H4891     1.0  0.87142  0.26073  0.60339  1.0000
  C   C4116     1.0  0.92138  0.48340  0.69510  1.0000
  H   H4892     1.0  0.91992  0.40328  0.68595  1.0000
  N   N272      1.0  0.99275  0.37245  0.73143  1.0000
  H   H4893     1.0  0.96830  0.40191  0.76061  1.0000
  C   C4117     1.0  0.90865  0.37175  0.76127  1.0000
  C   C4118     1.0  0.85823  0.24292  0.64450  1.0000
  H   H4894     1.0  0.88488  0.27329  0.68139  1.0000
  H   H4895     1.0  0.83869  0.40277  0.73617  1.0000
  C   C4119     1.0  0.85584  0.40330  0.71632  1.0000
  H   H4896     1.0  0.90313  0.26163  0.67879  1.0000
  C   C4120     1.0  0.85927  0.40559  0.70477  1.0000
  H   H4897     1.0  0.92027  0.40155  0.72128  1.0000
  H   H4898     1.0  0.85055  0.39133  0.73817  1.0000
  H   H4899     1.0  0.91266  0.37076  0.69607  1.0000
  H   H4900     1.0  0.90982  0.37500  0.73158  1.0000
  H   H4901     1.0  0.84511  0.41624  0.74835  1.0000
  C   C4121     1.0  0.86403  0.41474  0.69926  1.0000
  H   H4902     1.0  0.86987  0.42830  0.70099  1.0000
  H   H4903     1.0  0.88736  0.27668  0.69299  1.0000
  H   H4904     1.0  0.85862  0.40000  0.70008  1.0000
  H   H4905     1.0  0.91483  0.36546  0.76517  1.0000
  H   H4906     1.0  0.89869  0.30642  0.69706  1.0000
  C   C4122     1.0  0.90047  0.28231  0.66598  1.0000
  H   H4907     1.0  0.90242  0.29777  0.59066  1.0000
  H   H4908     1.0  0.90572  0.26843  0.63223  1.0000
  C   C4123     1.0  0.85652  0.41872  0.77675  1.0000
  H   H4909     1.0  0.92408  0.40142  0.70381  1.0000
  H   H4910     1.0  0.92338  0.26465  0.58381  1.0000
  C   C4124     1.0  0.93247  0.48108  0.71188  1.0000
  N   N273      1.0  0.98073  0.24999  0.60798  1.0000
  C   C4125     1.0  0.89900  0.24674  0.60884  1.0000
  H   H4911     1.0  0.90913  0.28127  0.66088  1.0000
  H   H4912     1.0  0.89631  0.27707  0.66355  1.0000
  C   C4126     1.0  0.97278  0.25264  0.61824  1.0000
  C   C4127     1.0  0.88826  0.27921  0.68384  1.0000
  H   H4913     1.0  0.92958  0.26481  0.59463  1.0000
  S   S1102     1.0  0.92945  0.37659  0.78159  1.0000
  H   H4914     1.0  0.91058  0.41552  0.76973  1.0000
  C   C4128     1.0  0.92948  0.47191  0.71044  1.0000
  C   C4129     1.0  0.99122  0.36010  0.77006  1.0000
  H   H4915     1.0  0.89795  0.24407  0.64429  1.0000
  N   N274      1.0  0.85396  0.40775  0.73497  1.0000
  H   H4916     1.0  0.86726  0.45663  0.75259  1.0000
  C   C4130     1.0  0.88948  0.42022  0.77141  1.0000
  C   C4131     1.0  0.98418  0.36635  0.77767  1.0000
  H   H4917     1.0  0.88962  0.35698  0.77627  1.0000
  H   H4918     1.0  0.89702  0.34653  0.75028  1.0000
  H   H4919     1.0  0.86420  0.42452  0.72107  1.0000
  C   C4132     1.0  0.97286  0.40373  0.75213  1.0000
  H   H4920     1.0  0.85056  0.48351  0.74181  1.0000
  C   C4133     1.0  0.85704  0.41025  0.72270  1.0000
  H   H4921     1.0  0.92052  0.37407  0.73873  1.0000
  N   N275      1.0  0.92200  0.28112  0.58633  1.0000
  H   H4922     1.0  0.84087  0.42256  0.73536  1.0000
  H   H4923     1.0  0.93818  0.38947  0.71497  1.0000
  N   N276      1.0  0.87190  0.36266  0.67172  1.0000
  C   C4134     1.0  0.86403  0.36619  0.68167  1.0000
  C   C4135     1.0  0.88321  0.35879  0.67423  1.0000
  C   C4136     1.0  0.87192  0.37260  0.66249  1.0000
  C   C4137     1.0  0.86899  0.35372  0.66845  1.0000
  C   C4138     1.0  0.87584  0.34931  0.65921  1.0000
  C   C4139     1.0  0.85944  0.34914  0.67420  1.0000
  C   C4140     1.0  0.87327  0.34092  0.65591  1.0000
  C   C4141     1.0  0.85695  0.34075  0.67081  1.0000
  C   C4142     1.0  0.86382  0.33668  0.66167  1.0000
  H   H4924     1.0  0.86390  0.35916  0.68904  1.0000
  H   H4925     1.0  0.86655  0.37280  0.68399  1.0000
  H   H4926     1.0  0.85539  0.36966  0.68027  1.0000
  H   H4927     1.0  0.88363  0.35104  0.68076  1.0000
  H   H4928     1.0  0.88550  0.36510  0.67722  1.0000
  H   H4929     1.0  0.88991  0.35687  0.66697  1.0000
  H   H4930     1.0  0.86365  0.37555  0.66008  1.0000
  H   H4931     1.0  0.87377  0.37959  0.66482  1.0000
  H   H4932     1.0  0.87838  0.37090  0.65499  1.0000
  H   H4933     1.0  0.88337  0.35218  0.65458  1.0000
  H   H4934     1.0  0.85383  0.35176  0.68144  1.0000
  H   H4935     1.0  0.87877  0.33746  0.64902  1.0000
  H   H4936     1.0  0.84977  0.33719  0.67541  1.0000
  H   H4937     1.0  0.86201  0.32998  0.65924  1.0000
  H   H4938     1.0  0.91430  0.38802  0.68185  1.0000
  C   C4143     1.0  0.98323  0.40838  0.72971  1.0000
  H   H4939     1.0  0.97646  0.24909  0.62568  1.0000
  H   H4940     1.0  0.97772  0.40721  0.77101  1.0000
  H   H4941     1.0  0.85960  0.29334  0.58881  1.0000
  H   H4942     1.0  0.90219  0.40002  0.75406  1.0000
  N   N277      1.0  0.85592  0.25111  0.60036  1.0000
  C   C4144     1.0  0.84274  0.24358  0.66032  1.0000
  H   H4943     1.0  0.84365  0.24092  0.60816  1.0000
  C   C4145     1.0  0.86252  0.41449  0.76734  1.0000
  C   C4146     1.0  0.85500  0.25647  0.60953  1.0000
  H   H4944     1.0  0.97892  0.37149  0.72523  1.0000
  C   C4147     1.0  0.86385  0.26112  0.60977  1.0000
  H   H4945     1.0  0.86833  0.46491  0.76134  1.0000
  C   C4148     1.0  0.86307  0.26644  0.61820  1.0000
  C   C4149     1.0  0.85351  0.26729  0.62662  1.0000
  C   C4150     1.0  0.98616  0.37566  0.72268  1.0000
  C   C4151     1.0  0.90015  0.36906  0.75784  1.0000
  H   H4946     1.0  0.98208  0.38509  0.73996  1.0000
  C   C4152     1.0  0.87934  0.48272  0.75085  1.0000
  C   C4153     1.0  0.89772  0.35529  0.74920  1.0000
  C   C4154     1.0  0.85166  0.24809  0.65324  1.0000
  H   H4947     1.0  0.86631  0.40575  0.76814  1.0000
  C   C4155     1.0  0.89226  0.37815  0.75322  1.0000
  H   H4948     1.0  0.91662  0.35015  0.75713  1.0000
  C   C4156     1.0  0.91929  0.39568  0.69218  1.0000
  H   H4949     1.0  0.92127  0.46602  0.70127  1.0000
  C   C4157     1.0  0.90863  0.34897  0.76310  1.0000
  H   H4950     1.0  0.85834  0.25549  0.58245  1.0000
  H   H4951     1.0  0.85291  0.27147  0.63312  1.0000
  C   C4158     1.0  0.92242  0.26901  0.59050  1.0000
  H   H4952     1.0  0.92048  0.29505  0.59345  1.0000
  H   H4953     1.0  0.99732  0.38491  0.75700  1.0000
  H   H4954     1.0  0.91672  0.48430  0.68887  1.0000
  C   C4159     1.0  0.87080  0.46368  0.75268  1.0000
  H   H4955     1.0  0.86987  0.27000  0.61823  1.0000
  H   H4956     1.0  0.90942  0.34917  0.77145  1.0000
  C   C4160     1.0  0.85156  0.43005  0.77558  1.0000
  H   H4957     1.0  0.92751  0.28201  0.60051  1.0000
  H   H4958     1.0  0.91146  0.24201  0.59509  1.0000
  H   H4959     1.0  0.96713  0.40934  0.72655  1.0000
  H   H4960     1.0  0.86864  0.39481  0.73669  1.0000
  H   H4961     1.0  0.89471  0.41539  0.76511  1.0000
  H   H4962     1.0  0.90701  0.26519  0.68969  1.0000
  H   H4963     1.0  0.88734  0.34727  0.76973  1.0000
  C   C4161     1.0  0.91608  0.38713  0.68987  1.0000
  H   H4964     1.0  0.86252  0.40111  0.74847  1.0000
  H   H4965     1.0  0.92360  0.36629  0.72844  1.0000
  H   H4966     1.0  0.93942  0.37475  0.71715  1.0000
  C   C4162     1.0  0.86433  0.40283  0.73924  1.0000
  H   H4967     1.0  0.90785  0.39606  0.72686  1.0000
  N   N278      1.0  0.86679  0.47399  0.74480  1.0000
  H   H4968     1.0  0.91842  0.39328  0.73481  1.0000
  C   C4163     1.0  0.86561  0.42153  0.70528  1.0000
  C   C4164     1.0  0.96678  0.40564  0.74397  1.0000
  C   C4165     1.0  0.90159  0.39148  0.75512  1.0000
  C   C4166     1.0  0.91703  0.39412  0.72640  1.0000
  C   C4167     1.0  0.91612  0.28811  0.67608  1.0000
  H   H4969     1.0  0.93726  0.38103  0.72868  1.0000
  H   H4970     1.0  0.91614  0.36856  0.71415  1.0000
  C   C4168     1.0  0.90363  0.29465  0.58332  1.0000
  H   H4971     1.0  0.84622  0.24426  0.59349  1.0000
  H   H4972     1.0  0.91470  0.26746  0.59669  1.0000
  C   C4169     1.0  0.98940  0.40647  0.73780  1.0000
  H   H4973     1.0  0.85252  0.26706  0.58922  1.0000
  C   C4170     1.0  0.84552  0.24768  0.60079  1.0000
  C   C4171     1.0  0.90713  0.48627  0.73154  1.0000
  H   H4974     1.0  0.98721  0.41019  0.72100  1.0000
  H   H4975     1.0  0.99134  0.37326  0.71485  1.0000
  H   H4976     1.0  0.87807  0.40476  0.78031  1.0000
  H   H4977     1.0  0.86710  0.46421  0.73335  1.0000
  H   H4978     1.0  0.93631  0.47965  0.71881  1.0000
  H   H4979     1.0  0.92832  0.40810  0.77531  1.0000
  H   H4980     1.0  0.86516  0.24631  0.63896  1.0000
  H   H4981     1.0  0.88102  0.42302  0.76943  1.0000
  H   H4982     1.0  0.87337  0.24322  0.59925  1.0000
  H   H4983     1.0  0.98998  0.39834  0.77537  1.0000
  H   H4984     1.0  0.83861  0.25333  0.61938  1.0000
  C   C4172     1.0  0.97453  0.25435  0.59887  1.0000
  H   H4985     1.0  0.88006  0.46086  0.75046  1.0000
  C   C4173     1.0  0.98463  0.39999  0.76925  1.0000
  H   H4986     1.0  0.99516  0.24568  0.62193  1.0000
  C   C4174     1.0  0.99453  0.26201  0.59602  1.0000
  C   C4175     1.0  0.92396  0.47306  0.70207  1.0000
  H   H4987     1.0  0.98239  0.38474  0.72102  1.0000
  H   H4988     1.0  0.98923  0.35599  0.73565  1.0000
  S   S1103     1.0  0.87200  0.38256  0.77962  1.0000
  C   C4176     1.0  0.88465  0.27500  0.58693  1.0000
  H   H4989     1.0  0.97003  0.26178  0.61760  1.0000
  H   H4990     1.0  0.96698  0.25075  0.60077  1.0000
  C   C4177     1.0  0.87131  0.48358  0.74464  1.0000
  C   C4178     1.0  0.99637  0.36013  0.73386  1.0000
  H   H4991     1.0  0.89275  0.42779  0.77019  1.0000
  H   H4992     1.0  0.96513  0.24923  0.61999  1.0000
  C   C4179     1.0  0.91031  0.41158  0.77835  1.0000
  H   H4993     1.0  0.88278  0.47499  0.75594  1.0000
  C   C4180     1.0  0.89779  0.48748  0.71694  1.0000
  H   H4994     1.0  0.98109  0.39248  0.77112  1.0000
  C   C4181     1.0  0.87449  0.28118  0.58417  1.0000
  H   H4995     1.0  0.83822  0.25485  0.60080  1.0000
  H   H4996     1.0  0.97976  0.25213  0.59097  1.0000
  H   H4997     1.0  0.99012  0.26490  0.58934  1.0000
  H   H4998     1.0  0.89137  0.24339  0.66522  1.0000
  C   C4182     1.0  0.99738  0.25138  0.61416  1.0000
  H   H4999     1.0  0.93987  0.27939  0.58348  1.0000
  C   C4183     1.0  0.92063  0.40739  0.78146  1.0000
  C   C4184     1.0  0.57887  0.25698  0.85613  1.0000
  H   H5000     1.0  0.90959  0.34588  0.79261  1.0000
  S   S1104     1.0  0.59926  0.25802  0.95140  1.0000
  Fe  Fe550     1.0  0.53987  0.26198  0.91873  1.0000
  S   S1105     1.0  0.53768  0.27608  0.90399  1.0000
  S   S1106     1.0  0.54101  0.26460  0.93497  1.0000
  H   H5001     1.0  0.83488  0.34688  0.85992  1.0000
  S   S1107     1.0  0.54135  0.25704  0.88991  1.0000
  Fe  Fe551     1.0  0.55235  0.26528  0.89476  1.0000
  S   S1108     1.0  0.56849  0.26932  0.88313  1.0000
  Fe  Fe552     1.0  0.52689  0.26640  0.90060  1.0000
  S   S1109     1.0  0.50940  0.27226  0.89700  1.0000
  S   S1110     1.0  0.55496  0.25173  0.90970  1.0000
  S   S1111     1.0  0.52785  0.25339  0.91631  1.0000
  C   C4185     1.0  0.62700  0.24097  0.86752  1.0000
  Fe  Fe553     1.0  0.76011  0.35687  0.96084  1.0000
  S   S1112     1.0  0.74828  0.36889  0.95078  1.0000
  S   S1113     1.0  0.77607  0.34779  0.95159  1.0000
  Fe  Fe554     1.0  0.73482  0.36267  0.96441  1.0000
  S   S1114     1.0  0.71887  0.36235  0.95989  1.0000
  Fe  Fe555     1.0  0.74782  0.38051  0.96107  1.0000
  S   S1115     1.0  0.74949  0.39787  0.95254  1.0000
  H   H5002     1.0  0.58625  0.25192  0.87501  1.0000
  S   S1116     1.0  0.76092  0.36921  0.96989  1.0000
  Fe  Fe556     1.0  0.70516  0.45495  0.90694  1.0000
  S   S1117     1.0  0.71746  0.44591  0.91765  1.0000
  S   S1118     1.0  0.70056  0.47383  0.90378  1.0000
  Fe  Fe557     1.0  0.70426  0.43334  0.90110  1.0000
  S   S1119     1.0  0.71647  0.42297  0.91145  1.0000
  S   S1120     1.0  0.70007  0.42366  0.89097  1.0000
  Fe  Fe558     1.0  0.70670  0.43332  0.92381  1.0000
  S   S1121     1.0  0.70299  0.42466  0.94161  1.0000
  Fe  Fe559     1.0  0.72590  0.43657  0.90416  1.0000
  S   S1122     1.0  0.74453  0.43258  0.89816  1.0000
  S   S1123     1.0  0.69357  0.44289  0.91409  1.0000
  S   S1124     1.0  0.71444  0.44647  0.89282  1.0000
  Fe  Fe560     1.0  0.61693  0.28886  0.89209  1.0000
  S   S1125     1.0  0.62500  0.27086  0.89281  1.0000
  S   S1126     1.0  0.59807  0.29494  0.89598  1.0000
  Fe  Fe561     1.0  0.63945  0.29638  0.88546  1.0000
  S   S1127     1.0  0.64932  0.27893  0.88479  1.0000
  S   S1128     1.0  0.64691  0.31190  0.88172  1.0000
  Fe  Fe562     1.0  0.63628  0.27699  0.87695  1.0000
  S   S1129     1.0  0.64095  0.26798  0.86287  1.0000
  Fe  Fe563     1.0  0.63724  0.27412  0.90057  1.0000
  S   S1130     1.0  0.64309  0.26144  0.91471  1.0000
  S   S1131     1.0  0.62762  0.29506  0.87566  1.0000
  S   S1132     1.0  0.62799  0.29146  0.90178  1.0000
  C   C4186     1.0  0.85714  0.35189  0.82111  1.0000
  H   H5003     1.0  0.62002  0.27171  0.85273  1.0000
  Fe  Fe564     1.0  0.84552  0.37312  0.79946  1.0000
  S   S1133     1.0  0.83004  0.36681  0.80974  1.0000
  C   C4187     1.0  0.50705  0.25518  0.87542  1.0000
  S   S1134     1.0  0.85767  0.37863  0.80553  1.0000
  Fe  Fe565     1.0  0.70369  0.34456  0.91346  1.0000
  S   S1135     1.0  0.68503  0.34906  0.91930  1.0000
  S   S1136     1.0  0.71707  0.33773  0.92367  1.0000
  Fe  Fe566     1.0  0.70213  0.35207  0.88927  1.0000
  S   S1137     1.0  0.68337  0.35759  0.89315  1.0000
  S   S1138     1.0  0.71128  0.35283  0.87151  1.0000
  Fe  Fe567     1.0  0.68640  0.36470  0.90607  1.0000
  S   S1139     1.0  0.67781  0.38162  0.90998  1.0000
  Fe  Fe568     1.0  0.68366  0.34140  0.90581  1.0000
  S   S1140     1.0  0.67298  0.32835  0.90875  1.0000
  S   S1141     1.0  0.70507  0.36050  0.90100  1.0000
  S   S1142     1.0  0.70242  0.33559  0.90114  1.0000
  Fe  Fe569     1.0  0.77210  0.36599  0.88779  1.0000
  S   S1143     1.0  0.75852  0.37166  0.87826  1.0000
  S   S1144     1.0  0.76270  0.36084  0.90528  1.0000
  Fe  Fe570     1.0  0.78977  0.37024  0.86668  1.0000
  S   S1145     1.0  0.77747  0.37609  0.85558  1.0000
  S   S1146     1.0  0.80824  0.37005  0.85988  1.0000
  Fe  Fe571     1.0  0.76694  0.38551  0.86852  1.0000
  S   S1147     1.0  0.75487  0.40164  0.86428  1.0000
  Fe  Fe572     1.0  0.76992  0.36178  0.86627  1.0000
  S   S1148     1.0  0.76320  0.35159  0.85890  1.0000
  S   S1149     1.0  0.77964  0.38089  0.87905  1.0000
  S   S1150     1.0  0.78311  0.35490  0.87636  1.0000
  C   C4188     1.0  0.72563  0.35273  0.86835  1.0000
  C   C4189     1.0  0.73199  0.35071  0.85807  1.0000
  C   C4190     1.0  0.74347  0.35050  0.85524  1.0000
  C   C4191     1.0  0.74865  0.35257  0.86255  1.0000
  C   C4192     1.0  0.74226  0.35478  0.87279  1.0000
  C   C4193     1.0  0.73076  0.35477  0.87574  1.0000
  H   H5004     1.0  0.72806  0.34917  0.85230  1.0000
  H   H5005     1.0  0.74838  0.34871  0.84735  1.0000
  H   H5006     1.0  0.74627  0.35604  0.87859  1.0000
  H   H5007     1.0  0.72592  0.35626  0.88373  1.0000
  C   C4194     1.0  0.82371  0.36889  0.82333  1.0000
  C   C4195     1.0  0.81308  0.36652  0.82825  1.0000
  C   C4196     1.0  0.80807  0.36728  0.83931  1.0000
  C   C4197     1.0  0.81375  0.37024  0.84561  1.0000
  C   C4198     1.0  0.82433  0.37275  0.84065  1.0000
  C   C4199     1.0  0.82924  0.37221  0.82952  1.0000
  H   H5008     1.0  0.80874  0.36394  0.82354  1.0000
  H   H5009     1.0  0.79998  0.36522  0.84305  1.0000
  H   H5010     1.0  0.82876  0.37506  0.84547  1.0000
  H   H5011     1.0  0.83735  0.37420  0.82581  1.0000
  C   C4200     1.0  0.65366  0.31652  0.88968  1.0000
  C   C4201     1.0  0.65702  0.32677  0.88544  1.0000
  C   C4202     1.0  0.66263  0.33066  0.89125  1.0000
  C   C4203     1.0  0.66518  0.32428  0.90135  1.0000
  C   C4204     1.0  0.66152  0.31418  0.90575  1.0000
  C   C4205     1.0  0.65580  0.31033  0.89999  1.0000
  H   H5012     1.0  0.65532  0.33173  0.87755  1.0000
  H   H5013     1.0  0.66492  0.33865  0.88795  1.0000
  H   H5014     1.0  0.66330  0.30919  0.91360  1.0000
  H   H5015     1.0  0.65322  0.30247  0.90345  1.0000
  C   C4206     1.0  0.63748  0.25587  0.86167  1.0000
  H   H5016     1.0  0.51221  0.25241  0.86805  1.0000
  H   H5017     1.0  0.56377  0.27739  0.92830  1.0000
  H   H5018     1.0  0.65217  0.23938  0.90963  1.0000
  C   C4207     1.0  0.84362  0.34159  0.83369  1.0000
  H   H5019     1.0  0.66868  0.36919  0.95378  1.0000
  H   H5020     1.0  0.62450  0.25395  0.87649  1.0000
  H   H5021     1.0  0.57378  0.25271  0.93743  1.0000
  H   H5022     1.0  0.67860  0.36949  0.93427  1.0000
  H   H5023     1.0  0.64408  0.25832  0.96971  1.0000
  C   C4208     1.0  0.74765  0.42431  0.88839  1.0000
  C   C4209     1.0  0.73904  0.42307  0.88429  1.0000
  C   C4210     1.0  0.74138  0.41622  0.87676  1.0000
  C   C4211     1.0  0.75229  0.41034  0.87351  1.0000
  C   C4212     1.0  0.76093  0.41144  0.87768  1.0000
  C   C4213     1.0  0.75861  0.41852  0.88505  1.0000
  H   H5024     1.0  0.73053  0.42737  0.88690  1.0000
  H   H5025     1.0  0.73466  0.41538  0.87359  1.0000
  H   H5026     1.0  0.76940  0.40695  0.87510  1.0000
  H   H5027     1.0  0.76529  0.41940  0.88825  1.0000
  C   C4214     1.0  0.69482  0.41151  0.89770  1.0000
  C   C4215     1.0  0.68454  0.41206  0.90529  1.0000
  C   C4216     1.0  0.67954  0.40276  0.90916  1.0000
  C   C4217     1.0  0.68480  0.39281  0.90554  1.0000
  C   C4218     1.0  0.69534  0.39210  0.89837  1.0000
  C   C4219     1.0  0.70029  0.40144  0.89440  1.0000
  H   H5028     1.0  0.68016  0.41983  0.90774  1.0000
  H   H5029     1.0  0.67141  0.40338  0.91473  1.0000
  H   H5030     1.0  0.69950  0.38452  0.89551  1.0000
  H   H5031     1.0  0.70820  0.40097  0.88848  1.0000
  C   C4220     1.0  0.71884  0.35576  0.94944  1.0000
  C   C4221     1.0  0.70919  0.35842  0.94510  1.0000
  C   C4222     1.0  0.70867  0.35319  0.93698  1.0000
  C   C4223     1.0  0.71767  0.34494  0.93340  1.0000
  C   C4224     1.0  0.72734  0.34225  0.93775  1.0000
  C   C4225     1.0  0.72799  0.34775  0.94561  1.0000
  H   H5032     1.0  0.70202  0.36444  0.94818  1.0000
  H   H5033     1.0  0.70115  0.35528  0.93377  1.0000
  H   H5034     1.0  0.73432  0.33584  0.93510  1.0000
  H   H5035     1.0  0.73544  0.34557  0.94895  1.0000
  C   C4226     1.0  0.77351  0.34975  0.93834  1.0000
  C   C4227     1.0  0.78129  0.35309  0.92869  1.0000
  C   C4228     1.0  0.77830  0.35626  0.91829  1.0000
  C   C4229     1.0  0.76756  0.35604  0.91764  1.0000
  C   C4230     1.0  0.76002  0.35228  0.92726  1.0000
  C   C4231     1.0  0.76299  0.34911  0.93753  1.0000
  H   H5036     1.0  0.78943  0.35366  0.92929  1.0000
  H   H5037     1.0  0.78416  0.35916  0.91087  1.0000
  H   H5038     1.0  0.75170  0.35207  0.92685  1.0000
  H   H5039     1.0  0.75698  0.34645  0.94493  1.0000
  C   C4232     1.0  0.73655  0.40561  0.94986  1.0000
  C   C4233     1.0  0.73615  0.41349  0.93996  1.0000
  C   C4234     1.0  0.72582  0.41931  0.93744  1.0000
  C   C4235     1.0  0.71587  0.41754  0.94496  1.0000
  C   C4236     1.0  0.71626  0.40982  0.95499  1.0000
  C   C4237     1.0  0.72661  0.40377  0.95738  1.0000
  H   H5040     1.0  0.74383  0.41495  0.93414  1.0000
  H   H5041     1.0  0.72564  0.42518  0.92966  1.0000
  H   H5042     1.0  0.70857  0.40843  0.96082  1.0000
  H   H5043     1.0  0.91178  0.39610  0.80858  1.0000
  S   S1151     1.0  0.88619  0.35606  0.79891  1.0000
  C   C4238     1.0  0.55939  0.24355  0.95645  1.0000
  C   C4239     1.0  0.71134  0.47541  0.91918  1.0000
  C   C4240     1.0  0.50463  0.26463  0.89027  1.0000
  H   H5044     1.0  0.71979  0.47682  0.93102  1.0000
  H   H5045     1.0  0.71082  0.46689  0.92302  1.0000
  C   C4241     1.0  0.57657  0.27669  0.88657  1.0000
  C   C4242     1.0  0.58831  0.27376  0.88366  1.0000
  C   C4243     1.0  0.59496  0.27937  0.88637  1.0000
  C   C4244     1.0  0.58994  0.28806  0.89195  1.0000
  C   C4245     1.0  0.57820  0.29112  0.89473  1.0000
  C   C4246     1.0  0.57154  0.28543  0.89209  1.0000
  H   H5046     1.0  0.59233  0.26702  0.87941  1.0000
  H   H5047     1.0  0.60397  0.27696  0.88411  1.0000
  H   H5048     1.0  0.57423  0.29785  0.89901  1.0000
  H   H5049     1.0  0.56251  0.28784  0.89429  1.0000
  H   H5050     1.0  0.85017  0.35869  0.81853  1.0000
  H   H5051     1.0  0.84689  0.43334  0.78283  1.0000
  C   C4247     1.0  0.61095  0.25947  0.94062  1.0000
  C   C4248     1.0  0.61468  0.26945  0.93704  1.0000
  C   C4249     1.0  0.62464  0.27010  0.92905  1.0000
  C   C4250     1.0  0.63100  0.26067  0.92500  1.0000
  C   C4251     1.0  0.62721  0.25077  0.92855  1.0000
  C   C4252     1.0  0.61702  0.25032  0.93604  1.0000
  H   H5052     1.0  0.60993  0.27660  0.94048  1.0000
  H   H5053     1.0  0.62751  0.27783  0.92614  1.0000
  C   C4253     1.0  0.60194  0.24304  0.91266  1.0000
  S   S1152     1.0  0.85579  0.41014  0.79007  1.0000
  H   H5054     1.0  0.58818  0.27868  0.91447  1.0000
  H   H5055     1.0  0.75954  0.46413  0.88979  1.0000
  N   N279      1.0  0.69679  0.32735  0.87167  1.0000
  C   C4254     1.0  0.54724  0.25241  0.94335  1.0000
  H   H5056     1.0  0.50843  0.24440  0.91882  1.0000
  H   H5057     1.0  0.55355  0.26130  0.95148  1.0000
  C   C4255     1.0  0.51129  0.26083  0.88084  1.0000
  H   H5058     1.0  0.63162  0.32419  0.90453  1.0000
  H   H5059     1.0  0.98321  0.37652  0.78898  1.0000
  S   S1153     1.0  0.74669  0.34964  0.97403  1.0000
  H   H5060     1.0  0.72685  0.39782  0.96511  1.0000
  H   H5061     1.0  0.86061  0.32404  0.83137  1.0000
  C   C4256     1.0  0.83320  0.34019  0.83282  1.0000
  C   C4257     1.0  0.70078  0.33285  0.85998  1.0000
  H   H5062     1.0  0.59441  0.27037  0.92581  1.0000
  C   C4258     1.0  0.59756  0.24198  0.90427  1.0000
  H   H5063     1.0  0.60003  0.25160  0.92533  1.0000
  H   H5064     1.0  0.63273  0.26800  0.96426  1.0000
  C   C4259     1.0  0.68345  0.48624  0.92745  1.0000
  C   C4260     1.0  0.58577  0.25793  0.91737  1.0000
  C   C4261     1.0  0.68911  0.33600  0.87742  1.0000
  H   H5065     1.0  0.84948  0.33051  0.81644  1.0000
  H   H5066     1.0  0.90643  0.38620  0.78818  1.0000
  H   H5067     1.0  0.57779  0.26293  0.84818  1.0000
  H   H5068     1.0  0.87063  0.33148  0.82152  1.0000
  H   H5069     1.0  0.59994  0.24434  0.86976  1.0000
  H   H5070     1.0  0.81707  0.34436  0.85788  1.0000
  H   H5071     1.0  0.65843  0.24388  0.88501  1.0000
  H   H5072     1.0  0.67588  0.48752  0.91399  1.0000
  H   H5073     1.0  0.57251  0.26520  0.94208  1.0000
  H   H5074     1.0  0.69124  0.48691  0.93973  1.0000
  H   H5075     1.0  0.64440  0.25040  0.88298  1.0000
  N   N280      1.0  0.72951  0.39141  0.85730  1.0000
  C   C4262     1.0  0.73238  0.38409  0.84926  1.0000
  C   C4263     1.0  0.73362  0.40174  0.85135  1.0000
  C   C4264     1.0  0.73569  0.38579  0.86624  1.0000
  C   C4265     1.0  0.71734  0.39347  0.86221  1.0000
  C   C4266     1.0  0.71178  0.38447  0.86666  1.0000
  C   C4267     1.0  0.71081  0.40425  0.86327  1.0000
  C   C4268     1.0  0.70035  0.38618  0.87148  1.0000
  C   C4269     1.0  0.69938  0.40586  0.86815  1.0000
  C   C4270     1.0  0.69415  0.39687  0.87218  1.0000
  H   H5076     1.0  0.72713  0.38748  0.84294  1.0000
  H   H5077     1.0  0.74134  0.38314  0.84484  1.0000
  H   H5078     1.0  0.73134  0.37547  0.85331  1.0000
  H   H5079     1.0  0.72901  0.40660  0.84474  1.0000
  H   H5080     1.0  0.74271  0.39989  0.84740  1.0000
  H   H5081     1.0  0.73297  0.40713  0.85710  1.0000
  H   H5082     1.0  0.73318  0.37788  0.87102  1.0000
  H   H5083     1.0  0.74487  0.38376  0.86280  1.0000
  H   H5084     1.0  0.73428  0.39120  0.87219  1.0000
  H   H5085     1.0  0.71624  0.37599  0.86663  1.0000
  H   H5086     1.0  0.71436  0.41156  0.86063  1.0000
  H   H5087     1.0  0.69634  0.37913  0.87490  1.0000
  H   H5088     1.0  0.69463  0.41410  0.86919  1.0000
  H   H5089     1.0  0.68536  0.39813  0.87625  1.0000
  N   N281      1.0  0.75101  0.33438  0.90421  1.0000
  C   C4271     1.0  0.74397  0.34543  0.90568  1.0000
  C   C4272     1.0  0.74859  0.32609  0.91469  1.0000
  C   C4273     1.0  0.76290  0.33503  0.90227  1.0000
  C   C4274     1.0  0.74840  0.33121  0.89508  1.0000
  C   C4275     1.0  0.75633  0.32986  0.88505  1.0000
  C   C4276     1.0  0.73755  0.32960  0.89599  1.0000
  C   C4277     1.0  0.75353  0.32696  0.87658  1.0000
  C   C4278     1.0  0.73482  0.32678  0.88743  1.0000
  C   C4279     1.0  0.74279  0.32547  0.87774  1.0000
  H   H5090     1.0  0.73489  0.34566  0.90731  1.0000
  H   H5091     1.0  0.74534  0.34789  0.91279  1.0000
  H   H5092     1.0  0.74594  0.35203  0.89820  1.0000
  H   H5093     1.0  0.73954  0.32599  0.91755  1.0000
  H   H5094     1.0  0.75101  0.32792  0.92160  1.0000
  H   H5095     1.0  0.75319  0.31754  0.91372  1.0000
  H   H5096     1.0  0.76513  0.34173  0.89498  1.0000
  H   H5097     1.0  0.76465  0.33713  0.90942  1.0000
  H   H5098     1.0  0.76869  0.32700  0.90104  1.0000
  H   H5099     1.0  0.76466  0.33135  0.88335  1.0000
  H   H5100     1.0  0.73100  0.33074  0.90325  1.0000
  H   H5101     1.0  0.75960  0.32639  0.86885  1.0000
  H   H5102     1.0  0.72639  0.32588  0.88823  1.0000
  H   H5103     1.0  0.74058  0.32363  0.87096  1.0000
  H   H5104     1.0  0.68940  0.31272  0.89074  1.0000
  H   H5105     1.0  0.69307  0.34301  0.87657  1.0000
  H   H5106     1.0  0.56447  0.24421  0.96167  1.0000
  N   N282      1.0  0.57962  0.26585  0.92463  1.0000
  H   H5107     1.0  0.68642  0.33268  0.88646  1.0000
  C   C4280     1.0  0.68767  0.31160  0.88337  1.0000
  H   H5108     1.0  0.87830  0.41466  0.79893  1.0000
  H   H5109     1.0  0.62981  0.25922  0.97764  1.0000
  H   H5110     1.0  0.51966  0.26237  0.87764  1.0000
  H   H5111     1.0  0.69369  0.33756  0.85590  1.0000
  C   C4281     1.0  0.63355  0.24069  0.90235  1.0000
  H   H5112     1.0  0.56906  0.27731  0.91400  1.0000
  H   H5113     1.0  0.71231  0.31558  0.87323  1.0000
  H   H5114     1.0  0.75277  0.45254  0.89558  1.0000
  C   C4282     1.0  0.68169  0.30345  0.88475  1.0000
  C   C4283     1.0  0.84402  0.34382  0.84381  1.0000
  C   C4284     1.0  0.71630  0.48111  0.92380  1.0000
  C   C4285     1.0  0.70674  0.32271  0.87676  1.0000
  C   C4286     1.0  0.64336  0.25152  0.85235  1.0000
  C   C4287     1.0  0.73165  0.46493  0.89632  1.0000
  C   C4288     1.0  0.78593  0.35173  0.97725  1.0000
  C   C4289     1.0  0.54660  0.24192  0.94255  1.0000
  H   H5115     1.0  0.81586  0.34027  0.84060  1.0000
  H   H5116     1.0  0.63905  0.24729  0.94763  1.0000
  H   H5117     1.0  0.79092  0.33049  0.97527  1.0000
  C   C4290     1.0  0.62068  0.30518  0.92557  1.0000
  C   C4291     1.0  0.59746  0.24754  0.84896  1.0000
  C   C4292     1.0  0.82384  0.34093  0.84158  1.0000
  C   C4293     1.0  0.89740  0.37304  0.79271  1.0000
  H   H5118     1.0  0.88412  0.39804  0.79199  1.0000
  H   H5119     1.0  0.58572  0.25625  0.93922  1.0000
  H   H5120     1.0  0.88928  0.37834  0.79481  1.0000
  C   C4294     1.0  0.58157  0.25668  0.90872  1.0000
  N   N283      1.0  0.59070  0.25420  0.85732  1.0000
  H   H5121     1.0  0.67267  0.38068  0.96434  1.0000
  C   C4295     1.0  0.59514  0.26418  0.85600  1.0000
  C   C4296     1.0  0.58804  0.27474  0.85702  1.0000
  C   C4297     1.0  0.59241  0.28386  0.85641  1.0000
  H   H5122     1.0  0.63254  0.24803  0.90586  1.0000
  C   C4298     1.0  0.91760  0.37063  0.78631  1.0000
  H   H5123     1.0  0.85155  0.34523  0.84501  1.0000
  C   C4299     1.0  0.91849  0.35924  0.78743  1.0000
  C   C4300     1.0  0.62921  0.25058  0.86931  1.0000
  H   H5124     1.0  0.57903  0.27610  0.85871  1.0000
  H   H5125     1.0  0.58680  0.29175  0.85752  1.0000
  N   N284      1.0  0.69947  0.39452  0.93461  1.0000
  C   C4301     1.0  0.69343  0.40631  0.93287  1.0000
  C   C4302     1.0  0.70740  0.39272  0.94188  1.0000
  C   C4303     1.0  0.70628  0.39234  0.92373  1.0000
  C   C4304     1.0  0.69119  0.38739  0.93978  1.0000
  C   C4305     1.0  0.68853  0.38082  0.93393  1.0000
  C   C4306     1.0  0.68507  0.38730  0.95084  1.0000
  C   C4307     1.0  0.68049  0.37437  0.93897  1.0000
  C   C4308     1.0  0.67713  0.38073  0.95584  1.0000
  H   H5126     1.0  0.59355  0.24069  0.84906  1.0000
  H   H5127     1.0  0.68912  0.40891  0.94083  1.0000
  H   H5128     1.0  0.69921  0.41200  0.92835  1.0000
  H   H5129     1.0  0.68700  0.40783  0.92794  1.0000
  H   H5130     1.0  0.70332  0.39568  0.94968  1.0000
  H   H5131     1.0  0.71417  0.39741  0.93783  1.0000
  H   H5132     1.0  0.71138  0.38373  0.94416  1.0000
  H   H5133     1.0  0.70109  0.39470  0.91742  1.0000
  H   H5134     1.0  0.71290  0.39730  0.92028  1.0000
  H   H5135     1.0  0.71047  0.38341  0.92449  1.0000
  H   H5136     1.0  0.69252  0.38049  0.92542  1.0000
  H   H5137     1.0  0.68635  0.39237  0.95568  1.0000
  H   H5138     1.0  0.56305  0.26601  0.92327  1.0000
  H   H5139     1.0  0.64920  0.25291  0.89365  1.0000
  H   H5140     1.0  0.64970  0.25551  0.84638  1.0000
  C   C4309     1.0  0.55327  0.25320  0.95065  1.0000
  N   N285      1.0  0.74890  0.39214  0.91398  1.0000
  C   C4310     1.0  0.74299  0.40388  0.91382  1.0000
  C   C4311     1.0  0.75276  0.38768  0.92458  1.0000
  C   C4312     1.0  0.75899  0.39181  0.90486  1.0000
  C   C4313     1.0  0.74139  0.38588  0.91243  1.0000
  C   C4314     1.0  0.73837  0.37637  0.92030  1.0000
  C   C4315     1.0  0.73693  0.38922  0.90273  1.0000
  C   C4316     1.0  0.73160  0.37045  0.91836  1.0000
  C   C4317     1.0  0.73005  0.38331  0.90094  1.0000
  C   C4318     1.0  0.72749  0.37386  0.90870  1.0000
  H   H5141     1.0  0.74838  0.40891  0.91488  1.0000
  H   H5142     1.0  0.74037  0.40812  0.90589  1.0000
  H   H5143     1.0  0.73535  0.40447  0.92057  1.0000
  H   H5144     1.0  0.74561  0.38808  0.93185  1.0000
  H   H5145     1.0  0.75836  0.39259  0.92547  1.0000
  H   H5146     1.0  0.75764  0.37894  0.92514  1.0000
  H   H5147     1.0  0.76373  0.38309  0.90481  1.0000
  H   H5148     1.0  0.75690  0.39536  0.89659  1.0000
  H   H5149     1.0  0.76477  0.39660  0.90557  1.0000
  H   H5150     1.0  0.74134  0.37315  0.92792  1.0000
  H   H5151     1.0  0.73885  0.39638  0.89635  1.0000
  H   H5152     1.0  0.72955  0.36315  0.92440  1.0000
  H   H5153     1.0  0.72675  0.38603  0.89348  1.0000
  H   H5154     1.0  0.72223  0.36922  0.90729  1.0000
  S   S1154     1.0  0.73337  0.37535  0.97416  1.0000
  C   C4319     1.0  0.68117  0.30888  0.86538  1.0000
  H   H5155     1.0  0.70445  0.31982  0.88589  1.0000
  H   H5156     1.0  0.75195  0.46604  0.87293  1.0000
  H   H5157     1.0  0.62260  0.29958  0.93315  1.0000
  H   H5158     1.0  0.72426  0.46977  0.89274  1.0000
  H   H5159     1.0  0.73190  0.45595  0.89738  1.0000
  H   H5160     1.0  0.73009  0.46643  0.90478  1.0000
  C   C4320     1.0  0.67835  0.30217  0.87581  1.0000
  H   H5161     1.0  0.73694  0.46802  0.87449  1.0000
  H   H5162     1.0  0.67328  0.29618  0.87703  1.0000
  H   H5163     1.0  0.84533  0.34529  0.81094  1.0000
  H   H5164     1.0  0.67833  0.30798  0.85851  1.0000
  C   C4321     1.0  0.74408  0.46419  0.87871  1.0000
  C   C4322     1.0  0.90013  0.41028  0.78612  1.0000
  H   H5165     1.0  0.75015  0.46302  0.90316  1.0000
  N   N286      1.0  0.85369  0.34107  0.82455  1.0000
  C   C4323     1.0  0.68734  0.31693  0.86384  1.0000
  C   C4324     1.0  0.82450  0.34322  0.85134  1.0000
  H   H5166     1.0  0.74490  0.45499  0.88029  1.0000
  H   H5167     1.0  0.70566  0.33911  0.85940  1.0000
  N   N287      1.0  0.74213  0.46798  0.88917  1.0000
  C   C4325     1.0  0.57781  0.25974  0.93633  1.0000
  C   C4326     1.0  0.92114  0.40187  0.79233  1.0000
  H   H5168     1.0  0.89363  0.40308  0.80344  1.0000
  H   H5169     1.0  0.67921  0.29843  0.89292  1.0000
  Fe  Fe573     1.0  0.59863  0.23992  0.95591  1.0000
  C   C4327     1.0  0.56842  0.27189  0.92240  1.0000
  H   H5170     1.0  0.70635  0.32670  0.85508  1.0000
  C   C4328     1.0  0.89828  0.36165  0.79406  1.0000
  C   C4329     1.0  0.69081  0.31851  0.87284  1.0000
  H   H5171     1.0  0.86564  0.33402  0.83514  1.0000
  C   C4330     1.0  0.61108  0.27254  0.85384  1.0000
  C   C4331     1.0  0.85191  0.33865  0.81455  1.0000
  H   H5172     1.0  0.85962  0.33833  0.80784  1.0000
  H   H5173     1.0  0.73016  0.41082  0.97651  1.0000
  C   C4332     1.0  0.64066  0.25240  0.95254  1.0000
  H   H5174     1.0  0.68591  0.47723  0.92886  1.0000
  H   H5175     1.0  0.61275  0.25557  0.85398  1.0000
  C   C4333     1.0  0.90885  0.35473  0.79150  1.0000
  H   H5176     1.0  0.71174  0.32908  0.87538  1.0000
  H   H5177     1.0  0.85951  0.35404  0.82784  1.0000
  H   H5178     1.0  0.63539  0.31192  0.92166  1.0000
  C   C4334     1.0  0.62199  0.25299  0.96371  1.0000
  H   H5179     1.0  0.58769  0.23972  0.87000  1.0000
  C   C4335     1.0  0.91132  0.40065  0.80019  1.0000
  Fe  Fe574     1.0  0.87088  0.36847  0.79444  1.0000
  C   C4336     1.0  0.62786  0.31213  0.91910  1.0000
  N   N288      1.0  0.61324  0.32684  0.89495  1.0000
  C   C4337     1.0  0.62071  0.33483  0.88955  1.0000
  C   C4338     1.0  0.61441  0.31981  0.88708  1.0000
  C   C4339     1.0  0.60157  0.33342  0.89691  1.0000
  C   C4340     1.0  0.61586  0.31959  0.90550  1.0000
  C   C4341     1.0  0.60880  0.31228  0.91222  1.0000
  H   H5180     1.0  0.62955  0.33047  0.88696  1.0000
  H   H5181     1.0  0.61835  0.34039  0.88184  1.0000
  H   H5182     1.0  0.62044  0.34022  0.89515  1.0000
  H   H5183     1.0  0.62307  0.31473  0.88545  1.0000
  H   H5184     1.0  0.61263  0.32487  0.87896  1.0000
  H   H5185     1.0  0.60865  0.31393  0.89028  1.0000
  H   H5186     1.0  0.60010  0.33813  0.90348  1.0000
  H   H5187     1.0  0.59961  0.33951  0.88928  1.0000
  H   H5188     1.0  0.59528  0.32812  0.89948  1.0000
  H   H5189     1.0  0.60160  0.31164  0.90968  1.0000
  C   C4342     1.0  0.59120  0.24721  0.86851  1.0000
  N   N289      1.0  0.88921  0.41337  0.78284  1.0000
  H   H5190     1.0  0.59843  0.25284  0.84045  1.0000
  H   H5191     1.0  0.57382  0.26177  0.90667  1.0000
  C   C4343     1.0  0.62555  0.31923  0.90921  1.0000
  C   C4344     1.0  0.60390  0.28276  0.85484  1.0000
  H   H5192     1.0  0.68143  0.33955  0.87399  1.0000
  C   C4345     1.0  0.67486  0.37425  0.94992  1.0000
  H   H5193     1.0  0.54175  0.24126  0.93712  1.0000
  H   H5194     1.0  0.60725  0.28979  0.85459  1.0000
  H   H5195     1.0  0.92919  0.39825  0.79458  1.0000
  C   C4346     1.0  0.61117  0.30524  0.92213  1.0000
  C   C4347     1.0  0.59624  0.25099  0.91901  1.0000
  C   C4348     1.0  0.90095  0.40477  0.79717  1.0000
  C   C4349     1.0  0.60681  0.26335  0.85449  1.0000
  H   H5196     1.0  0.83190  0.33893  0.82534  1.0000
  C   C4350     1.0  0.75155  0.46170  0.89465  1.0000
  H   H5197     1.0  0.60577  0.29960  0.92701  1.0000
  C   C4351     1.0  0.58627  0.27420  0.92326  1.0000
  C   C4352     1.0  0.63523  0.25944  0.96917  1.0000
  H   H5198     1.0  0.68908  0.32193  0.85558  1.0000
  Fe  Fe575     1.0  0.85756  0.39217  0.79010  1.0000
  H   H5199     1.0  0.62813  0.24324  0.89619  1.0000
  H   H5200     1.0  0.58176  0.28051  0.92835  1.0000
  H   H5201     1.0  0.73897  0.47986  0.90510  1.0000
  Fe  Fe576     1.0  0.54272  0.24453  0.90578  1.0000
  C   C4353     1.0  0.74116  0.48010  0.88756  1.0000
  C   C4354     1.0  0.83456  0.34468  0.85245  1.0000
  H   H5202     1.0  0.86450  0.35198  0.81402  1.0000
  C   C4355     1.0  0.86302  0.33226  0.82833  1.0000
  C   C4356     1.0  0.58742  0.24883  0.90227  1.0000
  H   H5203     1.0  0.74243  0.48472  0.86954  1.0000
  C   C4357     1.0  0.64124  0.24204  0.85061  1.0000
  H   H5204     1.0  0.58401  0.24817  0.89566  1.0000
  H   H5205     1.0  0.61893  0.26161  0.95925  1.0000
  H   H5206     1.0  0.57594  0.24946  0.85635  1.0000
  H   H5207     1.0  0.63200  0.24351  0.92532  1.0000
  C   C4358     1.0  0.73965  0.48488  0.89677  1.0000
  C   C4359     1.0  0.64956  0.24633  0.88931  1.0000
  N   N290      1.0  0.63395  0.25086  0.96408  1.0000
  H   H5208     1.0  0.88336  0.42703  0.79118  1.0000
  H   H5209     1.0  0.61381  0.24289  0.93810  1.0000
  H   H5210     1.0  0.60595  0.24328  0.85051  1.0000
  C   C4360     1.0  0.63742  0.23932  0.97024  1.0000
  H   H5211     1.0  0.63864  0.26115  0.94786  1.0000
  H   H5212     1.0  0.61659  0.25182  0.97216  1.0000
  H   H5213     1.0  0.57299  0.26054  0.86311  1.0000
  H   H5214     1.0  0.79486  0.35203  0.97585  1.0000
  C   C4361     1.0  0.70684  0.48081  0.90982  1.0000
  H   H5215     1.0  0.77159  0.34055  0.97676  1.0000
  H   H5216     1.0  0.64602  0.23882  0.84335  1.0000
  C   C4362     1.0  0.90706  0.37746  0.78903  1.0000
  H   H5217     1.0  0.78467  0.35156  0.96904  1.0000
  H   H5218     1.0  0.78079  0.35970  0.97945  1.0000
  C   C4363     1.0  0.88582  0.40301  0.78338  1.0000
  C   C4364     1.0  0.88054  0.41979  0.79048  1.0000
  H   H5219     1.0  0.74172  0.41537  0.97756  1.0000
  H   H5220     1.0  0.74314  0.39232  0.97516  1.0000
  H   H5221     1.0  0.75425  0.39721  0.97670  1.0000
  H   H5222     1.0  0.87250  0.42300  0.78763  1.0000
  S   S1155     1.0  0.85880  0.36187  0.78944  1.0000
  H   H5223     1.0  0.64979  0.25015  0.95242  1.0000
  H   H5224     1.0  0.62039  0.24729  0.95944  1.0000
  C   C4365     1.0  0.50295  0.23980  0.91727  1.0000
  H   H5225     1.0  0.51314  0.24180  0.89593  1.0000
  C   C4366     1.0  0.74148  0.48751  0.87701  1.0000
  H   H5226     1.0  0.92663  0.35388  0.78541  1.0000
  S   S1156     1.0  0.84440  0.38751  0.78485  1.0000
  H   H5227     1.0  0.52312  0.23917  0.90414  1.0000
  C   C4367     1.0  0.98869  0.37195  0.78288  1.0000
  C   C4368     1.0  0.74706  0.39331  0.98143  1.0000
  Fe  Fe577     1.0  0.62254  0.71164  0.13216  1.0000
  S   S1157     1.0  0.61902  0.70056  0.14899  1.0000
  C   C4369     1.0  0.53708  0.69012  0.15333  1.0000
  Fe  Fe578     1.0  0.61805  0.69599  0.12081  1.0000
  S   S1158     1.0  0.61401  0.68344  0.13657  1.0000
  S   S1159     1.0  0.61611  0.69536  0.10417  1.0000
  Fe  Fe579     1.0  0.60447  0.69829  0.14380  1.0000
  S   S1160     1.0  0.62615  0.72884  0.12723  1.0000
  Fe  Fe580     1.0  0.62898  0.68654  0.14047  1.0000
  S   S1161     1.0  0.64093  0.67245  0.14918  1.0000
  S   S1162     1.0  0.60719  0.71047  0.12775  1.0000
  S   S1163     1.0  0.63380  0.69790  0.12403  1.0000
  Fe  Fe581     1.0  0.69956  0.63576  0.12740  1.0000
  S   S1164     1.0  0.71672  0.63314  0.13068  1.0000
  S   S1165     1.0  0.68886  0.65283  0.12237  1.0000
  Fe  Fe582     1.0  0.70273  0.61149  0.12650  1.0000
  S   S1166     1.0  0.71988  0.60683  0.12981  1.0000
  S   S1167     1.0  0.69434  0.60000  0.12272  1.0000
  Fe  Fe583     1.0  0.71285  0.61741  0.14239  1.0000
  S   S1168     1.0  0.71905  0.60941  0.15814  1.0000
  Fe  Fe584     1.0  0.72243  0.62277  0.11790  1.0000
  S   S1169     1.0  0.73865  0.62266  0.10544  1.0000
  S   S1170     1.0  0.69510  0.62078  0.14026  1.0000
  S   S1171     1.0  0.70579  0.62666  0.11348  1.0000
  Fe  Fe585     1.0  0.80358  0.58856  0.16119  1.0000
  S   S1172     1.0  0.78600  0.58548  0.16770  1.0000
  S   S1173     1.0  0.81373  0.58721  0.17415  1.0000
  Fe  Fe586     1.0  0.80168  0.59090  0.13688  1.0000
  S   S1174     1.0  0.78411  0.58863  0.14177  1.0000
  S   S1175     1.0  0.81067  0.59275  0.11886  1.0000
  Fe  Fe587     1.0  0.78177  0.59956  0.15356  1.0000
  S   S1176     1.0  0.76803  0.61487  0.15427  1.0000
  Fe  Fe588     1.0  0.79009  0.57472  0.15523  1.0000
  S   S1177     1.0  0.78800  0.55736  0.15628  1.0000
  S   S1178     1.0  0.79901  0.60315  0.14754  1.0000
  S   S1179     1.0  0.80802  0.57654  0.14985  1.0000
  Fe  Fe589     1.0  0.78651  0.58823  0.06871  1.0000
  S   S1180     1.0  0.77926  0.57432  0.08058  1.0000
  S   S1181     1.0  0.79428  0.59898  0.07458  1.0000
  Fe  Fe590     1.0  0.77939  0.58458  0.04896  1.0000
  S   S1182     1.0  0.77142  0.57052  0.05959  1.0000
  S   S1183     1.0  0.77796  0.59126  0.03100  1.0000
  Fe  Fe591     1.0  0.76488  0.58116  0.07211  1.0000
  S   S1184     1.0  0.74732  0.58287  0.08196  1.0000
  Fe  Fe592     1.0  0.78664  0.56514  0.06683  1.0000
  S   S1185     1.0  0.79509  0.54718  0.06990  1.0000
  S   S1186     1.0  0.77149  0.59581  0.06102  1.0000
  S   S1187     1.0  0.79528  0.57845  0.05541  1.0000
  Fe  Fe593     1.0  0.73185  0.54033  0.12315  1.0000
  S   S1188     1.0  0.74757  0.54389  0.12464  1.0000
  S   S1189     1.0  0.72048  0.55260  0.11257  1.0000
  Fe  Fe594     1.0  0.73546  0.51706  0.13785  1.0000
  S   S1190     1.0  0.75112  0.51915  0.14135  1.0000
  Fe  Fe595     1.0  0.51219  0.73621  0.13942  1.0000
  Fe  Fe596     1.0  0.74217  0.53660  0.14269  1.0000
  S   S1191     1.0  0.74256  0.54689  0.15436  1.0000
  Fe  Fe597     1.0  0.75531  0.52626  0.12317  1.0000
  S   S1192     1.0  0.77265  0.51905  0.11479  1.0000
  S   S1193     1.0  0.72585  0.53387  0.14130  1.0000
  S   S1194     1.0  0.74023  0.52336  0.11955  1.0000
  C   C4370     1.0  0.70986  0.56195  0.14886  1.0000
  Fe  Fe598     1.0  0.75508  0.56941  0.99127  1.0000
  S   S1195     1.0  0.76098  0.56314  0.00749  1.0000
  C   C4371     1.0  0.79288  0.56165  0.99649  1.0000
  S   S1196     1.0  0.54868  0.70918  0.12917  1.0000
  H   H5228     1.0  0.71761  0.55598  0.14974  1.0000
  C   C4372     1.0  0.70726  0.57216  0.15233  1.0000
  C   C4373     1.0  0.66892  0.69964  0.12533  1.0000
  H   H5229     1.0  0.77659  0.63530  0.17732  1.0000
  H   H5230     1.0  0.78677  0.53068  0.98522  1.0000
  C   C4374     1.0  0.62054  0.72821  0.07992  1.0000
  C   C4375     1.0  0.61709  0.73238  0.14835  1.0000
  H   H5231     1.0  0.72164  0.55762  0.16492  1.0000
  N   N291      1.0  0.71507  0.57475  0.15749  1.0000
  H   H5232     1.0  0.52451  0.67988  0.14639  1.0000
  C   C4376     1.0  0.76530  0.57132  0.01393  1.0000
  C   C4377     1.0  0.76856  0.56637  0.02407  1.0000
  C   C4378     1.0  0.77244  0.57240  0.02935  1.0000
  C   C4379     1.0  0.77316  0.58345  0.02451  1.0000
  C   C4380     1.0  0.76996  0.58841  0.01432  1.0000
  C   C4381     1.0  0.76597  0.58239  0.00907  1.0000
  H   H5233     1.0  0.76817  0.55777  0.02782  1.0000
  H   H5234     1.0  0.77511  0.56839  0.03704  1.0000
  H   H5235     1.0  0.77053  0.59695  0.01050  1.0000
  H   H5236     1.0  0.76346  0.58630  0.00128  1.0000
  C   C4382     1.0  0.78865  0.53966  0.08246  1.0000
  C   C4383     1.0  0.79401  0.52878  0.08647  1.0000
  C   C4384     1.0  0.78908  0.52259  0.09651  1.0000
  C   C4385     1.0  0.77873  0.52724  0.10253  1.0000
  C   C4386     1.0  0.77333  0.53815  0.09858  1.0000
  C   C4387     1.0  0.77831  0.54438  0.08852  1.0000
  H   H5237     1.0  0.80200  0.52513  0.08179  1.0000
  H   H5238     1.0  0.79325  0.51415  0.09955  1.0000
  H   H5239     1.0  0.76523  0.54161  0.10313  1.0000
  H   H5240     1.0  0.77402  0.55268  0.08528  1.0000
  C   C4388     1.0  0.77527  0.55463  0.15579  1.0000
  C   C4389     1.0  0.77555  0.54553  0.15153  1.0000
  C   C4390     1.0  0.76559  0.54317  0.15089  1.0000
  C   C4391     1.0  0.75525  0.54976  0.15476  1.0000
  C   C4392     1.0  0.75496  0.55877  0.15919  1.0000
  C   C4393     1.0  0.76494  0.56125  0.15963  1.0000
  C   C4394     1.0  0.51653  0.68529  0.14977  1.0000
  H   H5241     1.0  0.76589  0.53609  0.14766  1.0000
  H   H5242     1.0  0.74699  0.56381  0.16235  1.0000
  H   H5243     1.0  0.76462  0.56814  0.16315  1.0000
  C   C4395     1.0  0.80553  0.59360  0.10706  1.0000
  C   C4396     1.0  0.79445  0.59324  0.10751  1.0000
  C   C4397     1.0  0.79096  0.59425  0.09763  1.0000
  C   C4398     1.0  0.79857  0.59544  0.08734  1.0000
  C   C4399     1.0  0.80958  0.59566  0.08704  1.0000
  C   C4400     1.0  0.81303  0.59470  0.09679  1.0000
  H   H5244     1.0  0.78853  0.59249  0.11536  1.0000
  H   H5245     1.0  0.78227  0.59484  0.09786  1.0000
  H   H5246     1.0  0.81543  0.59690  0.07915  1.0000
  H   H5247     1.0  0.82157  0.59503  0.09631  1.0000
  C   C4401     1.0  0.74098  0.61158  0.09897  1.0000
  C   C4402     1.0  0.75164  0.60781  0.09289  1.0000
  C   C4403     1.0  0.75362  0.59882  0.08789  1.0000
  C   C4404     1.0  0.74491  0.59368  0.08879  1.0000
  C   C4405     1.0  0.73430  0.59726  0.09509  1.0000
  C   C4406     1.0  0.73235  0.60620  0.10020  1.0000
  H   H5248     1.0  0.75842  0.61172  0.09215  1.0000
  H   H5249     1.0  0.76192  0.59590  0.08337  1.0000
  H   H5250     1.0  0.72757  0.59321  0.09596  1.0000
  H   H5251     1.0  0.72411  0.60898  0.10498  1.0000
  C   C4407     1.0  0.70239  0.58714  0.11954  1.0000
  C   C4408     1.0  0.71293  0.58228  0.12215  1.0000
  C   C4409     1.0  0.71859  0.57158  0.12025  1.0000
  C   C4410     1.0  0.71381  0.56588  0.11545  1.0000
  C   C4411     1.0  0.70349  0.57095  0.11253  1.0000
  C   C4412     1.0  0.69775  0.58141  0.11471  1.0000
  H   H5252     1.0  0.71659  0.58664  0.12585  1.0000
  H   H5253     1.0  0.72661  0.56777  0.12245  1.0000
  H   H5254     1.0  0.69977  0.56664  0.10877  1.0000
  H   H5255     1.0  0.68963  0.58506  0.11267  1.0000
  C   C4413     1.0  0.73272  0.61082  0.15700  1.0000
  C   C4414     1.0  0.73600  0.62081  0.15133  1.0000
  C   C4415     1.0  0.74682  0.62199  0.15066  1.0000
  C   C4416     1.0  0.75456  0.61306  0.15527  1.0000
  C   C4417     1.0  0.75142  0.60294  0.16068  1.0000
  C   C4418     1.0  0.74042  0.60190  0.16175  1.0000
  H   H5256     1.0  0.73005  0.62777  0.14782  1.0000
  H   H5257     1.0  0.74914  0.62987  0.14658  1.0000
  H   H5258     1.0  0.75735  0.59602  0.16431  1.0000
  H   H5259     1.0  0.73791  0.59416  0.16615  1.0000
  H   H5260     1.0  0.61818  0.72058  0.00453  1.0000
  C   C4419     1.0  0.82139  0.60633  0.17267  1.0000
  H   H5261     1.0  0.56463  0.73520  0.15774  1.0000
  H   H5262     1.0  0.82767  0.62073  0.17178  1.0000
  H   H5263     1.0  0.81830  0.60986  0.16514  1.0000
  C   C4420     1.0  0.65413  0.66686  0.14159  1.0000
  C   C4421     1.0  0.65764  0.67129  0.13033  1.0000
  C   C4422     1.0  0.66821  0.66671  0.12450  1.0000
  C   C4423     1.0  0.67537  0.65771  0.12988  1.0000
  C   C4424     1.0  0.67181  0.65314  0.14110  1.0000
  C   C4425     1.0  0.66122  0.65774  0.14695  1.0000
  H   H5264     1.0  0.65223  0.67823  0.12608  1.0000
  H   H5265     1.0  0.67091  0.67027  0.11580  1.0000
  H   H5266     1.0  0.67729  0.64623  0.14533  1.0000
  H   H5267     1.0  0.65852  0.65426  0.15566  1.0000
  C   C4426     1.0  0.61815  0.70781  0.09464  1.0000
  C   C4427     1.0  0.61319  0.71142  0.08541  1.0000
  C   C4428     1.0  0.61418  0.72173  0.07819  1.0000
  H   H5268     1.0  0.78415  0.60844  0.16970  1.0000
  H   H5269     1.0  0.57125  0.72754  0.14689  1.0000
  C   C4429     1.0  0.62427  0.71446  0.09649  1.0000
  H   H5270     1.0  0.60845  0.70632  0.08394  1.0000
  H   H5271     1.0  0.74938  0.49866  0.11590  1.0000
  H   H5272     1.0  0.60799  0.73526  0.11244  1.0000
  H   H5273     1.0  0.62808  0.71178  0.10358  1.0000
  C   C4430     1.0  0.57644  0.70225  0.14797  1.0000
  H   H5274     1.0  0.65450  0.64271  0.13530  1.0000
  H   H5275     1.0  0.68020  0.69524  0.11049  1.0000
  C   C4431     1.0  0.55921  0.70610  0.13667  1.0000
  C   C4432     1.0  0.55715  0.71014  0.14627  1.0000
  C   C4433     1.0  0.56562  0.70784  0.15213  1.0000
  C   C4434     1.0  0.63688  0.66082  0.11993  1.0000
  H   H5276     1.0  0.87482  0.60957  0.15928  1.0000
  H   H5277     1.0  0.54895  0.71487  0.14932  1.0000
  H   H5278     1.0  0.56387  0.71076  0.15970  1.0000
  N   N292      1.0  0.65611  0.70348  0.14361  1.0000
  C   C4435     1.0  0.54476  0.68949  0.15957  1.0000
  C   C4436     1.0  0.60041  0.72437  0.99582  1.0000
  C   C4437     1.0  0.72638  0.49322  0.13687  1.0000
  C   C4438     1.0  0.59071  0.73341  0.14147  1.0000
  H   H5279     1.0  0.56698  0.72388  0.11905  1.0000
  H   H5280     1.0  0.67383  0.64288  0.09895  1.0000
  H   H5281     1.0  0.63828  0.66291  0.10251  1.0000
  H   H5282     1.0  0.57678  0.72419  0.15900  1.0000
  C   C4439     1.0  0.51559  0.72862  0.09098  1.0000
  C   C4440     1.0  0.82680  0.61246  0.17643  1.0000
  H   H5283     1.0  0.58891  0.73742  0.01128  1.0000
  C   C4441     1.0  0.82020  0.59560  0.17856  1.0000
  C   C4442     1.0  0.67159  0.68642  0.14244  1.0000
  H   H5284     1.0  0.66546  0.62576  0.13276  1.0000
  H   H5285     1.0  0.64354  0.71883  0.14193  1.0000
  H   H5286     1.0  0.57628  0.73441  0.08908  1.0000
  H   H5287     1.0  0.61898  0.72344  0.15117  1.0000
  H   H5288     1.0  0.61897  0.73481  0.00276  1.0000
  H   H5289     1.0  0.51034  0.68545  0.14499  1.0000
  N   N293      1.0  0.77360  0.62200  0.11829  1.0000
  C   C4443     1.0  0.76740  0.63253  0.12184  1.0000
  C   C4444     1.0  0.76658  0.61359  0.12320  1.0000
  C   C4445     1.0  0.78382  0.61800  0.12299  1.0000
  C   C4446     1.0  0.77601  0.62384  0.10606  1.0000
  C   C4447     1.0  0.76711  0.62789  0.10033  1.0000
  C   C4448     1.0  0.78702  0.62139  0.09953  1.0000
  C   C4449     1.0  0.76907  0.62916  0.08886  1.0000
  C   C4450     1.0  0.78886  0.62266  0.08805  1.0000
  C   C4451     1.0  0.77991  0.62641  0.08274  1.0000
  H   H5290     1.0  0.75895  0.63543  0.11985  1.0000
  H   H5291     1.0  0.76600  0.63153  0.13099  1.0000
  H   H5292     1.0  0.77207  0.63929  0.11777  1.0000
  H   H5293     1.0  0.75822  0.61648  0.12099  1.0000
  H   H5294     1.0  0.76501  0.61157  0.13241  1.0000
  H   H5295     1.0  0.77067  0.60572  0.12028  1.0000
  H   H5296     1.0  0.78943  0.62402  0.11974  1.0000
  H   H5297     1.0  0.78174  0.61684  0.13217  1.0000
  H   H5298     1.0  0.78863  0.60979  0.12117  1.0000
  H   H5299     1.0  0.75851  0.62986  0.10472  1.0000
  H   H5300     1.0  0.79435  0.61818  0.10307  1.0000
  H   H5301     1.0  0.76206  0.63199  0.08476  1.0000
  H   H5302     1.0  0.79728  0.62035  0.08326  1.0000
  H   H5303     1.0  0.78141  0.62699  0.07390  1.0000
  N   N294      1.0  0.80893  0.55678  0.12430  1.0000
  C   C4452     1.0  0.80894  0.54647  0.13313  1.0000
  C   C4453     1.0  0.81984  0.55991  0.12239  1.0000
  C   C4454     1.0  0.79990  0.56565  0.12855  1.0000
  C   C4455     1.0  0.80705  0.55565  0.11382  1.0000
  C   C4456     1.0  0.80370  0.54626  0.11288  1.0000
  C   C4457     1.0  0.80812  0.56434  0.10422  1.0000
  C   C4458     1.0  0.80194  0.54555  0.10283  1.0000
  C   C4459     1.0  0.80631  0.56356  0.09424  1.0000
  C   C4460     1.0  0.80334  0.55413  0.09352  1.0000
  H   H5304     1.0  0.81061  0.54756  0.14082  1.0000
  H   H5305     1.0  0.80064  0.54415  0.13581  1.0000
  H   H5306     1.0  0.81547  0.53937  0.13041  1.0000
  H   H5307     1.0  0.82679  0.55401  0.11820  1.0000
  H   H5308     1.0  0.82183  0.56000  0.13029  1.0000
  H   H5309     1.0  0.81996  0.56845  0.11727  1.0000
  H   H5310     1.0  0.80248  0.53930  0.11974  1.0000
  H   H5311     1.0  0.81039  0.57183  0.10433  1.0000
  H   H5312     1.0  0.79954  0.53826  0.10220  1.0000
  H   H5313     1.0  0.80725  0.57030  0.08699  1.0000
  H   H5314     1.0  0.80213  0.55350  0.08571  1.0000
  N   N295      1.0  0.76605  0.56834  0.11622  1.0000
  C   C4461     1.0  0.77667  0.57088  0.10899  1.0000
  C   C4462     1.0  0.76853  0.55713  0.12350  1.0000
  C   C4463     1.0  0.75880  0.56780  0.10911  1.0000
  C   C4464     1.0  0.76078  0.57711  0.12269  1.0000
  C   C4465     1.0  0.75350  0.58704  0.11854  1.0000
  C   C4466     1.0  0.76342  0.57639  0.13296  1.0000
  C   C4467     1.0  0.74875  0.59539  0.12456  1.0000
  C   C4468     1.0  0.75840  0.58471  0.13903  1.0000
  C   C4469     1.0  0.75100  0.59415  0.13486  1.0000
  H   H5315     1.0  0.78238  0.57158  0.11383  1.0000
  H   H5316     1.0  0.78116  0.56433  0.10418  1.0000
  H   H5317     1.0  0.77515  0.57893  0.10295  1.0000
  H   H5318     1.0  0.77562  0.55601  0.12745  1.0000
  H   H5319     1.0  0.77105  0.55032  0.11885  1.0000
  H   H5320     1.0  0.76108  0.55558  0.13017  1.0000
  H   H5321     1.0  0.75828  0.57501  0.10196  1.0000
  H   H5322     1.0  0.76210  0.56044  0.10525  1.0000
  H   H5323     1.0  0.75013  0.56744  0.11395  1.0000
  H   H5324     1.0  0.75136  0.58856  0.11063  1.0000
  H   H5325     1.0  0.76930  0.56942  0.13648  1.0000
  H   H5326     1.0  0.74327  0.60289  0.12119  1.0000
  H   H5327     1.0  0.76028  0.58388  0.14699  1.0000
  H   H5328     1.0  0.74713  0.60064  0.13949  1.0000
  N   N296      1.0  0.74303  0.55094  0.08302  1.0000
  C   C4470     1.0  0.74139  0.56071  0.07374  1.0000
  C   C4471     1.0  0.73268  0.54647  0.08658  1.0000
  C   C4472     1.0  0.74439  0.55493  0.09227  1.0000
  C   C4473     1.0  0.75294  0.54214  0.08009  1.0000
  C   C4474     1.0  0.76107  0.54369  0.07001  1.0000
  C   C4475     1.0  0.75504  0.53184  0.08773  1.0000
  C   C4476     1.0  0.77072  0.53547  0.06787  1.0000
  C   C4477     1.0  0.76464  0.52362  0.08544  1.0000
  C   C4478     1.0  0.77250  0.52547  0.07556  1.0000
  H   H5329     1.0  0.74046  0.55825  0.06643  1.0000
  H   H5330     1.0  0.73375  0.56707  0.07619  1.0000
  H   H5331     1.0  0.74843  0.56509  0.07123  1.0000
  H   H5332     1.0  0.73177  0.54264  0.08016  1.0000
  H   H5333     1.0  0.72505  0.55309  0.08827  1.0000
  H   H5334     1.0  0.73243  0.54013  0.09448  1.0000
  H   H5335     1.0  0.75225  0.55804  0.09004  1.0000
  H   H5336     1.0  0.73733  0.56190  0.09451  1.0000
  H   H5337     1.0  0.74460  0.54829  0.09992  1.0000
  H   H5338     1.0  0.76032  0.55125  0.06372  1.0000
  H   H5339     1.0  0.74947  0.53020  0.09570  1.0000
  H   H5340     1.0  0.77703  0.53700  0.06034  1.0000
  H   H5341     1.0  0.76623  0.51598  0.09158  1.0000
  H   H5342     1.0  0.78015  0.51927  0.07399  1.0000
  H   H5343     1.0  0.50522  0.72115  0.12738  1.0000
  H   H5344     1.0  0.69458  0.58782  0.15225  1.0000
  C   C4479     1.0  0.86616  0.59429  0.17703  1.0000
  H   H5345     1.0  0.54014  0.68617  0.14633  1.0000
  C   C4480     1.0  0.66014  0.70666  0.15187  1.0000
  C   C4481     1.0  0.65158  0.64987  0.10835  1.0000
  C   C4482     1.0  0.78949  0.60888  0.17508  1.0000
  C   C4483     1.0  0.67150  0.62998  0.12603  1.0000
  C   C4484     1.0  0.65663  0.64386  0.11746  1.0000
  N   N297      1.0  0.66700  0.63515  0.11584  1.0000
  C   C4485     1.0  0.52580  0.69601  0.15586  1.0000
  C   C4486     1.0  0.70266  0.55933  0.14392  1.0000
  C   C4487     1.0  0.60590  0.72133  0.98552  1.0000
  H   H5346     1.0  0.65793  0.62247  0.11818  1.0000
  H   H5347     1.0  0.53036  0.69649  0.13362  1.0000
  H   H5348     1.0  0.66933  0.68338  0.15129  1.0000
  C   C4488     1.0  0.62565  0.72452  0.08903  1.0000
  H   H5349     1.0  0.87217  0.61746  0.18029  1.0000
  C   C4489     1.0  0.69711  0.57968  0.15033  1.0000
  H   H5350     1.0  0.51358  0.68117  0.15853  1.0000
  H   H5351     1.0  0.66325  0.69933  0.15809  1.0000
  C   C4490     1.0  0.52227  0.70156  0.13726  1.0000
  C   C4491     1.0  0.56798  0.72433  0.11006  1.0000
  H   H5352     1.0  0.62144  0.72914  0.99092  1.0000
  C   C4492     1.0  0.59120  0.71945  0.00206  1.0000
  H   H5353     1.0  0.58943  0.72490  0.08741  1.0000
  H   H5354     1.0  0.78846  0.63046  0.16688  1.0000
  H   H5355     1.0  0.75401  0.49859  0.13183  1.0000
  H   H5356     1.0  0.72429  0.58245  0.14193  1.0000
  H   H5357     1.0  0.58922  0.73046  0.13471  1.0000
  C   C4493     1.0  0.71656  0.49377  0.12282  1.0000
  H   H5358     1.0  0.68735  0.56490  0.13805  1.0000
  H   H5359     1.0  0.67235  0.61923  0.11115  1.0000
  H   H5360     1.0  0.79157  0.56351  0.13054  1.0000
  C   C4494     1.0  0.85834  0.59788  0.17004  1.0000
  H   H5361     1.0  0.51639  0.70243  0.13190  1.0000
  H   H5362     1.0  0.50071  0.72214  0.09494  1.0000
  C   C4495     1.0  0.86688  0.61190  0.18009  1.0000
  H   H5363     1.0  0.70261  0.58525  0.16758  1.0000
  C   C4496     1.0  0.68366  0.68301  0.12501  1.0000
  H   H5364     1.0  0.76780  0.49464  0.13428  1.0000
  H   H5365     1.0  0.59471  0.72596  0.14706  1.0000
  H   H5366     1.0  0.72981  0.56792  0.14627  1.0000
  H   H5367     1.0  0.59445  0.71013  0.10254  1.0000
  C   C4497     1.0  0.71070  0.58531  0.16146  1.0000
  C   C4498     1.0  0.69273  0.56682  0.14220  1.0000
  H   H5368     1.0  0.70955  0.56454  0.17339  1.0000
  H   H5369     1.0  0.71660  0.58683  0.16562  1.0000
  C   C4499     1.0  0.65067  0.71389  0.13679  1.0000
  N   N298      1.0  0.74277  0.60205  0.04441  1.0000
  C   C4500     1.0  0.74692  0.60476  0.03219  1.0000
  C   C4501     1.0  0.74860  0.59060  0.04871  1.0000
  C   C4502     1.0  0.73062  0.60234  0.04647  1.0000
  C   C4503     1.0  0.74475  0.60971  0.05015  1.0000
  C   C4504     1.0  0.73952  0.60966  0.06144  1.0000
  C   C4505     1.0  0.75236  0.61691  0.04499  1.0000
  C   C4506     1.0  0.74130  0.61680  0.06701  1.0000
  C   C4507     1.0  0.75421  0.62388  0.05072  1.0000
  C   C4508     1.0  0.74865  0.62387  0.06168  1.0000
  H   H5370     1.0  0.75618  0.60356  0.02986  1.0000
  H   H5371     1.0  0.74495  0.59917  0.02800  1.0000
  H   H5372     1.0  0.74318  0.61348  0.02852  1.0000
  H   H5373     1.0  0.74761  0.58448  0.04452  1.0000
  H   H5374     1.0  0.74555  0.58784  0.05780  1.0000
  H   H5375     1.0  0.75773  0.59013  0.04730  1.0000
  H   H5376     1.0  0.72579  0.61104  0.04439  1.0000
  H   H5377     1.0  0.72886  0.59743  0.04143  1.0000
  H   H5378     1.0  0.72709  0.59869  0.05522  1.0000
  H   H5379     1.0  0.73423  0.60391  0.06621  1.0000
  H   H5380     1.0  0.75718  0.61714  0.03663  1.0000
  H   H5381     1.0  0.73714  0.61666  0.07561  1.0000
  H   H5382     1.0  0.76016  0.62919  0.04667  1.0000
  H   H5383     1.0  0.75017  0.62919  0.06614  1.0000
  H   H5384     1.0  0.62944  0.66742  0.12084  1.0000
  C   C4509     1.0  0.66479  0.62611  0.11210  1.0000
  C   C4510     1.0  0.64740  0.69699  0.14954  1.0000
  H   H5385     1.0  0.61025  0.73550  0.16482  1.0000
  H   H5386     1.0  0.65513  0.64819  0.10017  1.0000
  S   S1197     1.0  0.73746  0.56978  0.99075  1.0000
  H   H5387     1.0  0.64703  0.71210  0.13066  1.0000
  N   N299      1.0  0.51787  0.69664  0.14902  1.0000
  H   H5388     1.0  0.58053  0.70858  0.00291  1.0000
  N   N300      1.0  0.87367  0.60152  0.17661  1.0000
  H   H5389     1.0  0.66472  0.70711  0.12047  1.0000
  C   C4511     1.0  0.58595  0.71197  0.10777  1.0000
  H   H5390     1.0  0.80116  0.56695  0.13626  1.0000
  H   H5391     1.0  0.68402  0.63394  0.10637  1.0000
  H   H5392     1.0  0.71974  0.50824  0.12607  1.0000
  C   C4512     1.0  0.68997  0.57696  0.14539  1.0000
  H   H5393     1.0  0.67721  0.64735  0.10946  1.0000
  H   H5394     1.0  0.78348  0.54018  0.14882  1.0000
  C   C4513     1.0  0.67586  0.64003  0.10728  1.0000
  C   C4514     1.0  0.58458  0.73198  0.10636  1.0000
  H   H5395     1.0  0.51435  0.70579  0.16773  1.0000
  C   C4515     1.0  0.52020  0.73701  0.09175  1.0000
  H   H5396     1.0  0.77539  0.57208  0.98710  1.0000
  C   C4516     1.0  0.59560  0.72961  0.10812  1.0000
  C   C4517     1.0  0.71742  0.56574  0.16721  1.0000
  H   H5397     1.0  0.58673  0.71026  0.11652  1.0000
  C   C4518     1.0  0.57853  0.69820  0.13836  1.0000
  C   C4519     1.0  0.72572  0.57571  0.14930  1.0000
  C   C4520     1.0  0.54149  0.69471  0.16849  1.0000
  H   H5398     1.0  0.78486  0.55924  0.00125  1.0000
  H   H5399     1.0  0.57141  0.69657  0.12557  1.0000
  H   H5400     1.0  0.68246  0.58295  0.14361  1.0000
  C   C4521     1.0  0.53047  0.70044  0.17131  1.0000
  H   H5401     1.0  0.72311  0.56753  0.17141  1.0000
  Fe  Fe599     1.0  0.53648  0.72491  0.13249  1.0000
  H   H5402     1.0  0.64437  0.69429  0.14357  1.0000
  S   S1198     1.0  0.73143  0.49985  0.14443  1.0000
  H   H5403     1.0  0.65046  0.68931  0.15543  1.0000
  C   C4522     1.0  0.72092  0.49928  0.12828  1.0000
  H   H5404     1.0  0.77519  0.62737  0.16846  1.0000
  H   H5405     1.0  0.76599  0.49822  0.12035  1.0000
  S   S1199     1.0  0.52541  0.72654  0.14909  1.0000
  H   H5406     1.0  0.79962  0.57376  0.12258  1.0000
  H   H5407     1.0  0.58683  0.69370  0.13521  1.0000
  H   H5408     1.0  0.58167  0.70576  0.10708  1.0000
  C   C4523     1.0  0.59337  0.70918  0.98804  1.0000
  H   H5409     1.0  0.58631  0.72141  0.00986  1.0000
  H   H5410     1.0  0.73186  0.57762  0.15286  1.0000
  C   C4524     1.0  0.52268  0.70105  0.16517  1.0000
  S   S1200     1.0  0.58723  0.70084  0.15468  1.0000
  C   C4525     1.0  0.57283  0.73127  0.15302  1.0000
  C   C4526     1.0  0.76261  0.49390  0.12890  1.0000
  C   C4527     1.0  0.56983  0.69986  0.13289  1.0000
  H   H5411     1.0  0.50242  0.70005  0.16104  1.0000
  H   H5412     1.0  0.71206  0.49856  0.11641  1.0000
  H   H5413     1.0  0.67929  0.62349  0.12451  1.0000
  H   H5414     1.0  0.65661  0.71943  0.13231  1.0000
  H   H5415     1.0  0.66232  0.62907  0.10396  1.0000
  H   H5416     1.0  0.88492  0.59680  0.16199  1.0000
  H   H5417     1.0  0.50695  0.71226  0.15187  1.0000
  C   C4528     1.0  0.58059  0.72578  0.09214  1.0000
  H   H5418     1.0  0.79355  0.56834  0.00015  1.0000
  C   C4529     1.0  0.66553  0.69660  0.13706  1.0000
  H   H5419     1.0  0.60121  0.72169  0.10751  1.0000
  C   C4530     1.0  0.85159  0.58080  0.17735  1.0000
  H   H5420     1.0  0.52377  0.70994  0.13641  1.0000
  C   C4531     1.0  0.64148  0.65496  0.12907  1.0000
  C   C4532     1.0  0.65125  0.64665  0.12791  1.0000
  H   H5421     1.0  0.70491  0.55160  0.14110  1.0000
  H   H5422     1.0  0.58613  0.73619  0.16251  1.0000
  H   H5423     1.0  0.66710  0.71111  0.14775  1.0000
  H   H5424     1.0  0.61029  0.72452  0.07111  1.0000
  N   N301      1.0  0.57989  0.72359  0.10418  1.0000
  H   H5425     1.0  0.63758  0.65706  0.13709  1.0000
  H   H5426     1.0  0.68481  0.67185  0.14070  1.0000
  C   C4533     1.0  0.88021  0.60443  0.16514  1.0000
  H   H5427     1.0  0.57670  0.72009  0.08995  1.0000
  C   C4534     1.0  0.64190  0.65827  0.10959  1.0000
  H   H5428     1.0  0.64005  0.70190  0.15444  1.0000
  H   H5429     1.0  0.65335  0.71224  0.15662  1.0000
  H   H5430     1.0  0.70954  0.59264  0.15449  1.0000
  H   H5431     1.0  0.67373  0.63624  0.12911  1.0000
  H   H5432     1.0  0.56456  0.71748  0.10935  1.0000
  C   C4535     1.0  0.59806  0.73426  0.01074  1.0000
  H   H5433     1.0  0.55342  0.68528  0.15724  1.0000
  C   C4536     1.0  0.67786  0.69290  0.11945  1.0000
  C   C4537     1.0  0.50656  0.70352  0.15244  1.0000
  C   C4538     1.0  0.68052  0.67977  0.13647  1.0000
  C   C4539     1.0  0.59969  0.73748  0.11067  1.0000
  C   C4540     1.0  0.58776  0.71200  0.99816  1.0000
  H   H5434     1.0  0.59053  0.70361  0.98493  1.0000
  H   H5435     1.0  0.69037  0.67762  0.12041  1.0000
  H   H5436     1.0  0.52081  0.72199  0.08692  1.0000
  H   H5437     1.0  0.55369  0.73333  0.08845  1.0000
  H   H5438     1.0  0.63061  0.72948  0.09038  1.0000
  H   H5439     1.0  0.70537  0.58559  0.98862  1.0000
  H   H5440     1.0  0.59938  0.72639  0.01708  1.0000
  H   H5441     1.0  0.84520  0.59417  0.16490  1.0000
  H   H5442     1.0  0.79371  0.63573  0.18019  1.0000
  H   H5443     1.0  0.73842  0.49584  0.10461  1.0000
  H   H5444     1.0  0.54757  0.69447  0.17310  1.0000
  H   H5445     1.0  0.86103  0.61680  0.17459  1.0000
  N   N302      1.0  0.79305  0.56550  0.98443  1.0000
  H   H5446     1.0  0.52901  0.73692  0.08826  1.0000
  C   C4541     1.0  0.61618  0.72912  0.99939  1.0000
  H   H5447     1.0  0.78830  0.54421  0.99441  1.0000
  H   H5448     1.0  0.88636  0.60939  0.16468  1.0000
  H   H5449     1.0  0.79770  0.61023  0.16970  1.0000
  N   N303      1.0  0.60404  0.73264  0.99942  1.0000
  C   C4542     1.0  0.50429  0.72874  0.09545  1.0000
  C   C4543     1.0  0.61968  0.73716  0.13704  1.0000
  H   H5450     1.0  0.79990  0.55445  0.99813  1.0000
  C   C4544     1.0  0.78986  0.54635  0.98548  1.0000
  H   H5451     1.0  0.79110  0.60050  0.18060  1.0000
  S   S1201     1.0  0.52293  0.73336  0.12302  1.0000
  N   N304      1.0  0.78413  0.61781  0.18133  1.0000
  H   H5452     1.0  0.85743  0.60602  0.16462  1.0000
  H   H5453     1.0  0.68733  0.59902  0.98785  1.0000
  C   C4545     1.0  0.85126  0.59117  0.17016  1.0000
  H   H5454     1.0  0.84585  0.57579  0.17760  1.0000
  H   H5455     1.0  0.80461  0.57559  0.98334  1.0000
  H   H5456     1.0  0.52800  0.70463  0.17816  1.0000
  C   C4546     1.0  0.78335  0.57490  0.98304  1.0000
  H   H5457     1.0  0.56236  0.73207  0.10667  1.0000
  H   H5458     1.0  0.78341  0.58174  0.98683  1.0000
  C   C4547     1.0  0.78099  0.62824  0.17317  1.0000
  C   C4548     1.0  0.74977  0.49017  0.11575  1.0000
  H   H5459     1.0  0.50084  0.70401  0.14704  1.0000
  H   H5460     1.0  0.88732  0.58846  0.18171  1.0000
  H   H5461     1.0  0.49779  0.71195  0.11712  1.0000
  C   C4549     1.0  0.49752  0.73725  0.10071  1.0000
  H   H5462     1.0  0.90202  0.58179  0.30079  1.0000
  Fe  Fe600     1.0  0.96022  0.59978  0.23360  1.0000
  S   S1202     1.0  0.95970  0.58584  0.24859  1.0000
  S   S1203     1.0  0.97748  0.60379  0.22619  1.0000
  Fe  Fe601     1.0  0.93477  0.60361  0.23513  1.0000
  S   S1204     1.0  0.93267  0.59008  0.25039  1.0000
  S   S1205     1.0  0.91827  0.61399  0.23089  1.0000
  Fe  Fe602     1.0  0.94419  0.59692  0.25587  1.0000
  S   S1206     1.0  0.94131  0.59834  0.27351  1.0000
  Fe  Fe603     1.0  0.94833  0.58040  0.24152  1.0000
  S   S1207     1.0  0.95109  0.56228  0.24161  1.0000
  S   S1208     1.0  0.94524  0.61129  0.24133  1.0000
  S   S1209     1.0  0.94994  0.59344  0.22571  1.0000
  Fe  Fe604     1.0  0.87860  0.55184  0.27913  1.0000
  S   S1210     1.0  0.89333  0.55212  0.26481  1.0000
  S   S1211     1.0  0.86926  0.56919  0.28165  1.0000
  Fe  Fe605     1.0  0.88018  0.52662  0.28138  1.0000
  S   S1212     1.0  0.89514  0.52531  0.26735  1.0000
  S   S1213     1.0  0.87151  0.51208  0.28933  1.0000
  Fe  Fe606     1.0  0.90109  0.53607  0.27479  1.0000
  S   S1214     1.0  0.91913  0.53229  0.27580  1.0000
  Fe  Fe607     1.0  0.88589  0.54146  0.25890  1.0000
  S   S1215     1.0  0.88402  0.54480  0.24137  1.0000
  S   S1216     1.0  0.88683  0.53622  0.28973  1.0000
  S   S1217     1.0  0.87048  0.54221  0.27246  1.0000
  C   C4550     1.0  0.84319  0.52956  0.25074  1.0000
  Fe  Fe608     1.0  0.87187  0.63972  0.30950  1.0000
  S   S1218     1.0  0.87374  0.64906  0.29172  1.0000
  S   S1219     1.0  0.86672  0.64941  0.32350  1.0000
  Fe  Fe609     1.0  0.87869  0.61705  0.30237  1.0000
  S   S1220     1.0  0.88180  0.62482  0.28424  1.0000
  S   S1221     1.0  0.88190  0.59816  0.30775  1.0000
  Fe  Fe610     1.0  0.88949  0.63623  0.28890  1.0000
  S   S1222     1.0  0.90455  0.64198  0.27760  1.0000
  Fe  Fe611     1.0  0.86573  0.63685  0.28856  1.0000
  S   S1223     1.0  0.85310  0.64315  0.27746  1.0000
  S   S1224     1.0  0.88815  0.62734  0.30670  1.0000
  S   S1225     1.0  0.86204  0.62864  0.30671  1.0000
  Fe  Fe612     1.0  0.84589  0.61218  0.20562  1.0000
  S   S1226     1.0  0.83601  0.61333  0.22290  1.0000
  H   H5463     1.0  0.84968  0.73811  0.35621  1.0000
  Fe  Fe613     1.0  0.86840  0.60490  0.21332  1.0000
  S   S1227     1.0  0.86020  0.60465  0.23114  1.0000
  S   S1228     1.0  0.88732  0.60036  0.20757  1.0000
  Fe  Fe614     1.0  0.84764  0.59724  0.22793  1.0000
  S   S1229     1.0  0.84125  0.58331  0.24047  1.0000
  Fe  Fe615     1.0  0.84938  0.62080  0.22477  1.0000
  S   S1230     1.0  0.84499  0.63508  0.23358  1.0000
  S   S1231     1.0  0.85694  0.59553  0.21076  1.0000
  S   S1232     1.0  0.85816  0.62161  0.20683  1.0000
  Fe  Fe616     1.0  0.88742  0.70843  0.35261  1.0000
  S   S1233     1.0  0.87850  0.69466  0.36189  1.0000
  S   S1234     1.0  0.87882  0.72306  0.34143  1.0000
  Fe  Fe617     1.0  0.90973  0.69523  0.35823  1.0000
  S   S1235     1.0  0.90255  0.68029  0.36770  1.0000
  S   S1236     1.0  0.92848  0.69340  0.35443  1.0000
  Fe  Fe618     1.0  0.89354  0.68326  0.35384  1.0000
  S   S1237     1.0  0.89569  0.67090  0.34289  1.0000
  Fe  Fe619     1.0  0.88828  0.69305  0.37475  1.0000
  S   S1238     1.0  0.90192  0.69730  0.34394  1.0000
  S   S1239     1.0  0.89600  0.70782  0.36596  1.0000
  C   C4551     1.0  0.92591  0.64374  0.32983  1.0000
  H   H5464     1.0  0.87748  0.59440  0.19280  1.0000
  S   S1240     1.0  0.96168  0.71261  0.36962  1.0000
  H   H5465     1.0  0.89933  0.62896  0.26240  1.0000
  H   H5466     1.0  0.89215  0.69288  0.32561  1.0000
  H   H5467     1.0  0.87921  0.65535  0.25643  1.0000
  C   C4552     1.0  0.91629  0.73405  0.35189  1.0000
  H   H5468     1.0  0.76954  0.62144  0.19408  1.0000
  C   C4553     1.0  0.93685  0.69957  0.35893  1.0000
  C   C4554     1.0  0.93258  0.70793  0.36511  1.0000
  C   C4555     1.0  0.94000  0.71255  0.36812  1.0000
  C   C4556     1.0  0.95164  0.70846  0.36530  1.0000
  C   C4557     1.0  0.95571  0.70007  0.35927  1.0000
  C   C4558     1.0  0.94842  0.69577  0.35602  1.0000
  H   H5469     1.0  0.92362  0.71078  0.36756  1.0000
  C   C4559     1.0  0.98687  0.60801  0.27797  1.0000
  H   H5470     1.0  0.96464  0.69684  0.35707  1.0000
  H   H5471     1.0  0.95183  0.68934  0.35127  1.0000
  H   H5472     1.0  0.96417  0.60973  0.28840  1.0000
  C   C4560     1.0  0.88290  0.64641  0.25934  1.0000
  H   H5473     1.0  0.90792  0.64389  0.24115  1.0000
  H   H5474     1.0  0.86238  0.64984  0.23117  1.0000
  H   H5475     1.0  0.97799  0.63754  0.23714  1.0000
  C   C4561     1.0  0.99649  0.61285  0.24171  1.0000
  H   H5476     1.0  0.82604  0.51974  0.23542  1.0000
  H   H5477     1.0  0.87516  0.64265  0.21522  1.0000
  H   H5478     1.0  0.91749  0.66335  0.35219  1.0000
  C   C4562     1.0  0.87123  0.64680  0.23117  1.0000
  H   H5479     1.0  0.87454  0.49979  0.25511  1.0000
  C   C4563     1.0  0.89588  0.62985  0.25502  1.0000
  C   C4564     1.0  0.87499  0.65511  0.32894  1.0000
  C   C4565     1.0  0.88658  0.65395  0.32505  1.0000
  C   C4566     1.0  0.89270  0.65884  0.32941  1.0000
  C   C4567     1.0  0.88738  0.66495  0.33774  1.0000
  C   C4568     1.0  0.87580  0.66606  0.34168  1.0000
  C   C4569     1.0  0.86968  0.66120  0.33729  1.0000
  H   H5480     1.0  0.89082  0.64932  0.31863  1.0000
  H   H5481     1.0  0.90161  0.65791  0.32623  1.0000
  H   H5482     1.0  0.87154  0.67050  0.34823  1.0000
  H   H5483     1.0  0.86075  0.66214  0.34041  1.0000
  C   C4570     1.0  0.85171  0.63992  0.26533  1.0000
  C   C4571     1.0  0.84332  0.64709  0.26008  1.0000
  C   C4572     1.0  0.84149  0.64530  0.25052  1.0000
  C   C4573     1.0  0.84788  0.63618  0.24599  1.0000
  C   C4574     1.0  0.85634  0.62882  0.25120  1.0000
  C   C4575     1.0  0.85827  0.63070  0.26088  1.0000
  H   H5484     1.0  0.83819  0.65420  0.26342  1.0000
  H   H5485     1.0  0.83500  0.65107  0.24659  1.0000
  H   H5486     1.0  0.86150  0.62186  0.24766  1.0000
  H   H5487     1.0  0.86474  0.62504  0.26489  1.0000
  C   C4576     1.0  0.87266  0.55605  0.24039  1.0000
  C   C4577     1.0  0.86853  0.56181  0.24897  1.0000
  C   C4578     1.0  0.85855  0.56977  0.24924  1.0000
  C   C4579     1.0  0.85306  0.57256  0.24053  1.0000
  C   C4580     1.0  0.85753  0.56734  0.23152  1.0000
  C   C4581     1.0  0.86727  0.55890  0.23155  1.0000
  H   H5488     1.0  0.87300  0.56017  0.25545  1.0000
  H   H5489     1.0  0.85521  0.57382  0.25616  1.0000
  H   H5490     1.0  0.85338  0.56969  0.22466  1.0000
  H   H5491     1.0  0.87055  0.55454  0.22483  1.0000
  C   C4582     1.0  0.87396  0.57688  0.28838  1.0000
  C   C4583     1.0  0.87287  0.58842  0.28435  1.0000
  C   C4584     1.0  0.87523  0.59502  0.29021  1.0000
  C   C4585     1.0  0.87875  0.59014  0.30018  1.0000
  C   C4586     1.0  0.88008  0.57857  0.30410  1.0000
  C   C4587     1.0  0.87777  0.57194  0.29820  1.0000
  H   H5492     1.0  0.87004  0.59234  0.27672  1.0000
  H   H5493     1.0  0.87415  0.60391  0.28708  1.0000
  H   H5494     1.0  0.88274  0.57473  0.31184  1.0000
  H   H5495     1.0  0.87850  0.56310  0.30148  1.0000
  C   C4588     1.0  0.86831  0.50469  0.28119  1.0000
  C   C4589     1.0  0.87357  0.50512  0.27002  1.0000
  S   S1241     1.0  0.83787  0.61621  0.19046  1.0000
  C   C4590     1.0  0.98189  0.62887  0.23726  1.0000
  C   C4591     1.0  0.86028  0.49813  0.28611  1.0000
  H   H5496     1.0  0.83312  0.59374  0.19949  1.0000
  H   H5497     1.0  0.87979  0.51012  0.26613  1.0000
  C   C4592     1.0  0.79594  0.62826  0.18624  1.0000
  C   C4593     1.0  0.82900  0.53372  0.23963  1.0000
  H   H5498     1.0  0.86162  0.60998  0.18854  1.0000
  C   C4594     1.0  0.93195  0.61092  0.27521  1.0000
  C   C4595     1.0  0.92378  0.61135  0.28496  1.0000
  C   C4596     1.0  0.91542  0.62099  0.28579  1.0000
  C   C4597     1.0  0.91551  0.63034  0.27706  1.0000
  C   C4598     1.0  0.92410  0.63016  0.26761  1.0000
  C   C4599     1.0  0.93226  0.62042  0.26666  1.0000
  H   H5499     1.0  0.92365  0.60416  0.29175  1.0000
  H   H5500     1.0  0.90892  0.62115  0.29318  1.0000
  H   H5501     1.0  0.92424  0.63741  0.26089  1.0000
  H   H5502     1.0  0.93875  0.62035  0.25930  1.0000
  C   C4600     1.0  0.90994  0.60911  0.22504  1.0000
  C   C4601     1.0  0.89827  0.61128  0.22892  1.0000
  C   C4602     1.0  0.89127  0.60867  0.22363  1.0000
  C   C4603     1.0  0.89586  0.60391  0.21435  1.0000
  C   C4604     1.0  0.90754  0.60169  0.21049  1.0000
  C   C4605     1.0  0.91456  0.60416  0.21588  1.0000
  H   H5503     1.0  0.89460  0.61513  0.23598  1.0000
  H   H5504     1.0  0.88231  0.61051  0.22667  1.0000
  H   H5505     1.0  0.91118  0.59816  0.20323  1.0000
  H   H5506     1.0  0.92352  0.60265  0.21268  1.0000
  C   C4606     1.0  0.94193  0.55448  0.25149  1.0000
  C   C4607     1.0  0.94602  0.54311  0.25519  1.0000
  C   C4608     1.0  0.93892  0.53645  0.26263  1.0000
  C   C4609     1.0  0.92758  0.54101  0.26618  1.0000
  C   C4610     1.0  0.92340  0.55240  0.26244  1.0000
  C   C4611     1.0  0.93062  0.55917  0.25518  1.0000
  H   H5507     1.0  0.95473  0.53945  0.25232  1.0000
  H   H5508     1.0  0.94221  0.52770  0.26556  1.0000
  H   H5509     1.0  0.91472  0.55601  0.26535  1.0000
  H   H5510     1.0  0.92740  0.56792  0.25227  1.0000
  C   C4612     1.0  0.97731  0.62258  0.23290  1.0000
  H   H5511     1.0  0.85611  0.49781  0.29471  1.0000
  C   C4613     1.0  0.83111  0.60802  0.18613  1.0000
  C   C4614     1.0  0.98235  0.61141  0.23282  1.0000
  H   H5512     1.0  0.98280  0.61448  0.28254  1.0000
  H   H5513     1.0  0.94517  0.54779  0.22886  1.0000
  C   C4615     1.0  0.85734  0.49226  0.27990  1.0000
  N   N305      1.0  0.93283  0.66576  0.34017  1.0000
  C   C4616     1.0  0.98724  0.59612  0.26602  1.0000
  H   H5514     1.0  0.86924  0.67013  0.30459  1.0000
  C   C4617     1.0  0.87372  0.69191  0.31848  1.0000
  H   H5515     1.0  0.93726  0.63139  0.32131  1.0000
  C   C4618     1.0  0.80291  0.60961  0.20209  1.0000
  C   C4619     1.0  0.86289  0.69019  0.31943  1.0000
  C   C4620     1.0  0.87082  0.69714  0.33602  1.0000
  C   C4621     1.0  0.79558  0.60920  0.19592  1.0000
  C   C4622     1.0  0.80334  0.62854  0.19242  1.0000
  H   H5516     1.0  0.82286  0.53973  0.23536  1.0000
  H   H5517     1.0  0.87158  0.70333  0.34027  1.0000
  C   C4623     1.0  0.85746  0.72476  0.36785  1.0000
  H   H5518     1.0  0.83332  0.54611  0.24470  1.0000
  C   C4624     1.0  0.86253  0.49272  0.26872  1.0000
  N   N306      1.0  0.87513  0.70016  0.32389  1.0000
  H   H5519     1.0  0.81278  0.61941  0.20488  1.0000
  H   H5520     1.0  0.85306  0.68098  0.31553  1.0000
  C   C4625     1.0  0.83509  0.53728  0.24508  1.0000
  H   H5521     1.0  0.86186  0.69672  0.33826  1.0000
  C   C4626     1.0  0.84687  0.54503  0.25647  1.0000
  H   H5522     1.0  0.88769  0.70724  0.32625  1.0000
  H   H5523     1.0  0.85973  0.71888  0.36251  1.0000
  H   H5524     1.0  0.87560  0.68889  0.33966  1.0000
  H   H5525     1.0  0.90275  0.63523  0.23084  1.0000
  N   N307      1.0  0.96955  0.61073  0.27075  1.0000
  C   C4627     1.0  0.96838  0.62300  0.26805  1.0000
  C   C4628     1.0  0.96565  0.60789  0.26218  1.0000
  C   C4629     1.0  0.96201  0.60752  0.28157  1.0000
  C   C4630     1.0  0.98124  0.60500  0.27143  1.0000
  C   C4631     1.0  0.80679  0.61925  0.20034  1.0000
  H   H5526     1.0  0.91821  0.53151  0.24671  1.0000
  H   H5527     1.0  0.93850  0.53088  0.24011  1.0000
  H   H5528     1.0  0.96925  0.62619  0.27491  1.0000
  C   C4632     1.0  0.79183  0.61853  0.18781  1.0000
  C   C4633     1.0  0.87068  0.49916  0.26382  1.0000
  H   H5529     1.0  0.96002  0.62751  0.26626  1.0000
  H   H5530     1.0  0.79307  0.60141  0.19738  1.0000
  H   H5531     1.0  0.97123  0.60968  0.25394  1.0000
  H   H5532     1.0  0.95713  0.61277  0.26133  1.0000
  H   H5533     1.0  0.96506  0.59901  0.26424  1.0000
  H   H5534     1.0  0.95311  0.61169  0.28140  1.0000
  H   H5535     1.0  0.92193  0.73047  0.35748  1.0000
  H   H5536     1.0  0.88734  0.60188  0.18346  1.0000
  H   H5537     1.0  0.92066  0.71879  0.34606  1.0000
  H   H5538     1.0  0.88058  0.73049  0.36042  1.0000
  H   H5539     1.0  0.92566  0.68338  0.33720  1.0000
  H   H5540     1.0  0.80589  0.60229  0.20803  1.0000
  C   C4634     1.0  0.85179  0.73560  0.36429  1.0000
  Fe  Fe620     1.0  0.96101  0.72668  0.37746  1.0000
  H   H5541     1.0  0.89537  0.63550  0.21514  1.0000
  H   H5542     1.0  0.89144  0.68590  0.31116  1.0000
  H   H5543     1.0  0.95266  0.65264  0.32988  1.0000
  C   C4635     1.0  0.94596  0.64160  0.32524  1.0000
  H   H5544     1.0  0.77512  0.60686  0.19461  1.0000
  C   C4636     1.0  0.88679  0.64243  0.24064  1.0000
  C   C4637     1.0  0.92628  0.66360  0.35174  1.0000
  C   C4638     1.0  0.90876  0.73123  0.33772  1.0000
  H   H5545     1.0  0.85099  0.51776  0.26928  1.0000
  H   H5546     1.0  0.96242  0.59839  0.28376  1.0000
  H   H5547     1.0  0.82364  0.58291  0.19293  1.0000
  H   H5548     1.0  0.85958  0.71180  0.32157  1.0000
  H   H5549     1.0  0.90376  0.64787  0.25412  1.0000
  C   C4639     1.0  0.93429  0.65624  0.33505  1.0000
  H   H5550     1.0  0.95416  0.63730  0.32153  1.0000
  C   C4640     1.0  0.88978  0.63879  0.22210  1.0000
  H   H5551     1.0  0.94215  0.67512  0.34462  1.0000
  C   C4641     1.0  0.86065  0.72161  0.37805  1.0000
  H   H5552     1.0  0.87142  0.71378  0.31036  1.0000
  H   H5553     1.0  0.83797  0.54772  0.26055  1.0000
  S   S1242     1.0  0.99715  0.63252  0.24662  1.0000
  H   H5554     1.0  0.90465  0.58043  0.21446  1.0000
  C   C4642     1.0  0.94496  0.65047  0.33011  1.0000
  C   C4643     1.0  0.87045  0.67636  0.30818  1.0000
  C   C4644     1.0  0.86133  0.68248  0.31440  1.0000
  H   H5555     1.0  0.89068  0.70355  0.31314  1.0000
  H   H5556     1.0  0.86914  0.64966  0.24711  1.0000
  H   H5557     1.0  0.91850  0.64115  0.32971  1.0000
  H   H5558     1.0  0.97481  0.62562  0.26064  1.0000
  H   H5559     1.0  0.88926  0.62492  0.25762  1.0000
  H   H5560     1.0  0.90467  0.54840  0.24194  1.0000
  N   N308      1.0  0.84986  0.53294  0.25658  1.0000
  C   C4645     1.0  0.99191  0.60656  0.23733  1.0000
  C   C4646     1.0  0.88695  0.70095  0.32209  1.0000
  H   H5561     1.0  0.91929  0.57624  0.21399  1.0000
  H   H5562     1.0  0.93194  0.56521  0.22424  1.0000
  C   C4647     1.0  0.77364  0.61513  0.18890  1.0000
  C   C4648     1.0  0.82987  0.59732  0.19204  1.0000
  C   C4649     1.0  0.89392  0.63864  0.23117  1.0000
  C   C4650     1.0  0.87657  0.73628  0.34427  1.0000
  C   C4651     1.0  0.82447  0.59119  0.18828  1.0000
  C   C4652     1.0  0.93646  0.63825  0.32511  1.0000
  C   C4653     1.0  0.91571  0.72724  0.34528  1.0000
  N   N309      1.0  0.91351  0.57605  0.28661  1.0000
  C   C4654     1.0  0.90893  0.57466  0.29874  1.0000
  C   C4655     1.0  0.91552  0.58752  0.28241  1.0000
  C   C4656     1.0  0.90498  0.57511  0.28121  1.0000
  C   C4657     1.0  0.92368  0.56728  0.28443  1.0000
  C   C4658     1.0  0.93408  0.56965  0.27788  1.0000
  C   C4659     1.0  0.92327  0.55589  0.28872  1.0000
  C   C4660     1.0  0.94345  0.56113  0.27585  1.0000
  C   C4661     1.0  0.93274  0.54744  0.28678  1.0000
  C   C4662     1.0  0.94280  0.55006  0.28034  1.0000
  H   H5563     1.0  0.90537  0.56711  0.30236  1.0000
  H   H5564     1.0  0.91551  0.57415  0.30318  1.0000
  H   H5565     1.0  0.92202  0.58865  0.28605  1.0000
  H   H5566     1.0  0.90783  0.59393  0.28458  1.0000
  H   H5567     1.0  0.91821  0.58955  0.27323  1.0000
  H   H5568     1.0  0.90219  0.56711  0.28469  1.0000
  H   H5569     1.0  0.89736  0.58186  0.28227  1.0000
  H   H5570     1.0  0.90834  0.57564  0.27216  1.0000
  H   H5571     1.0  0.93518  0.57802  0.27409  1.0000
  H   H5572     1.0  0.91555  0.55341  0.29338  1.0000
  H   H5573     1.0  0.95120  0.56312  0.27053  1.0000
  H   H5574     1.0  0.93212  0.53880  0.28986  1.0000
  H   H5575     1.0  0.95000  0.54347  0.27849  1.0000
  C   C4663     1.0  0.86189  0.53014  0.25126  1.0000
  C   C4664     1.0  0.84483  0.51820  0.25047  1.0000
  C   C4665     1.0  0.83869  0.51473  0.24504  1.0000
  C   C4666     1.0  0.83077  0.52247  0.23964  1.0000
  H   H5576     1.0  0.86498  0.52113  0.25136  1.0000
  H   H5577     1.0  0.86724  0.53235  0.25552  1.0000
  H   H5578     1.0  0.86355  0.53468  0.24245  1.0000
  H   H5579     1.0  0.84842  0.55010  0.24788  1.0000
  H   H5580     1.0  0.85093  0.51186  0.25444  1.0000
  H   H5581     1.0  0.84014  0.50595  0.24506  1.0000
  C   C4667     1.0  0.87803  0.73768  0.35420  1.0000
  H   H5582     1.0  0.87601  0.64179  0.26282  1.0000
  H   H5583     1.0  0.85310  0.52926  0.27304  1.0000
  H   H5584     1.0  0.80662  0.63592  0.19095  1.0000
  C   C4668     1.0  0.87528  0.64663  0.24032  1.0000
  C   C4669     1.0  0.88118  0.67786  0.30703  1.0000
  H   H5585     1.0  0.96999  0.62644  0.22937  1.0000
  C   C4670     1.0  0.90057  0.64778  0.24688  1.0000
  H   H5586     1.0  0.83924  0.52865  0.27261  1.0000
  H   H5587     1.0  0.91808  0.67526  0.33394  1.0000
  H   H5588     1.0  0.90284  0.62585  0.24900  1.0000
  H   H5589     1.0  0.88660  0.64591  0.26641  1.0000
  H   H5590     1.0  0.89770  0.65656  0.24271  1.0000
  C   C4671     1.0  0.84821  0.52691  0.26835  1.0000
  H   H5591     1.0  0.85554  0.69467  0.32422  1.0000
  C   C4672     1.0  0.87843  0.64278  0.22214  1.0000
  H   H5592     1.0  0.90816  0.72587  0.33275  1.0000
  C   C4673     1.0  0.99156  0.62408  0.24159  1.0000
  C   C4674     1.0  0.88287  0.68545  0.31214  1.0000
  H   H5593     1.0  0.86998  0.71785  0.32313  1.0000
  H   H5594     1.0  0.85202  0.54729  0.26093  1.0000
  C   C4675     1.0  0.86874  0.71136  0.31953  1.0000
  H   H5595     1.0  0.88826  0.67278  0.30247  1.0000
  C   C4676     1.0  0.92482  0.65261  0.33471  1.0000
  H   H5596     1.0  0.93677  0.71898  0.37285  1.0000
  H   H5597     1.0  0.93015  0.65554  0.35663  1.0000
  N   N310      1.0  0.84227  0.59982  0.26613  1.0000
  C   C4677     1.0  0.85414  0.59565  0.26110  1.0000
  C   C4678     1.0  0.83652  0.59034  0.27018  1.0000
  C   C4679     1.0  0.83695  0.60779  0.25724  1.0000
  C   C4680     1.0  0.84181  0.60475  0.27547  1.0000
  C   C4681     1.0  0.83790  0.61632  0.27529  1.0000
  C   C4682     1.0  0.84588  0.59798  0.28492  1.0000
  C   C4683     1.0  0.83817  0.62075  0.28401  1.0000
  C   C4684     1.0  0.84621  0.60252  0.29354  1.0000
  C   C4685     1.0  0.84243  0.61390  0.29305  1.0000
  H   H5598     1.0  0.85837  0.58864  0.26688  1.0000
  H   H5599     1.0  0.85492  0.59248  0.25363  1.0000
  H   H5600     1.0  0.85894  0.60236  0.25858  1.0000
  H   H5601     1.0  0.83611  0.58693  0.26323  1.0000
  H   H5602     1.0  0.82780  0.59295  0.27479  1.0000
  H   H5603     1.0  0.84092  0.58323  0.27574  1.0000
  H   H5604     1.0  0.84144  0.61468  0.25310  1.0000
  H   H5605     1.0  0.83709  0.60372  0.25054  1.0000
  H   H5606     1.0  0.82803  0.61141  0.26052  1.0000
  H   H5607     1.0  0.83486  0.62221  0.26838  1.0000
  H   H5608     1.0  0.84924  0.58915  0.28556  1.0000
  H   H5609     1.0  0.83540  0.62963  0.28360  1.0000
  H   H5610     1.0  0.84973  0.59723  0.30049  1.0000
  H   H5611     1.0  0.84297  0.61746  0.29959  1.0000
  N   N311      1.0  0.90895  0.56925  0.22938  1.0000
  C   C4686     1.0  0.89701  0.56840  0.23293  1.0000
  C   C4687     1.0  0.91033  0.57760  0.23468  1.0000
  C   C4688     1.0  0.91131  0.57331  0.21717  1.0000
  C   C4689     1.0  0.91688  0.55861  0.23234  1.0000
  C   C4690     1.0  0.91335  0.54872  0.23877  1.0000
  C   C4691     1.0  0.92859  0.55795  0.22880  1.0000
  C   C4692     1.0  0.92110  0.53885  0.24148  1.0000
  C   C4693     1.0  0.93626  0.54798  0.23137  1.0000
  C   C4694     1.0  0.93252  0.53847  0.23774  1.0000
  H   H5612     1.0  0.89439  0.56590  0.24208  1.0000
  H   H5613     1.0  0.89127  0.57651  0.23043  1.0000
  H   H5614     1.0  0.89538  0.56233  0.22911  1.0000
  H   H5615     1.0  0.90899  0.57459  0.24385  1.0000
  H   H5616     1.0  0.90428  0.58566  0.23294  1.0000
  H   H5617     1.0  0.91883  0.57947  0.23174  1.0000
  H   H5618     1.0  0.91177  0.56664  0.21292  1.0000
  H   H5619     1.0  0.94864  0.67051  0.33206  1.0000
  H   H5620     1.0  0.98367  0.59315  0.26094  1.0000
  C   C4695     1.0  0.94356  0.66805  0.34053  1.0000
  H   H5621     1.0  0.93111  0.67771  0.32495  1.0000
  C   C4696     1.0  0.92666  0.67595  0.33378  1.0000
  H   H5622     1.0  0.94859  0.66074  0.34533  1.0000
  H   H5623     1.0  0.91644  0.65662  0.33820  1.0000
  N   N312      1.0  0.89136  0.64168  0.25033  1.0000
  H   H5624     1.0  0.92572  0.67026  0.35607  1.0000
  C   C4697     1.0  0.86622  0.58368  0.18435  1.0000
  H   H5625     1.0  0.99583  0.59791  0.23738  1.0000
  H   H5626     1.0  0.76753  0.61485  0.18424  1.0000
  H   H5627     1.0  0.87162  0.58033  0.19019  1.0000
  H   H5628     1.0  0.85905  0.56912  0.19023  1.0000
  C   C4698     1.0  0.88179  0.59627  0.18393  1.0000
  C   C4699     1.0  0.85900  0.57709  0.18447  1.0000
  H   H5629     1.0  0.86532  0.71318  0.38030  1.0000
  H   H5630     1.0  0.93713  0.68432  0.38171  1.0000
  S   S1243     1.0  0.90198  0.72602  0.52531  1.0000
  C   C4700     1.0  0.93784  0.69312  0.39353  1.0000
  Fe  Fe621     1.0  0.91972  0.71969  0.51753  1.0000
  S   S1244     1.0  0.92386  0.71906  0.49940  1.0000
  Fe  Fe622     1.0  0.90540  0.71347  0.54060  1.0000
  S   S1245     1.0  0.91074  0.72501  0.54740  1.0000
  S   S1246     1.0  0.89188  0.70419  0.55010  1.0000
  Fe  Fe623     1.0  0.92787  0.71855  0.53811  1.0000
  C   C4701     1.0  0.92751  0.68761  0.41222  1.0000
  H   H5631     1.0  0.91845  0.73209  0.44693  1.0000
  S   S1247     1.0  0.92274  0.70590  0.53237  1.0000
  C   C4702     1.0  0.87341  0.73460  0.53413  1.0000
  S   S1248     1.0  0.95210  0.72571  0.41813  1.0000
  Fe  Fe624     1.0  0.88767  0.71799  0.46086  1.0000
  H   H5632     1.0  0.93888  0.70727  0.45957  1.0000
  S   S1249     1.0  0.88829  0.70965  0.47871  1.0000
  Fe  Fe625     1.0  0.89305  0.71510  0.43687  1.0000
  H   H5633     1.0  0.90450  0.68112  0.55639  1.0000
  S   S1250     1.0  0.90282  0.70387  0.42498  1.0000
  H   H5634     1.0  0.87353  0.71342  0.52293  1.0000
  H   H5635     1.0  0.90888  0.67368  0.48172  1.0000
  H   H5636     1.0  0.86043  0.73137  0.41056  1.0000
  S   S1251     1.0  0.92637  0.73176  0.52259  1.0000
  S   S1252     1.0  0.90286  0.71880  0.44708  1.0000
  S   S1253     1.0  0.87848  0.71261  0.45117  1.0000
  C   C4703     1.0  0.85754  0.71571  0.40258  1.0000
  H   H5637     1.0  0.91989  0.68929  0.55572  1.0000
  H   H5638     1.0  0.89448  0.73657  0.58141  1.0000
  H   H5639     1.0  0.92417  0.68839  0.42071  1.0000
  C   C4704     1.0  0.92770  0.67846  0.39795  1.0000
  H   H5640     1.0  0.95474  0.69664  0.40422  1.0000
  H   H5641     1.0  0.90151  0.69733  0.38948  1.0000
  H   H5642     1.0  0.91901  0.70054  0.57917  1.0000
  C   C4705     1.0  0.90307  0.67285  0.57351  1.0000
  C   C4706     1.0  0.91690  0.68381  0.56337  1.0000
  C   C4707     1.0  0.88854  0.70207  0.56463  1.0000
  H   H5643     1.0  0.92492  0.67247  0.39535  1.0000
  H   H5644     1.0  0.93770  0.72230  0.43967  1.0000
  H   H5645     1.0  0.90191  0.70853  0.56610  1.0000
  H   H5646     1.0  0.87459  0.69498  0.56593  1.0000
  C   C4708     1.0  0.91364  0.71676  0.49388  1.0000
  C   C4709     1.0  0.90539  0.71105  0.50057  1.0000
  C   C4710     1.0  0.89761  0.70895  0.49584  1.0000
  C   C4711     1.0  0.89787  0.71278  0.48446  1.0000
  C   C4712     1.0  0.90590  0.71879  0.47783  1.0000
  C   C4713     1.0  0.91383  0.72066  0.48251  1.0000
  H   H5647     1.0  0.90515  0.70803  0.50935  1.0000
  H   H5648     1.0  0.89140  0.70432  0.50102  1.0000
  H   H5649     1.0  0.90618  0.72178  0.46905  1.0000
  H   H5650     1.0  0.92101  0.66777  0.46435  1.0000
  H   H5651     1.0  0.89285  0.68505  0.45998  1.0000
  C   C4714     1.0  0.95061  0.72355  0.55875  1.0000
  C   C4715     1.0  0.92273  0.73508  0.43856  1.0000
  H   H5652     1.0  0.95798  0.73148  0.56702  1.0000
  H   H5653     1.0  0.92120  0.69245  0.44562  1.0000
  C   C4716     1.0  0.89483  0.70484  0.57052  1.0000
  C   C4717     1.0  0.88633  0.69530  0.40162  1.0000
  C   C4718     1.0  0.88051  0.69601  0.41249  1.0000
  C   C4719     1.0  0.88526  0.69920  0.41953  1.0000
  C   C4720     1.0  0.89600  0.70143  0.41584  1.0000
  C   C4721     1.0  0.90177  0.70080  0.40494  1.0000
  C   C4722     1.0  0.89694  0.69784  0.39783  1.0000
  H   H5654     1.0  0.87235  0.69397  0.41551  1.0000
  H   H5655     1.0  0.88076  0.69955  0.42794  1.0000
  H   H5656     1.0  0.91005  0.70255  0.40197  1.0000
  H   H5657     1.0  0.91866  0.67464  0.41478  1.0000
  H   H5658     1.0  0.92017  0.72512  0.47730  1.0000
  S   S1254     1.0  0.94554  0.73486  0.38791  1.0000
  S   S1255     1.0  0.87996  0.69160  0.39291  1.0000
  H   H5659     1.0  0.92059  0.71409  0.40693  1.0000
  H   H5660     1.0  0.88937  0.73820  0.54736  1.0000
  H   H5661     1.0  0.94024  0.69449  0.42347  1.0000
  C   C4723     1.0  0.93902  0.73327  0.42357  1.0000
  C   C4724     1.0  0.90278  0.67909  0.47667  1.0000
  C   C4725     1.0  0.92148  0.68175  0.57284  1.0000
  C   C4726     1.0  0.87226  0.72426  0.53357  1.0000
  H   H5662     1.0  0.95037  0.70801  0.39338  1.0000
  H   H5663     1.0  0.87735  0.72034  0.40128  1.0000
  H   H5664     1.0  0.91740  0.67492  0.45125  1.0000
  S   S1256     1.0  0.88573  0.73300  0.43048  1.0000
  C   C4727     1.0  0.92721  0.69810  0.47131  1.0000
  C   C4728     1.0  0.93066  0.70006  0.45155  1.0000
  C   C4729     1.0  0.91674  0.68949  0.46369  1.0000
  Fe  Fe626     1.0  0.89425  0.73654  0.44189  1.0000
  H   H5665     1.0  0.91488  0.68931  0.48130  1.0000
  H   H5666     1.0  0.89648  0.67422  0.47736  1.0000
  H   H5667     1.0  0.95144  0.71081  0.40565  1.0000
  H   H5668     1.0  0.92644  0.70362  0.42394  1.0000
  C   C4730     1.0  0.93438  0.69468  0.40458  1.0000
  C   C4731     1.0  0.92275  0.69377  0.45298  1.0000
  C   C4732     1.0  0.92425  0.67964  0.40891  1.0000
  S   S1257     1.0  0.87979  0.73608  0.45640  1.0000
  H   H5669     1.0  0.93101  0.72166  0.40569  1.0000
  Fe  Fe627     1.0  0.87187  0.73092  0.44554  1.0000
  N   N313      1.0  0.86177  0.72571  0.39573  1.0000
  S   S1258     1.0  0.94114  0.71366  0.54818  1.0000
  C   C4733     1.0  0.95319  0.73272  0.56083  1.0000
  H   H5670     1.0  0.89291  0.73412  0.49399  1.0000
  H   H5671     1.0  0.89553  0.69734  0.46192  1.0000
  C   C4734     1.0  0.94452  0.72510  0.55063  1.0000
  H   H5672     1.0  0.90282  0.69198  0.44979  1.0000
  C   C4735     1.0  0.92596  0.69911  0.57192  1.0000
  H   H5673     1.0  0.93706  0.69037  0.55464  1.0000
  C   C4736     1.0  0.87944  0.69719  0.57042  1.0000
  N   N314      1.0  0.90840  0.68284  0.46496  1.0000
  H   H5674     1.0  0.84827  0.71726  0.40390  1.0000
  Fe  Fe628     1.0  0.95637  0.73268  0.39985  1.0000
  H   H5675     1.0  0.93500  0.70341  0.44330  1.0000
  H   H5676     1.0  0.95333  0.71526  0.56344  1.0000
  C   C4737     1.0  0.86022  0.72635  0.57344  1.0000
  H   H5677     1.0  0.94693  0.68905  0.56245  1.0000
  H   H5678     1.0  0.87190  0.73663  0.54214  1.0000
  H   H5679     1.0  0.93079  0.71626  0.39421  1.0000
  C   C4738     1.0  0.93287  0.70224  0.46070  1.0000
  H   H5680     1.0  0.92883  0.69996  0.47842  1.0000
  N   N315      1.0  0.93059  0.68708  0.57245  1.0000
  H   H5681     1.0  0.85973  0.71317  0.41087  1.0000
  C   C4739     1.0  0.94887  0.70482  0.40250  1.0000
  C   C4740     1.0  0.92956  0.71445  0.40339  1.0000
  C   C4741     1.0  0.93544  0.70266  0.41971  1.0000
  C   C4742     1.0  0.93969  0.68568  0.56250  1.0000
  C   C4743     1.0  0.87439  0.72150  0.52332  1.0000
  H   H5682     1.0  0.86114  0.70834  0.39877  1.0000
  H   H5683     1.0  0.90802  0.66736  0.46152  1.0000
  C   C4744     1.0  0.89957  0.68956  0.45887  1.0000
  H   H5684     1.0  0.89811  0.68631  0.48055  1.0000
  H   H5685     1.0  0.93828  0.70928  0.42168  1.0000
  C   C4745     1.0  0.91396  0.67279  0.46032  1.0000
  C   C4746     1.0  0.87417  0.72303  0.39348  1.0000
  C   C4747     1.0  0.91919  0.69189  0.47285  1.0000
  C   C4748     1.0  0.93359  0.72954  0.43446  1.0000
  N   N316      1.0  0.93705  0.70392  0.40756  1.0000
  H   H5686     1.0  0.87762  0.73037  0.38833  1.0000
  H   H5687     1.0  0.92466  0.72132  0.57841  1.0000
  H   H5688     1.0  0.93248  0.70346  0.57186  1.0000
  H   H5689     1.0  0.92267  0.70326  0.56428  1.0000
  H   H5690     1.0  0.86339  0.71977  0.56883  1.0000
  C   C4749     1.0  0.85776  0.73434  0.40248  1.0000
  H   H5691     1.0  0.98409  0.72557  0.43104  1.0000
  C   C4750     1.0  0.90797  0.67925  0.56369  1.0000
  H   H5692     1.0  0.94278  0.67677  0.56206  1.0000
  H   H5693     1.0  0.84845  0.73680  0.40443  1.0000
  S   S1259     1.0  0.85348  0.73747  0.44617  1.0000
  H   H5694     1.0  0.87784  0.71617  0.38895  1.0000
  H   H5695     1.0  0.92259  0.72769  0.56498  1.0000
  H   H5696     1.0  0.93624  0.73710  0.53843  1.0000
  H   H5697     1.0  0.87951  0.72640  0.50585  1.0000
  C   C4751     1.0  0.98016  0.73612  0.41089  1.0000
  H   H5698     1.0  0.94297  0.69819  0.38721  1.0000
  C   C4752     1.0  0.87795  0.72897  0.51359  1.0000
  S   S1260     1.0  0.97135  0.72307  0.39018  1.0000
  H   H5699     1.0  0.88010  0.73767  0.56703  1.0000
  H   H5700     1.0  0.97363  0.73191  0.41075  1.0000
  C   C4753     1.0  0.85509  0.73691  0.56844  1.0000
  H   H5701     1.0  0.86992  0.71827  0.54112  1.0000
  Fe  Fe629     1.0  0.90865  0.73708  0.53140  1.0000
  H   H5702     1.0  0.90087  0.73661  0.50229  1.0000
  C   C4754     1.0  0.94096  0.73582  0.54467  1.0000
  C   C4755     1.0  0.93453  0.68515  0.39029  1.0000
  H   H5703     1.0  0.96990  0.72701  0.43064  1.0000
  C   C4756     1.0  0.85808  0.72922  0.38508  1.0000
  H   H5704     1.0  0.98826  0.72992  0.41047  1.0000
  H   H5705     1.0  0.92980  0.73371  0.57139  1.0000
  C   C4757     1.0  0.92270  0.72960  0.57288  1.0000
  H   H5706     1.0  0.89587  0.66970  0.57382  1.0000
  N   N317      1.0  0.91200  0.73658  0.57765  1.0000
  H   H5707     1.0  0.97340  0.73492  0.43850  1.0000
  H   H5708     1.0  0.90224  0.73172  0.56918  1.0000
  C   C4758     1.0  0.97603  0.73175  0.43072  1.0000
  C   C4759     1.0  0.87653  0.69517  0.58199  1.0000
  H   H5709     1.0  0.94282  0.68642  0.58162  1.0000
  C   C4760     1.0  0.90268  0.73170  0.57772  1.0000
  H   H5710     1.0  0.85426  0.73859  0.55994  1.0000
  H   H5711     1.0  0.85909  0.64234  0.67936  1.0000
  H   H5712     1.0  0.85191  0.63677  0.73762  1.0000
  Fe  Fe630     1.0  0.97281  0.57301  0.77173  1.0000
  S   S1261     1.0  0.97107  0.57990  0.75409  1.0000
  H   H5713     1.0  0.90326  0.66598  0.59071  1.0000
  H   H5714     1.0  0.88509  0.62518  0.77886  1.0000
  S   S1262     1.0  0.94418  0.58061  0.76302  1.0000
  Fe  Fe631     1.0  0.95956  0.56834  0.75748  1.0000
  S   S1263     1.0  0.96004  0.55957  0.74426  1.0000
  Fe  Fe632     1.0  0.95590  0.59164  0.76112  1.0000
  S   S1264     1.0  0.95262  0.60921  0.75128  1.0000
  H   H5715     1.0  0.98823  0.52774  0.74695  1.0000
  H   H5716     1.0  0.99305  0.53952  0.73753  1.0000
  Fe  Fe633     1.0  0.91565  0.53304  0.72434  1.0000
  S   S1265     1.0  0.90919  0.54134  0.73875  1.0000
  S   S1266     1.0  0.92294  0.54101  0.70691  1.0000
  Fe  Fe634     1.0  0.91078  0.51064  0.73786  1.0000
  S   S1267     1.0  0.90386  0.51706  0.75353  1.0000
  Fe  Fe635     1.0  0.89533  0.53223  0.74291  1.0000
  S   S1268     1.0  0.87771  0.54160  0.74776  1.0000
  Fe  Fe636     1.0  0.91833  0.52558  0.74810  1.0000
  S   S1269     1.0  0.92768  0.52590  0.76052  1.0000
  S   S1270     1.0  0.90096  0.52516  0.72762  1.0000
  S   S1271     1.0  0.92607  0.51793  0.73332  1.0000
  Fe  Fe637     1.0  0.90855  0.61480  0.72017  1.0000
  S   S1272     1.0  0.92207  0.61766  0.70497  1.0000
  S   S1273     1.0  0.90800  0.61153  0.73824  1.0000
  Fe  Fe638     1.0  0.89214  0.61398  0.70758  1.0000
  S   S1274     1.0  0.90395  0.61673  0.69102  1.0000
  S   S1275     1.0  0.87454  0.61198  0.71068  1.0000
  Fe  Fe639     1.0  0.91680  0.60462  0.70000  1.0000
  S   S1276     1.0  0.92948  0.59076  0.69305  1.0000
  Fe  Fe640     1.0  0.90820  0.62956  0.69723  1.0000
  S   S1277     1.0  0.90886  0.64729  0.68819  1.0000
  S   S1278     1.0  0.90455  0.60081  0.71582  1.0000
  S   S1279     1.0  0.89517  0.62778  0.71307  1.0000
  C   C4761     1.0  0.87740  0.63007  0.74426  1.0000
  C   C4762     1.0  0.90376  0.57691  0.76074  1.0000
  Fe  Fe641     1.0  0.91400  0.69877  0.61017  1.0000
  S   S1280     1.0  0.90754  0.68427  0.60988  1.0000
  S   S1281     1.0  0.92831  0.70400  0.59687  1.0000
  Fe  Fe642     1.0  0.89513  0.70551  0.62867  1.0000
  S   S1282     1.0  0.88692  0.69155  0.63018  1.0000
  S   S1283     1.0  0.88827  0.71739  0.64017  1.0000
  Fe  Fe643     1.0  0.90429  0.68094  0.62848  1.0000
  S   S1284     1.0  0.90781  0.66277  0.63705  1.0000
  Fe  Fe644     1.0  0.89084  0.69591  0.61161  1.0000
  S   S1285     1.0  0.87823  0.69597  0.60235  1.0000
  S   S1286     1.0  0.91231  0.69454  0.62861  1.0000
  S   S1287     1.0  0.89749  0.71082  0.61025  1.0000
  H   H5717     1.0  0.87496  0.73330  0.65265  1.0000
  H   H5718     1.0  0.99424  0.72800  0.59666  1.0000
  C   C4763     1.0  0.86256  0.63040  0.76072  1.0000
  N   N318      1.0  0.85978  0.73027  0.60190  1.0000
  C   C4764     1.0  0.88046  0.73582  0.62474  1.0000
  C   C4765     1.0  0.90855  0.65150  0.67397  1.0000
  C   C4766     1.0  0.90686  0.66287  0.66895  1.0000
  C   C4767     1.0  0.90663  0.66646  0.65762  1.0000
  C   C4768     1.0  0.90816  0.65866  0.65125  1.0000
  C   C4769     1.0  0.90980  0.64730  0.65629  1.0000
  C   C4770     1.0  0.90998  0.64372  0.66762  1.0000
  H   H5719     1.0  0.90574  0.66893  0.67382  1.0000
  H   H5720     1.0  0.90531  0.67524  0.65381  1.0000
  H   H5721     1.0  0.91103  0.64123  0.65138  1.0000
  H   H5722     1.0  0.91147  0.63494  0.67137  1.0000
  C   C4771     1.0  0.86811  0.61021  0.72489  1.0000
  C   C4772     1.0  0.87438  0.60695  0.73316  1.0000
  C   C4773     1.0  0.86894  0.60556  0.74444  1.0000
  C   C4774     1.0  0.85723  0.60767  0.74741  1.0000
  C   C4775     1.0  0.85104  0.61106  0.73912  1.0000
  C   C4776     1.0  0.85645  0.61217  0.72794  1.0000
  H   H5723     1.0  0.88339  0.60549  0.73092  1.0000
  H   H5724     1.0  0.87377  0.60297  0.75080  1.0000
  H   H5725     1.0  0.84200  0.61270  0.74138  1.0000
  H   H5726     1.0  0.85155  0.61469  0.72164  1.0000
  C   C4777     1.0  0.87534  0.54506  0.76066  1.0000
  H   H5727     1.0  0.88412  0.66750  0.64782  1.0000
  H   H5728     1.0  0.87591  0.71927  0.59796  1.0000
  N   N319      1.0  0.94479  0.58816  0.72328  1.0000
  H   H5729     1.0  0.85965  0.55649  0.75895  1.0000
  C   C4778     1.0  0.92452  0.55489  0.70366  1.0000
  C   C4779     1.0  0.93103  0.55876  0.69334  1.0000
  C   C4780     1.0  0.93249  0.56974  0.69028  1.0000
  C   C4781     1.0  0.92726  0.57707  0.69740  1.0000
  C   C4782     1.0  0.92073  0.57324  0.70779  1.0000
  C   C4783     1.0  0.91938  0.56213  0.71094  1.0000
  H   H5730     1.0  0.93503  0.55324  0.68767  1.0000
  H   H5731     1.0  0.93760  0.57259  0.68229  1.0000
  H   H5732     1.0  0.91691  0.57876  0.71342  1.0000
  H   H5733     1.0  0.91435  0.55918  0.71891  1.0000
  C   C4784     1.0  0.95468  0.60942  0.69773  1.0000
  H   H5734     1.0  0.90015  0.50166  0.72138  1.0000
  C   C4785     1.0  0.93943  0.61194  0.74821  1.0000
  C   C4786     1.0  0.93097  0.60724  0.75593  1.0000
  C   C4787     1.0  0.92113  0.60754  0.75289  1.0000
  C   C4788     1.0  0.91978  0.61251  0.74207  1.0000
  C   C4789     1.0  0.92796  0.61776  0.73447  1.0000
  C   C4790     1.0  0.93774  0.61762  0.73762  1.0000
  H   H5735     1.0  0.93214  0.60315  0.76421  1.0000
  H   H5736     1.0  0.91479  0.60353  0.75881  1.0000
  H   H5737     1.0  0.92685  0.62176  0.72614  1.0000
  H   H5738     1.0  0.94422  0.62142  0.73169  1.0000
  H   H5739     1.0  0.94926  0.57830  0.71083  1.0000
  C   C4791     1.0  0.95115  0.55012  0.74874  1.0000
  C   C4792     1.0  0.94749  0.54691  0.74097  1.0000
  C   C4793     1.0  0.94028  0.53944  0.74450  1.0000
  C   C4794     1.0  0.93708  0.53486  0.75578  1.0000
  C   C4795     1.0  0.94101  0.53785  0.76351  1.0000
  C   C4796     1.0  0.94782  0.54566  0.76002  1.0000
  H   H5740     1.0  0.95014  0.55025  0.73222  1.0000
  H   H5741     1.0  0.93728  0.53716  0.73849  1.0000
  H   H5742     1.0  0.93858  0.53429  0.77225  1.0000
  H   H5743     1.0  0.95061  0.54810  0.76606  1.0000
  C   C4797     1.0  0.90859  0.57729  0.74112  1.0000
  H   H5744     1.0  0.87545  0.64748  0.69669  1.0000
  H   H5745     1.0  0.84583  0.63412  0.75796  1.0000
  C   C4798     1.0  0.85782  0.73268  0.59054  1.0000
  Fe  Fe645     1.0  0.94770  0.57379  0.77998  1.0000
  N   N320      1.0  0.87501  0.64275  0.68183  1.0000
  C   C4799     1.0  0.88134  0.63353  0.67611  1.0000
  C   C4800     1.0  0.94688  0.72390  0.60730  1.0000
  C   C4801     1.0  0.94171  0.71588  0.61526  1.0000
  C   C4802     1.0  0.93597  0.70972  0.61212  1.0000
  C   C4803     1.0  0.93579  0.71126  0.60096  1.0000
  C   C4804     1.0  0.94145  0.71887  0.59295  1.0000
  C   C4805     1.0  0.94680  0.72534  0.59613  1.0000
  H   H5746     1.0  0.94205  0.71450  0.62386  1.0000
  H   H5747     1.0  0.93193  0.70360  0.61829  1.0000
  H   H5748     1.0  0.88880  0.64287  0.68832  1.0000
  C   C4806     1.0  0.95025  0.59725  0.71607  1.0000
  H   H5749     1.0  0.91801  0.56196  0.73640  1.0000
  H   H5750     1.0  0.90856  0.58183  0.73271  1.0000
  H   H5751     1.0  0.92731  0.73828  0.63921  1.0000
  H   H5752     1.0  0.94649  0.57061  0.72479  1.0000
  H   H5753     1.0  0.85826  0.64729  0.69142  1.0000
  H   H5754     1.0  0.94587  0.59656  0.70101  1.0000
  H   H5755     1.0  0.95421  0.58349  0.73612  1.0000
  H   H5756     1.0  0.94122  0.57919  0.74030  1.0000
  C   C4807     1.0  0.87499  0.67568  0.66114  1.0000
  H   H5757     1.0  0.95673  0.60104  0.72857  1.0000
  C   C4808     1.0  0.86986  0.67431  0.67234  1.0000
  H   H5758     1.0  0.86938  0.69152  0.58637  1.0000
  H   H5759     1.0  0.92490  0.51772  0.70970  1.0000
  C   C4809     1.0  0.94539  0.58605  0.73507  1.0000
  C   C4810     1.0  0.88000  0.66639  0.65652  1.0000
  C   C4811     1.0  0.86980  0.66363  0.67897  1.0000
  C   C4812     1.0  0.95020  0.57769  0.71935  1.0000
  C   C4813     1.0  0.88014  0.65567  0.66309  1.0000
  Fe  Fe646     1.0  0.85704  0.59670  0.77615  1.0000
  H   H5760     1.0  0.89979  0.59151  0.74813  1.0000
  H   H5761     1.0  0.88452  0.64891  0.65896  1.0000
  C   C4814     1.0  0.86573  0.55283  0.76412  1.0000
  C   C4815     1.0  0.91372  0.56014  0.75411  1.0000
  N   N321      1.0  0.88111  0.57357  0.72168  1.0000
  C   C4816     1.0  0.89070  0.57915  0.71717  1.0000
  C   C4817     1.0  0.88524  0.56146  0.72215  1.0000
  C   C4818     1.0  0.87357  0.57797  0.71373  1.0000
  C   C4819     1.0  0.87565  0.57547  0.73297  1.0000
  C   C4820     1.0  0.88186  0.57199  0.74144  1.0000
  C   C4821     1.0  0.86420  0.58077  0.73590  1.0000
  C   C4822     1.0  0.87702  0.57401  0.75205  1.0000
  C   C4823     1.0  0.85937  0.58245  0.74664  1.0000
  C   C4824     1.0  0.86580  0.57925  0.75462  1.0000
  H   H5762     1.0  0.89721  0.57577  0.72217  1.0000
  H   H5763     1.0  0.89494  0.57812  0.70857  1.0000
  H   H5764     1.0  0.88785  0.58824  0.71696  1.0000
  H   H5765     1.0  0.88930  0.55964  0.71380  1.0000
  H   H5766     1.0  0.87828  0.55695  0.72582  1.0000
  H   H5767     1.0  0.89157  0.55763  0.72735  1.0000
  H   H5768     1.0  0.87797  0.57649  0.70531  1.0000
  H   H5769     1.0  0.86632  0.57385  0.71639  1.0000
  H   H5770     1.0  0.87041  0.58715  0.71277  1.0000
  H   H5771     1.0  0.89048  0.56754  0.73997  1.0000
  H   H5772     1.0  0.85877  0.58379  0.73008  1.0000
  H   H5773     1.0  0.88189  0.57117  0.75841  1.0000
  H   H5774     1.0  0.85064  0.58656  0.74874  1.0000
  H   H5775     1.0  0.86198  0.58074  0.76286  1.0000
  H   H5776     1.0  0.94118  0.59352  0.73864  1.0000
  H   H5777     1.0  0.87766  0.63355  0.66918  1.0000
  C   C4825     1.0  0.93278  0.59095  0.72289  1.0000
  H   H5778     1.0  0.90437  0.73162  0.62416  1.0000
  C   C4826     1.0  0.96072  0.61177  0.71303  1.0000
  H   H5779     1.0  0.96483  0.61616  0.71632  1.0000
  C   C4827     1.0  0.95597  0.60300  0.72003  1.0000
  C   C4828     1.0  0.96002  0.61502  0.70192  1.0000
  C   C4829     1.0  0.86333  0.64125  0.68623  1.0000
  C   C4830     1.0  0.94993  0.60062  0.70466  1.0000
  H   H5780     1.0  0.92831  0.58459  0.72872  1.0000
  H   H5781     1.0  0.87521  0.68395  0.65604  1.0000
  H   H5782     1.0  0.86603  0.68157  0.67591  1.0000
  C   C4831     1.0  0.86784  0.49418  0.73794  1.0000
  H   H5783     1.0  0.95409  0.61196  0.68910  1.0000
  H   H5784     1.0  0.93149  0.59142  0.71456  1.0000
  H   H5785     1.0  0.92857  0.59910  0.72517  1.0000
  S   S1288     1.0  0.87415  0.58618  0.77732  1.0000
  H   H5786     1.0  0.95930  0.57541  0.71935  1.0000
  H   H5787     1.0  0.86303  0.63279  0.69158  1.0000
  C   C4832     1.0  0.90362  0.58271  0.74984  1.0000
  C   C4833     1.0  0.91381  0.56609  0.74322  1.0000
  C   C4834     1.0  0.91834  0.56115  0.77782  1.0000
  N   N322      1.0  0.99260  0.73350  0.61164  1.0000
  H   H5788     1.0  0.91790  0.55148  0.75520  1.0000
  C   C4835     1.0  0.88693  0.61292  0.76386  1.0000
  C   C4836     1.0  0.90846  0.56531  0.76325  1.0000
  H   H5789     1.0  0.87638  0.73344  0.59646  1.0000
  H   H5790     1.0  0.92767  0.72429  0.63870  1.0000
  H   H5791     1.0  0.90403  0.54519  0.77241  1.0000
  H   H5792     1.0  0.88999  0.61066  0.75564  1.0000
  H   H5793     1.0  0.86553  0.71594  0.58785  1.0000
  H   H5794     1.0  0.88942  0.63988  0.75578  1.0000
  H   H5795     1.0  0.88607  0.62824  0.74005  1.0000
  C   C4837     1.0  0.93967  0.49919  0.71474  1.0000
  H   H5796     1.0  0.85933  0.62898  0.76955  1.0000
  C   C4838     1.0  0.98858  0.55213  0.75234  1.0000
  C   C4839     1.0  0.87196  0.50337  0.73765  1.0000
  H   H5797     1.0  0.93909  0.67336  0.58335  1.0000
  H   H5798     1.0  0.89029  0.63407  0.67280  1.0000
  C   C4840     1.0  0.93013  0.49174  0.70478  1.0000
  H   H5799     1.0  0.88301  0.50935  0.74361  1.0000
  H   H5800     1.0  0.86200  0.49542  0.73277  1.0000
  H   H5801     1.0  0.96359  0.62191  0.69656  1.0000
  H   H5802     1.0  0.87206  0.63377  0.72887  1.0000
  H   H5803     1.0  0.88132  0.62523  0.68185  1.0000
  C   C4841     1.0  0.87505  0.65396  0.67458  1.0000
  H   H5804     1.0  0.94205  0.50676  0.71528  1.0000
  H   H5805     1.0  0.88493  0.73117  0.61843  1.0000
  H   H5806     1.0  0.94295  0.51380  0.69621  1.0000
  C   C4842     1.0  0.94013  0.50659  0.69540  1.0000
  H   H5807     1.0  0.86572  0.66302  0.68760  1.0000
  S   S1289     1.0  0.95297  0.73250  0.61133  1.0000
  S   S1290     1.0  0.91300  0.49222  0.73891  1.0000
  H   H5808     1.0  0.95096  0.73134  0.58990  1.0000
  C   C4843     1.0  0.85430  0.72114  0.60903  1.0000
  C   C4844     1.0  0.85465  0.63341  0.75412  1.0000
  C   C4845     1.0  0.85807  0.63484  0.74266  1.0000
  C   C4846     1.0  0.87204  0.55152  0.78073  1.0000
  C   C4847     1.0  0.98269  0.53631  0.76577  1.0000
  H   H5809     1.0  0.85798  0.71316  0.60623  1.0000
  H   H5810     1.0  0.91874  0.73109  0.61711  1.0000
  H   H5811     1.0  0.93464  0.49616  0.72311  1.0000
  C   C4848     1.0  0.87971  0.50226  0.74393  1.0000
  H   H5812     1.0  0.94770  0.50034  0.69264  1.0000
  C   C4849     1.0  0.91221  0.73600  0.58932  1.0000
  C   C4850     1.0  0.92441  0.49262  0.69639  1.0000
  S   S1291     1.0  0.84978  0.60625  0.76128  1.0000
  C   C4851     1.0  0.90152  0.49270  0.72316  1.0000
  C   C4852     1.0  0.89234  0.63068  0.75768  1.0000
  H   H5813     1.0  0.91772  0.51277  0.70254  1.0000
  C   C4853     1.0  0.88012  0.64152  0.69130  1.0000
  H   H5814     1.0  0.88047  0.63308  0.69676  1.0000
  H   H5815     1.0  0.95968  0.52473  0.77815  1.0000
  H   H5816     1.0  0.97708  0.73694  0.60619  1.0000
  H   H5817     1.0  0.93210  0.73370  0.62629  1.0000
  H   H5818     1.0  0.90355  0.72295  0.58254  1.0000
  N   N323      1.0  0.88277  0.62507  0.76282  1.0000
  H   H5819     1.0  0.98550  0.72469  0.62772  1.0000
  C   C4854     1.0  0.87422  0.62885  0.75596  1.0000
  H   H5820     1.0  0.90030  0.58168  0.76711  1.0000
  C   C4855     1.0  0.86942  0.63316  0.73774  1.0000
  C   C4856     1.0  0.87197  0.72673  0.60156  1.0000
  C   C4857     1.0  0.88342  0.49196  0.75048  1.0000
  C   C4858     1.0  0.91305  0.72975  0.62543  1.0000
  H   H5821     1.0  0.89686  0.70473  0.58675  1.0000
  H   H5822     1.0  0.89740  0.62813  0.74992  1.0000
  H   H5823     1.0  0.89393  0.60968  0.76832  1.0000
  C   C4859     1.0  0.97351  0.53140  0.76701  1.0000
  H   H5824     1.0  0.89844  0.62850  0.76313  1.0000
  H   H5825     1.0  0.88016  0.60837  0.76843  1.0000
  N   N324      1.0  0.90872  0.55922  0.77480  1.0000
  H   H5826     1.0  0.91853  0.54297  0.77256  1.0000
  H   H5827     1.0  0.94755  0.49288  0.71312  1.0000
  H   H5828     1.0  0.92203  0.50050  0.69091  1.0000
  H   H5829     1.0  0.92976  0.68425  0.59002  1.0000
  C   C4860     1.0  0.86419  0.55624  0.77405  1.0000
  C   C4861     1.0  0.92292  0.51008  0.70886  1.0000
  H   H5830     1.0  0.85527  0.71936  0.61774  1.0000
  H   H5831     1.0  0.97968  0.55632  0.75240  1.0000
  H   H5832     1.0  0.94165  0.71985  0.58428  1.0000
  H   H5833     1.0  0.88973  0.49109  0.75507  1.0000
  H   H5834     1.0  0.84520  0.72323  0.60908  1.0000
  H   H5835     1.0  0.98492  0.71931  0.61639  1.0000
  C   C4862     1.0  0.88280  0.69785  0.58790  1.0000
  C   C4863     1.0  0.93577  0.68250  0.58228  1.0000
  H   H5836     1.0  0.91763  0.50675  0.71689  1.0000
  H   H5837     1.0  0.97874  0.54113  0.74441  1.0000
  N   N325      1.0  0.93321  0.50165  0.70599  1.0000
  H   H5838     1.0  0.97119  0.53007  0.76006  1.0000
  C   C4864     1.0  0.90661  0.73444  0.64342  1.0000
  H   H5839     1.0  0.87372  0.72456  0.61001  1.0000
  C   C4865     1.0  0.88050  0.73086  0.63591  1.0000
  C   C4866     1.0  0.98453  0.53800  0.77555  1.0000
  H   H5840     1.0  0.89050  0.53422  0.76490  1.0000
  C   C4867     1.0  0.87833  0.62731  0.77416  1.0000
  H   H5841     1.0  0.91504  0.72071  0.62931  1.0000
  H   H5842     1.0  0.89373  0.49245  0.71027  1.0000
  C   C4868     1.0  0.88312  0.54030  0.76742  1.0000
  H   H5843     1.0  0.90897  0.72568  0.64797  1.0000
  H   H5844     1.0  0.91905  0.67319  0.59041  1.0000
  H   H5845     1.0  0.89077  0.56303  0.77979  1.0000
  H   H5846     1.0  0.93546  0.50987  0.68863  1.0000
  C   C4869     1.0  0.99016  0.72308  0.61941  1.0000
  H   H5847     1.0  0.86924  0.51137  0.73244  1.0000
  C   C4870     1.0  0.90997  0.54703  0.77626  1.0000
  C   C4871     1.0  0.86150  0.72424  0.58433  1.0000
  C   C4872     1.0  0.98737  0.53689  0.74558  1.0000
  C   C4873     1.0  0.96674  0.52830  0.77743  1.0000
  H   H5848     1.0  0.85691  0.56247  0.77655  1.0000
  C   C4874     1.0  0.99151  0.58546  0.78073  1.0000
  C   C4875     1.0  0.88131  0.54331  0.77758  1.0000
  N   N326      1.0  0.98995  0.53988  0.75487  1.0000
  H   H5849     1.0  0.91445  0.72724  0.59394  1.0000
  H   H5850     1.0  0.99103  0.54213  0.77523  1.0000
  H   H5851     1.0  0.87232  0.62205  0.77930  1.0000
  C   C4876     1.0  0.92582  0.73315  0.63424  1.0000
  H   H5852     1.0  0.87420  0.63622  0.77386  1.0000
  H   H5853     1.0  0.92641  0.55801  0.77237  1.0000
  S   S1292     1.0  0.99051  0.56661  0.77472  1.0000
  S   S1293     1.0  0.96231  0.56045  0.77461  1.0000
  N   N327      1.0  0.91422  0.73672  0.63239  1.0000
  H   H5854     1.0  0.89784  0.73543  0.64285  1.0000
  H   H5855     1.0  0.91779  0.57017  0.77692  1.0000
  S   S1294     1.0  0.95838  0.58578  0.77864  1.0000
  H   H5856     1.0  0.99116  0.55503  0.75848  1.0000
  H   H5857     1.0  0.99360  0.55528  0.74406  1.0000
  H   H5858     1.0  0.85714  0.73788  0.61579  1.0000
  C   C4877     1.0  0.87494  0.73706  0.64401  1.0000
  C   C4878     1.0  0.90724  0.67078  0.58301  1.0000
  C   C4879     1.0  0.91634  0.67507  0.58271  1.0000
  H   H5859     1.0  0.90878  0.60471  0.78193  1.0000
  H   H5860     1.0  0.98250  0.58771  0.78183  1.0000
  C   C4880     1.0  0.89202  0.70264  0.58219  1.0000
  C   C4881     1.0  0.99746  0.57572  0.77709  1.0000
  C   C4882     1.0  0.90006  0.58179  0.79900  1.0000
  C   C4883     1.0  0.59303  0.72700  0.86609  1.0000
  H   H5861     1.0  0.58822  0.72765  0.96331  1.0000
  C   C4884     1.0  0.62805  0.73783  0.88709  1.0000
  C   C4885     1.0  0.96884  0.53001  0.78686  1.0000
  Fe  Fe647     1.0  0.76204  0.57605  0.96627  1.0000
  S   S1295     1.0  0.77617  0.58054  0.95211  1.0000
  S   S1296     1.0  0.74508  0.57715  0.96355  1.0000
  Fe  Fe648     1.0  0.73277  0.53641  0.92078  1.0000
  S   S1297     1.0  0.71847  0.52862  0.93116  1.0000
  S   S1298     1.0  0.74463  0.54353  0.92560  1.0000
  Fe  Fe649     1.0  0.72775  0.53607  0.89930  1.0000
  S   S1299     1.0  0.71268  0.52873  0.90753  1.0000
  S   S1300     1.0  0.73350  0.53956  0.88088  1.0000
  Fe  Fe650     1.0  0.70879  0.54043  0.91892  1.0000
  S   S1301     1.0  0.69100  0.54815  0.92567  1.0000
  Fe  Fe651     1.0  0.72337  0.51738  0.91907  1.0000
  S   S1302     1.0  0.72271  0.54907  0.90936  1.0000
  S   S1303     1.0  0.73889  0.52388  0.90994  1.0000
  C   C4886     1.0  0.68639  0.59648  0.97227  1.0000
  C   C4887     1.0  0.76917  0.52489  0.91679  1.0000
  Fe  Fe652     1.0  0.52689  0.72288  0.92283  1.0000
  C   C4888     1.0  0.68595  0.57630  0.90060  1.0000
  S   S1304     1.0  0.53967  0.70689  0.92551  1.0000
  C   C4889     1.0  0.67779  0.49204  0.91902  1.0000
  H   H5862     1.0  0.75264  0.55560  0.95493  1.0000
  S   S1305     1.0  0.51252  0.72648  0.93699  1.0000
  S   S1306     1.0  0.51630  0.72733  0.91019  1.0000
  H   H5863     1.0  0.71466  0.57556  0.97409  1.0000
  Fe  Fe653     1.0  0.62134  0.71190  0.90071  1.0000
  S   S1307     1.0  0.61870  0.70119  0.89078  1.0000
  S   S1308     1.0  0.63275  0.72398  0.89369  1.0000
  Fe  Fe654     1.0  0.60738  0.70131  0.92190  1.0000
  S   S1309     1.0  0.60345  0.68978  0.91390  1.0000
  S   S1310     1.0  0.59960  0.70075  0.93984  1.0000
  Fe  Fe655     1.0  0.62165  0.68721  0.90544  1.0000
  S   S1311     1.0  0.63042  0.66931  0.90495  1.0000
  Fe  Fe656     1.0  0.60083  0.70463  0.90017  1.0000
  S   S1312     1.0  0.58613  0.70961  0.89195  1.0000
  S   S1313     1.0  0.62575  0.69760  0.91466  1.0000
  S   S1314     1.0  0.60326  0.71654  0.90887  1.0000
  Fe  Fe657     1.0  0.71001  0.61984  0.92076  1.0000
  S   S1315     1.0  0.69174  0.62396  0.92837  1.0000
  S   S1316     1.0  0.72494  0.62045  0.92645  1.0000
  Fe  Fe658     1.0  0.70631  0.61499  0.90045  1.0000
  S   S1317     1.0  0.68753  0.61876  0.90595  1.0000
  S   S1318     1.0  0.71697  0.60926  0.88509  1.0000
  Fe  Fe659     1.0  0.68957  0.63339  0.91127  1.0000
  S   S1319     1.0  0.68150  0.65177  0.90796  1.0000
  Fe  Fe660     1.0  0.69107  0.60909  0.92259  1.0000
  S   S1320     1.0  0.68132  0.59668  0.93419  1.0000
  S   S1321     1.0  0.70800  0.63033  0.90420  1.0000
  S   S1322     1.0  0.70958  0.60415  0.91661  1.0000
  Fe  Fe661     1.0  0.78183  0.56831  0.87274  1.0000
  S   S1323     1.0  0.79671  0.55980  0.88025  1.0000
  S   S1324     1.0  0.77667  0.55997  0.86224  1.0000
  Fe  Fe662     1.0  0.77918  0.58949  0.88010  1.0000
  S   S1325     1.0  0.79405  0.58291  0.88810  1.0000
  S   S1326     1.0  0.76827  0.60629  0.88150  1.0000
  Fe  Fe663     1.0  0.80240  0.57591  0.87282  1.0000
  S   S1327     1.0  0.82064  0.57445  0.86406  1.0000
  Fe  Fe664     1.0  0.78708  0.56749  0.89475  1.0000
  S   S1328     1.0  0.78524  0.55691  0.91212  1.0000
  S   S1329     1.0  0.78811  0.58393  0.86426  1.0000
  S   S1330     1.0  0.77158  0.57457  0.88783  1.0000
  H   H5864     1.0  0.77369  0.52133  0.86871  1.0000
  H   H5865     1.0  0.90857  0.54266  0.78513  1.0000
  Fe  Fe665     1.0  0.86486  0.57448  0.79073  1.0000
  S   S1331     1.0  0.86478  0.58188  0.80471  1.0000
  H   H5866     1.0  0.72516  0.63678  0.87079  1.0000
  Fe  Fe666     1.0  0.84843  0.59267  0.80130  1.0000
  S   S1332     1.0  0.83292  0.59870  0.81359  1.0000
  Fe  Fe667     1.0  0.87269  0.59440  0.79116  1.0000
  H   H5867     1.0  0.67532  0.51840  0.92113  1.0000
  H   H5868     1.0  0.51001  0.67540  0.93570  1.0000
  C   C4890     1.0  0.82386  0.58085  0.84989  1.0000
  C   C4891     1.0  0.83441  0.57727  0.84336  1.0000
  C   C4892     1.0  0.83724  0.58246  0.83211  1.0000
  C   C4893     1.0  0.82957  0.59138  0.82741  1.0000
  C   C4894     1.0  0.81901  0.59489  0.83392  1.0000
  C   C4895     1.0  0.81614  0.58960  0.84510  1.0000
  H   H5869     1.0  0.84043  0.57049  0.84703  1.0000
  H   H5870     1.0  0.84538  0.57967  0.82715  1.0000
  H   H5871     1.0  0.81307  0.60182  0.83033  1.0000
  H   H5872     1.0  0.80806  0.59254  0.85009  1.0000
  C   C4896     1.0  0.73128  0.60803  0.88434  1.0000
  C   C4897     1.0  0.73462  0.61240  0.89148  1.0000
  C   C4898     1.0  0.74600  0.61187  0.89051  1.0000
  C   C4899     1.0  0.75412  0.60658  0.88271  1.0000
  C   C4900     1.0  0.75085  0.60174  0.87590  1.0000
  C   C4901     1.0  0.73942  0.60264  0.87658  1.0000
  H   H5873     1.0  0.72847  0.61631  0.89767  1.0000
  H   H5874     1.0  0.74855  0.61539  0.89594  1.0000
  H   H5875     1.0  0.75712  0.59763  0.86985  1.0000
  H   H5876     1.0  0.73693  0.59922  0.87103  1.0000
  C   C4902     1.0  0.64472  0.66463  0.90543  1.0000
  C   C4903     1.0  0.65134  0.67202  0.90470  1.0000
  C   C4904     1.0  0.66264  0.66796  0.90538  1.0000
  C   C4905     1.0  0.66734  0.65650  0.90695  1.0000
  C   C4906     1.0  0.66071  0.64911  0.90773  1.0000
  C   C4907     1.0  0.64945  0.65318  0.90690  1.0000
  H   H5877     1.0  0.64777  0.68085  0.90356  1.0000
  H   H5878     1.0  0.66775  0.67372  0.90471  1.0000
  H   H5879     1.0  0.66427  0.64027  0.90889  1.0000
  H   H5880     1.0  0.64437  0.64743  0.90744  1.0000
  C   C4908     1.0  0.91057  0.57467  0.79961  1.0000
  C   C4909     1.0  0.99719  0.59216  0.78327  1.0000
  H   H5881     1.0  0.80358  0.57419  0.97032  1.0000
  C   C4910     1.0  0.60631  0.73815  0.86469  1.0000
  H   H5882     1.0  0.81383  0.57953  0.82154  1.0000
  H   H5883     1.0  0.69463  0.55004  0.89620  1.0000
  C   C4911     1.0  0.67774  0.50943  0.92311  1.0000
  C   C4912     1.0  0.90923  0.59630  0.78680  1.0000
  C   C4913     1.0  0.85928  0.60641  0.81707  1.0000
  H   H5884     1.0  0.72171  0.56470  0.94925  1.0000
  C   C4914     1.0  0.71003  0.58558  0.94424  1.0000
  H   H5885     1.0  0.77311  0.54915  0.89892  1.0000
  C   C4915     1.0  0.89938  0.59264  0.79264  1.0000
  H   H5886     1.0  0.55747  0.71719  0.93598  1.0000
  N   N328      1.0  0.77475  0.53163  0.90643  1.0000
  C   C4916     1.0  0.71204  0.49779  0.90996  1.0000
  H   H5887     1.0  0.50013  0.69021  0.89591  1.0000
  C   C4917     1.0  0.85502  0.59992  0.83750  1.0000
  H   H5888     1.0  0.82432  0.54428  0.83563  1.0000
  C   C4918     1.0  0.55247  0.70727  0.91592  1.0000
  C   C4919     1.0  0.56225  0.69982  0.91843  1.0000
  C   C4920     1.0  0.57260  0.70036  0.91103  1.0000
  C   C4921     1.0  0.57319  0.70824  0.90101  1.0000
  C   C4922     1.0  0.56334  0.71540  0.89832  1.0000
  C   C4923     1.0  0.55302  0.71501  0.90583  1.0000
  H   H5889     1.0  0.56185  0.69376  0.92620  1.0000
  H   H5890     1.0  0.58011  0.69467  0.91309  1.0000
  H   H5891     1.0  0.56370  0.72141  0.89052  1.0000
  H   H5892     1.0  0.54546  0.72063  0.90379  1.0000
  C   C4924     1.0  0.60446  0.72855  0.95272  1.0000
  C   C4925     1.0  0.61277  0.72426  0.94433  1.0000
  C   C4926     1.0  0.61122  0.71589  0.94008  1.0000
  C   C4927     1.0  0.60161  0.71148  0.94460  1.0000
  C   C4928     1.0  0.59344  0.71564  0.95310  1.0000
  C   C4929     1.0  0.59471  0.72437  0.95692  1.0000
  C   C4930     1.0  0.62632  0.73039  0.86433  1.0000
  H   H5893     1.0  0.61753  0.71271  0.93346  1.0000
  H   H5894     1.0  0.58599  0.71225  0.95662  1.0000
  S   S1333     1.0  0.85634  0.60596  0.78887  1.0000
  H   H5895     1.0  0.70356  0.49634  0.89812  1.0000
  H   H5896     1.0  0.77336  0.51593  0.91786  1.0000
  C   C4931     1.0  0.50081  0.69286  0.92165  1.0000
  S   S1334     1.0  0.87064  0.55601  0.79288  1.0000
  H   H5897     1.0  0.96343  0.52780  0.79488  1.0000
  C   C4932     1.0  0.76442  0.55473  0.86772  1.0000
  C   C4933     1.0  0.76035  0.55081  0.86078  1.0000
  C   C4934     1.0  0.75087  0.54617  0.86492  1.0000
  C   C4935     1.0  0.74553  0.54520  0.87608  1.0000
  C   C4936     1.0  0.74964  0.54901  0.88312  1.0000
  C   C4937     1.0  0.75899  0.55396  0.87888  1.0000
  H   H5898     1.0  0.76452  0.55139  0.85215  1.0000
  H   H5899     1.0  0.74769  0.54327  0.85945  1.0000
  H   H5900     1.0  0.74555  0.54826  0.89177  1.0000
  H   H5901     1.0  0.76211  0.55699  0.88425  1.0000
  C   C4938     1.0  0.68872  0.56167  0.92783  1.0000
  C   C4939     1.0  0.67855  0.56598  0.93438  1.0000
  C   C4940     1.0  0.67640  0.57674  0.93620  1.0000
  C   C4941     1.0  0.68426  0.58342  0.93125  1.0000
  C   C4942     1.0  0.69443  0.57919  0.92460  1.0000
  C   C4943     1.0  0.69671  0.56826  0.92301  1.0000
  H   H5902     1.0  0.67234  0.56096  0.93812  1.0000
  H   H5903     1.0  0.66855  0.57995  0.94139  1.0000
  H   H5904     1.0  0.70055  0.58427  0.92076  1.0000
  H   H5905     1.0  0.70451  0.56507  0.91782  1.0000
  H   H5906     1.0  0.79083  0.57279  0.84412  1.0000
  H   H5907     1.0  0.62029  0.72752  0.94101  1.0000
  H   H5908     1.0  0.49933  0.68424  0.94374  1.0000
  H   H5909     1.0  0.71234  0.50639  0.90627  1.0000
  C   C4944     1.0  0.72383  0.60540  0.96309  1.0000
  C   C4945     1.0  0.71389  0.60893  0.95920  1.0000
  C   C4946     1.0  0.71417  0.61338  0.94788  1.0000
  C   C4947     1.0  0.72435  0.61467  0.94055  1.0000
  C   C4948     1.0  0.73424  0.61132  0.94448  1.0000
  C   C4949     1.0  0.73402  0.60647  0.95569  1.0000
  H   H5910     1.0  0.70601  0.60814  0.96491  1.0000
  H   H5911     1.0  0.70649  0.61603  0.94491  1.0000
  H   H5912     1.0  0.74206  0.61251  0.93884  1.0000
  H   H5913     1.0  0.74171  0.60383  0.95868  1.0000
  C   C4950     1.0  0.77888  0.57380  0.94108  1.0000
  C   C4951     1.0  0.77529  0.56398  0.94265  1.0000
  C   C4952     1.0  0.77764  0.55867  0.93379  1.0000
  C   C4953     1.0  0.78309  0.56344  0.92319  1.0000
  C   C4954     1.0  0.78659  0.57331  0.92159  1.0000
  C   C4955     1.0  0.78476  0.57831  0.93060  1.0000
  H   H5914     1.0  0.77093  0.56035  0.95076  1.0000
  H   H5915     1.0  0.77509  0.55092  0.93511  1.0000
  H   H5916     1.0  0.79087  0.57701  0.91348  1.0000
  H   H5917     1.0  0.78767  0.58584  0.92936  1.0000
  C   C4956     1.0  0.73921  0.54686  0.96124  1.0000
  C   C4957     1.0  0.73257  0.54122  0.95863  1.0000
  C   C4958     1.0  0.73407  0.54019  0.94767  1.0000
  C   C4959     1.0  0.74236  0.54464  0.93938  1.0000
  C   C4960     1.0  0.74906  0.55016  0.94204  1.0000
  C   C4961     1.0  0.74743  0.55136  0.95292  1.0000
  H   H5918     1.0  0.72621  0.53771  0.96507  1.0000
  H   H5919     1.0  0.72892  0.53586  0.94570  1.0000
  H   H5920     1.0  0.75554  0.55350  0.93566  1.0000
  N   N329      1.0  0.74816  0.58430  0.92353  1.0000
  C   C4962     1.0  0.74358  0.57948  0.93528  1.0000
  C   C4963     1.0  0.73865  0.59119  0.91849  1.0000
  C   C4964     1.0  0.75360  0.57490  0.91785  1.0000
  C   C4965     1.0  0.75620  0.59128  0.92224  1.0000
  C   C4966     1.0  0.75804  0.59433  0.93134  1.0000
  C   C4967     1.0  0.76217  0.59562  0.91156  1.0000
  C   C4968     1.0  0.76537  0.60129  0.92977  1.0000
  C   C4969     1.0  0.76957  0.60247  0.91009  1.0000
  C   C4970     1.0  0.77116  0.60532  0.91917  1.0000
  H   H5921     1.0  0.73855  0.58608  0.93988  1.0000
  H   H5922     1.0  0.73797  0.57388  0.93602  1.0000
  H   H5923     1.0  0.75045  0.57440  0.93954  1.0000
  H   H5924     1.0  0.74139  0.59451  0.90947  1.0000
  H   H5925     1.0  0.73449  0.59850  0.92235  1.0000
  H   H5926     1.0  0.73225  0.58637  0.91941  1.0000
  H   H5927     1.0  0.75586  0.57770  0.90873  1.0000
  H   H5928     1.0  0.76140  0.57013  0.92068  1.0000
  H   H5929     1.0  0.74808  0.56895  0.91946  1.0000
  H   H5930     1.0  0.75403  0.59140  0.93982  1.0000
  H   H5931     1.0  0.76112  0.59380  0.90422  1.0000
  H   H5932     1.0  0.76678  0.60329  0.93689  1.0000
  H   H5933     1.0  0.77413  0.60555  0.90184  1.0000
  H   H5934     1.0  0.77698  0.61053  0.91802  1.0000
  N   N330      1.0  0.70738  0.57723  0.95460  1.0000
  H   H5935     1.0  0.76417  0.51600  0.90386  1.0000
  H   H5936     1.0  0.78643  0.53269  0.91536  1.0000
  C   C4971     1.0  0.79278  0.55078  0.96246  1.0000
  C   C4972     1.0  0.70196  0.58298  0.96389  1.0000
  C   C4973     1.0  0.69164  0.59085  0.96367  1.0000
  H   H5937     1.0  0.71543  0.59068  0.94514  1.0000
  H   H5938     1.0  0.57797  0.71603  0.93552  1.0000
  S   S1335     1.0  0.84784  0.58419  0.78837  1.0000
  C   C4974     1.0  0.61520  0.72923  0.86761  1.0000
  S   S1336     1.0  0.75561  0.58601  0.97957  1.0000
  S   S1337     1.0  0.55470  0.73461  0.97025  1.0000
  C   C4975     1.0  0.78892  0.53846  0.98028  1.0000
  C   C4976     1.0  0.69968  0.57108  0.95320  1.0000
  H   H5939     1.0  0.69653  0.52276  0.93451  1.0000
  C   C4977     1.0  0.92043  0.57826  0.79362  1.0000
  C   C4978     1.0  0.68558  0.56545  0.90090  1.0000
  H   H5940     1.0  0.69727  0.56493  0.96094  1.0000
  H   H5941     1.0  0.61043  0.73452  0.92089  1.0000
  H   H5942     1.0  0.68759  0.59281  0.95676  1.0000
  H   H5943     1.0  0.71434  0.58158  0.93708  1.0000
  H   H5944     1.0  0.61066  0.73728  0.89066  1.0000
  H   H5945     1.0  0.85368  0.60155  0.81614  1.0000
  H   H5946     1.0  0.88721  0.53942  0.78291  1.0000
  N   N331      1.0  0.62573  0.66537  0.94060  1.0000
  C   C4979     1.0  0.63127  0.65489  0.93667  1.0000
  C   C4980     1.0  0.62112  0.66232  0.95268  1.0000
  C   C4981     1.0  0.61634  0.67095  0.93491  1.0000
  C   C4982     1.0  0.63330  0.67307  0.93840  1.0000
  C   C4983     1.0  0.62930  0.68331  0.94195  1.0000
  C   C4984     1.0  0.64464  0.67084  0.93257  1.0000
  C   C4985     1.0  0.63623  0.69080  0.93985  1.0000
  C   C4986     1.0  0.65147  0.67841  0.93048  1.0000
  C   C4987     1.0  0.64728  0.68837  0.93409  1.0000
  H   H5947     1.0  0.63846  0.65021  0.94060  1.0000
  H   H5948     1.0  0.62542  0.64923  0.93852  1.0000
  H   H5949     1.0  0.63431  0.65658  0.92751  1.0000
  H   H5950     1.0  0.62798  0.65865  0.95730  1.0000
  H   H5951     1.0  0.61576  0.65615  0.95465  1.0000
  H   H5952     1.0  0.61574  0.66960  0.95607  1.0000
  H   H5953     1.0  0.61957  0.67383  0.92591  1.0000
  H   H5954     1.0  0.61071  0.66531  0.93580  1.0000
  H   H5955     1.0  0.61103  0.67835  0.93811  1.0000
  H   H5956     1.0  0.62070  0.68575  0.94616  1.0000
  H   H5957     1.0  0.64842  0.66341  0.92932  1.0000
  H   H5958     1.0  0.63292  0.69863  0.94252  1.0000
  H   H5959     1.0  0.66004  0.67659  0.92585  1.0000
  H   H5960     1.0  0.65257  0.69429  0.93228  1.0000
  H   H5961     1.0  0.52157  0.69882  0.91532  1.0000
  C   C4988     1.0  0.76866  0.54337  0.90571  1.0000
  H   H5962     1.0  0.70352  0.56650  0.94638  1.0000
  H   H5963     1.0  0.87626  0.58640  0.83202  1.0000
  H   H5964     1.0  0.85451  0.61510  0.81711  1.0000
  H   H5965     1.0  0.70174  0.49822  0.94174  1.0000
  H   H5966     1.0  0.86604  0.60688  0.80943  1.0000
  H   H5967     1.0  0.76921  0.52771  0.92426  1.0000
  C   C4989     1.0  0.78066  0.53325  0.88581  1.0000
  H   H5968     1.0  0.67881  0.52132  0.94900  1.0000
  H   H5969     1.0  0.70237  0.59145  0.94193  1.0000
  C   C4990     1.0  0.77490  0.52816  0.89628  1.0000
  H   H5970     1.0  0.91108  0.56631  0.80462  1.0000
  C   C4991     1.0  0.57590  0.72526  0.93446  1.0000
  S   S1338     1.0  0.73686  0.54858  0.97483  1.0000
  N   N332      1.0  0.50847  0.69287  0.92851  1.0000
  H   H5971     1.0  0.79508  0.56663  0.96227  1.0000
  H   H5972     1.0  0.58418  0.72603  0.86901  1.0000
  C   C4992     1.0  0.50784  0.68349  0.93829  1.0000
  H   H5973     1.0  0.79067  0.53672  0.90085  1.0000
  H   H5974     1.0  0.63289  0.72358  0.86708  1.0000
  H   H5975     1.0  0.76018  0.52578  0.91697  1.0000
  C   C4993     1.0  0.76887  0.52026  0.89634  1.0000
  H   H5976     1.0  0.78460  0.53486  0.86812  1.0000
  C   C4994     1.0  0.87095  0.60828  0.82801  1.0000
  H   H5977     1.0  0.87519  0.60458  0.83509  1.0000
  S   S1339     1.0  0.88633  0.60188  0.79223  1.0000
  C   C4995     1.0  0.50462  0.69132  0.91056  1.0000
  H   H5978     1.0  0.87695  0.59068  0.81756  1.0000
  H   H5979     1.0  0.82659  0.60640  0.84746  1.0000
  H   H5980     1.0  0.76763  0.54617  0.91349  1.0000
  H   H5981     1.0  0.73800  0.51223  0.88416  1.0000
  N   N333      1.0  0.71566  0.57783  0.88459  1.0000
  C   C4996     1.0  0.71959  0.58092  0.89298  1.0000
  C   C4997     1.0  0.72504  0.56975  0.87940  1.0000
  C   C4998     1.0  0.71320  0.58783  0.87578  1.0000
  C   C4999     1.0  0.70538  0.57346  0.88996  1.0000
  C   C5000     1.0  0.69568  0.58028  0.89523  1.0000
  C   C5001     1.0  0.70468  0.56245  0.89032  1.0000
  H   H5982     1.0  0.72128  0.57366  0.89986  1.0000
  H   H5983     1.0  0.72741  0.58414  0.88929  1.0000
  H   H5984     1.0  0.71338  0.58760  0.89671  1.0000
  H   H5985     1.0  0.72760  0.56218  0.88565  1.0000
  H   H5986     1.0  0.73264  0.57328  0.87542  1.0000
  H   H5987     1.0  0.72281  0.56714  0.87283  1.0000
  H   H5988     1.0  0.70689  0.59472  0.87909  1.0000
  H   H5989     1.0  0.72077  0.59129  0.87145  1.0000
  H   H5990     1.0  0.70994  0.58588  0.86948  1.0000
  H   H5991     1.0  0.69561  0.58870  0.89543  1.0000
  H   H5992     1.0  0.71161  0.55660  0.88661  1.0000
  N   N334      1.0  0.68695  0.51019  0.93785  1.0000
  C   C5002     1.0  0.69379  0.50310  0.94595  1.0000
  C   C5003     1.0  0.69362  0.51810  0.93007  1.0000
  H   H5993     1.0  0.50472  0.71069  0.92533  1.0000
  S   S1340     1.0  0.72360  0.59937  0.97710  1.0000
  C   C5004     1.0  0.53034  0.73731  0.95438  1.0000
  H   H5994     1.0  0.58359  0.72829  0.92970  1.0000
  C   C5005     1.0  0.83559  0.55164  0.82184  1.0000
  H   H5995     1.0  0.69630  0.50816  0.95030  1.0000
  Fe  Fe668     1.0  0.50212  0.73229  0.92401  1.0000
  H   H5996     1.0  0.55472  0.72716  0.94430  1.0000
  H   H5997     1.0  0.61267  0.72504  0.98007  1.0000
  C   C5006     1.0  0.52039  0.69173  0.92253  1.0000
  H   H5998     1.0  0.89756  0.57163  0.78368  1.0000
  H   H5999     1.0  0.68883  0.52456  0.92434  1.0000
  S   S1341     1.0  0.93346  0.56894  0.79391  1.0000
  C   C5007     1.0  0.67673  0.51658  0.94401  1.0000
  H   H6000     1.0  0.91891  0.55694  0.78653  1.0000
  H   H6001     1.0  0.79365  0.55261  0.95354  1.0000
  C   C5008     1.0  0.89826  0.56314  0.78262  1.0000
  C   C5009     1.0  0.73899  0.50333  0.88507  1.0000
  H   H6002     1.0  0.59546  0.72755  0.85699  1.0000
  C   C5010     1.0  0.76850  0.51784  0.88648  1.0000
  C   C5011     1.0  0.70712  0.49206  0.90530  1.0000
  H   H6003     1.0  0.79147  0.52219  0.90719  1.0000
  C   C5012     1.0  0.71795  0.56908  0.95622  1.0000
  H   H6004     1.0  0.74051  0.50449  0.86777  1.0000
  N   N335      1.0  0.86383  0.60121  0.82723  1.0000
  H   H6005     1.0  0.76013  0.54455  0.90426  1.0000
  H   H6006     1.0  0.86588  0.61665  0.82916  1.0000
  C   C5013     1.0  0.83846  0.59664  0.85732  1.0000
  H   H6007     1.0  0.52370  0.68377  0.91966  1.0000
  H   H6008     1.0  0.70112  0.51361  0.92497  1.0000
  C   C5014     1.0  0.78633  0.53071  0.90746  1.0000
  H   H6009     1.0  0.67129  0.51096  0.94972  1.0000
  H   H6010     1.0  0.61360  0.72140  0.87284  1.0000
  C   C5015     1.0  0.84347  0.60463  0.83772  1.0000
  H   H6011     1.0  0.84546  0.56098  0.80788  1.0000
  C   C5016     1.0  0.97772  0.53485  0.78592  1.0000
  H   H6012     1.0  0.51369  0.68309  0.94352  1.0000
  C   C5017     1.0  0.83538  0.60302  0.84753  1.0000
  H   H6013     1.0  0.86653  0.59029  0.84830  1.0000
  H   H6014     1.0  0.85206  0.58720  0.86512  1.0000
  H   H6015     1.0  0.83116  0.57858  0.80802  1.0000
  H   H6016     1.0  0.51117  0.70404  0.93698  1.0000
  H   H6017     1.0  0.84036  0.60932  0.83039  1.0000
  H   H6018     1.0  0.57403  0.72679  0.94296  1.0000
  H   H6019     1.0  0.78506  0.53964  0.88505  1.0000
  H   H6020     1.0  0.87765  0.60948  0.82036  1.0000
  C   C5018     1.0  0.84972  0.59216  0.85746  1.0000
  H   H6021     1.0  0.78307  0.57854  0.97417  1.0000
  H   H6022     1.0  0.54883  0.73072  0.93230  1.0000
  H   H6023     1.0  0.86576  0.58419  0.82643  1.0000
  H   H6024     1.0  0.59726  0.72785  0.88521  1.0000
  C   C5019     1.0  0.91972  0.58907  0.78716  1.0000
  H   H6025     1.0  0.84190  0.54397  0.82177  1.0000
  H   H6026     1.0  0.67816  0.56226  0.90541  1.0000
  C   C5020     1.0  0.79370  0.55874  0.96756  1.0000
  N   N336      1.0  0.56643  0.73052  0.92879  1.0000
  C   C5021     1.0  0.83762  0.56121  0.81399  1.0000
  C   C5022     1.0  0.50514  0.70342  0.93242  1.0000
  H   H6027     1.0  0.69183  0.57669  0.95110  1.0000
  C   C5023     1.0  0.68651  0.49197  0.93362  1.0000
  H   H6028     1.0  0.81354  0.54954  0.85139  1.0000
  S   S1342     1.0  0.72316  0.49906  0.92529  1.0000
  C   C5024     1.0  0.77422  0.52302  0.87635  1.0000
  H   H6029     1.0  0.76355  0.51206  0.88669  1.0000
  C   C5025     1.0  0.74040  0.49895  0.87585  1.0000
  H   H6030     1.0  0.89776  0.55784  0.79113  1.0000
  H   H6031     1.0  0.52590  0.69176  0.92793  1.0000
  H   H6032     1.0  0.79626  0.57617  0.82957  1.0000
  H   H6033     1.0  0.67858  0.60253  0.97183  1.0000
  H   H6034     1.0  0.52669  0.73171  0.95221  1.0000
  H   H6035     1.0  0.67877  0.58155  0.90486  1.0000
  C   C5026     1.0  0.79038  0.54066  0.96880  1.0000
  C   C5027     1.0  0.69491  0.55855  0.89576  1.0000
  H   H6036     1.0  0.83208  0.59502  0.86478  1.0000
  N   N337      1.0  0.73004  0.64827  0.90059  1.0000
  C   C5028     1.0  0.72234  0.64915  0.91153  1.0000
  C   C5029     1.0  0.73853  0.63770  0.90239  1.0000
  C   C5030     1.0  0.73583  0.65764  0.89682  1.0000
  C   C5031     1.0  0.72383  0.64878  0.89216  1.0000
  C   C5032     1.0  0.72819  0.64218  0.88400  1.0000
  C   C5033     1.0  0.71327  0.65618  0.89170  1.0000
  C   C5034     1.0  0.72191  0.64231  0.87655  1.0000
  C   C5035     1.0  0.70706  0.65622  0.88422  1.0000
  C   C5036     1.0  0.71132  0.64922  0.87674  1.0000
  H   H6037     1.0  0.71672  0.64317  0.91399  1.0000
  H   H6038     1.0  0.72692  0.64722  0.91831  1.0000
  H   H6039     1.0  0.71703  0.65761  0.91165  1.0000
  H   H6040     1.0  0.73468  0.63039  0.90418  1.0000
  H   H6041     1.0  0.74226  0.63676  0.90958  1.0000
  H   H6042     1.0  0.74571  0.63711  0.89517  1.0000
  H   H6043     1.0  0.72978  0.66579  0.89567  1.0000
  H   H6044     1.0  0.74064  0.65763  0.90288  1.0000
  H   H6045     1.0  0.74179  0.65721  0.88870  1.0000
  H   H6046     1.0  0.73628  0.63657  0.88342  1.0000
  H   H6047     1.0  0.70947  0.66173  0.89733  1.0000
  H   H6048     1.0  0.69872  0.66146  0.88449  1.0000
  H   H6049     1.0  0.70634  0.64907  0.87117  1.0000
  N   N338      1.0  0.80648  0.56193  0.83838  1.0000
  C   C5037     1.0  0.80055  0.55414  0.83682  1.0000
  C   C5038     1.0  0.80878  0.55827  0.84968  1.0000
  C   C5039     1.0  0.79874  0.57303  0.83771  1.0000
  C   C5040     1.0  0.81715  0.56189  0.83003  1.0000
  C   C5041     1.0  0.82551  0.55193  0.82974  1.0000
  C   C5042     1.0  0.81951  0.57150  0.82193  1.0000
  H   H6050     1.0  0.72438  0.57315  0.95686  1.0000
  C   C5043     1.0  0.82958  0.57109  0.81404  1.0000
  C   C5044     1.0  0.78040  0.53060  0.87603  1.0000
  H   H6051     1.0  0.80532  0.54539  0.83825  1.0000
  H   H6052     1.0  0.79227  0.55426  0.84270  1.0000
  H   H6053     1.0  0.79902  0.55641  0.82827  1.0000
  H   H6054     1.0  0.81372  0.56359  0.85096  1.0000
  H   H6055     1.0  0.80091  0.55875  0.85617  1.0000
  H   H6056     1.0  0.80255  0.57924  0.83915  1.0000
  C   C5045     1.0  0.87098  0.59016  0.82577  1.0000
  H   H6057     1.0  0.59799  0.71909  0.87012  1.0000
  H   H6058     1.0  0.89251  0.57893  0.80359  1.0000
  H   H6059     1.0  0.54122  0.72416  0.96347  1.0000
  H   H6060     1.0  0.67166  0.52284  0.93837  1.0000
  H   H6061     1.0  0.57194  0.71766  0.91943  1.0000
  C   C5046     1.0  0.68378  0.50379  0.93158  1.0000
  C   C5047     1.0  0.85792  0.59388  0.84774  1.0000
  H   H6062     1.0  0.99249  0.59954  0.78632  1.0000
  H   H6063     1.0  0.73739  0.49974  0.90270  1.0000
  H   H6064     1.0  0.67053  0.50808  0.91027  1.0000
  H   H6065     1.0  0.56225  0.72946  0.91396  1.0000
  H   H6066     1.0  0.71654  0.56248  0.96387  1.0000
  H   H6067     1.0  0.51332  0.69033  0.90639  1.0000
  H   H6068     1.0  0.78942  0.53462  0.96483  1.0000
  C   C5048     1.0  0.73868  0.49630  0.89549  1.0000
  C   C5049     1.0  0.70139  0.58686  0.98176  1.0000
  N   N339      1.0  0.59456  0.73690  0.86895  1.0000
  C   C5050     1.0  0.59186  0.73540  0.88117  1.0000
  C   C5051     1.0  0.71670  0.49231  0.91921  1.0000
  C   C5052     1.0  0.67488  0.50361  0.91689  1.0000
  C   C5053     1.0  0.56946  0.72686  0.91813  1.0000
  H   H6069     1.0  0.57668  0.73014  0.91236  1.0000
  H   H6070     1.0  0.68913  0.49727  0.95245  1.0000
  H   H6071     1.0  0.58304  0.73452  0.88479  1.0000
  C   C5054     1.0  0.55645  0.72621  0.93563  1.0000
  Fe  Fe669     1.0  0.73867  0.58548  0.97793  1.0000
  H   H6072     1.0  0.60670  0.71174  0.97380  1.0000
  C   C5055     1.0  0.69127  0.59449  0.98129  1.0000
  S   S1343     1.0  0.76274  0.55941  0.97801  1.0000
  C   C5056     1.0  0.79238  0.55675  0.97923  1.0000
  H   H6073     1.0  0.97915  0.53649  0.79322  1.0000
  Fe  Fe670     1.0  0.74510  0.56137  0.97645  1.0000
  C   C5057     1.0  0.53852  0.73306  0.96079  1.0000
  C   C5058     1.0  0.80350  0.56961  0.97904  1.0000
  H   H6074     1.0  0.81096  0.56260  0.97903  1.0000
  C   C5059     1.0  0.70672  0.58117  0.97322  1.0000
  H   H6075     1.0  0.92730  0.59191  0.78260  1.0000
  C   C5060     1.0  0.60247  0.71377  0.98178  1.0000
  Fe  Fe671     1.0  0.58907  0.80145  0.15596  1.0000
  C   C5061     1.0  0.60199  0.74354  0.99163  1.0000
  C   C5062     1.0  0.62699  0.78582  0.09950  1.0000
  Fe  Fe672     1.0  0.59524  0.79387  0.13358  1.0000
  S   S1344     1.0  0.58744  0.77916  0.14084  1.0000
  S   S1345     1.0  0.60284  0.79794  0.11514  1.0000
  Fe  Fe673     1.0  0.57325  0.79043  0.14969  1.0000
  H   H6076     1.0  0.53964  0.78102  0.10532  1.0000
  H   H6077     1.0  0.62267  0.78470  0.08517  1.0000
  H   H6078     1.0  0.55886  0.77756  0.03089  1.0000
  S   S1346     1.0  0.58054  0.80558  0.14152  1.0000
  S   S1347     1.0  0.60450  0.79085  0.14719  1.0000
  C   C5063     1.0  0.60969  0.75082  0.15251  1.0000
  S   S1348     1.0  0.60630  0.76914  0.05696  1.0000
  C   C5064     1.0  0.55561  0.76878  0.15798  1.0000
  S   S1349     1.0  0.60313  0.75916  0.16230  1.0000
  S   S1350     1.0  0.57983  0.77157  0.05804  1.0000
  N   N340      1.0  0.62682  0.76134  0.08789  1.0000
  Fe  Fe674     1.0  0.59609  0.76638  0.04647  1.0000
  S   S1351     1.0  0.59862  0.77233  0.02780  1.0000
  Fe  Fe675     1.0  0.59020  0.77240  0.06945  1.0000
  S   S1352     1.0  0.58530  0.78647  0.07869  1.0000
  C   C5065     1.0  0.63220  0.76263  0.10486  1.0000
  S   S1353     1.0  0.59121  0.75461  0.07839  1.0000
  H   H6079     1.0  0.55770  0.78429  0.09291  1.0000
  C   C5066     1.0  0.55414  0.78829  0.09992  1.0000
  C   C5067     1.0  0.55549  0.80051  0.11113  1.0000
  S   S1354     1.0  0.51644  0.75263  0.13796  1.0000
  H   H6080     1.0  0.57308  0.81046  0.09739  1.0000
  S   S1355     1.0  0.52956  0.76271  0.10707  1.0000
  H   H6081     1.0  0.58010  0.79935  0.01021  1.0000
  H   H6082     1.0  0.55968  0.81999  0.09888  1.0000
  C   C5068     1.0  0.51352  0.74554  0.09704  1.0000
  H   H6083     1.0  0.49997  0.74674  0.12257  1.0000
  C   C5069     1.0  0.55110  0.77837  0.15088  1.0000
  C   C5070     1.0  0.62277  0.76817  0.07780  1.0000
  H   H6084     1.0  0.56786  0.79595  0.09657  1.0000
  H   H6085     1.0  0.57040  0.74588  0.10363  1.0000
  C   C5071     1.0  0.59130  0.76707  0.02119  1.0000
  C   C5072     1.0  0.58351  0.76062  0.02738  1.0000
  C   C5073     1.0  0.54522  0.79829  0.11816  1.0000
  C   C5074     1.0  0.57887  0.75976  0.01044  1.0000
  C   C5075     1.0  0.58686  0.76600  0.00419  1.0000
  C   C5076     1.0  0.59302  0.76967  0.00957  1.0000
  C   C5077     1.0  0.57145  0.79968  0.11811  1.0000
  H   H6086     1.0  0.61027  0.76452  0.13837  1.0000
  H   H6087     1.0  0.58820  0.76812  0.99527  1.0000
  H   H6088     1.0  0.59902  0.77468  0.00474  1.0000
  H   H6089     1.0  0.57797  0.75953  0.10749  1.0000
  C   C5078     1.0  0.55502  0.76065  0.08036  1.0000
  C   C5079     1.0  0.54618  0.76483  0.08844  1.0000
  C   C5080     1.0  0.54032  0.75758  0.09674  1.0000
  C   C5081     1.0  0.54288  0.75878  0.15553  1.0000
  H   H6090     1.0  0.56850  0.79417  0.12614  1.0000
  H   H6091     1.0  0.55964  0.76624  0.07405  1.0000
  H   H6092     1.0  0.54399  0.77364  0.08829  1.0000
  C   C5082     1.0  0.54873  0.78259  0.99560  1.0000
  H   H6093     1.0  0.57055  0.82072  0.10505  1.0000
  H   H6094     1.0  0.53868  0.74056  0.10323  1.0000
  N   N341      1.0  0.56196  0.80728  0.11353  1.0000
  H   H6095     1.0  0.56128  0.77561  0.12026  1.0000
  C   C5083     1.0  0.55531  0.81421  0.12168  1.0000
  C   C5084     1.0  0.53844  0.76834  0.14835  1.0000
  C   C5085     1.0  0.54239  0.77815  0.14621  1.0000
  H   H6096     1.0  0.53183  0.76823  0.14460  1.0000
  H   H6097     1.0  0.53868  0.78557  0.14094  1.0000
  C   C5086     1.0  0.59912  0.79364  0.10488  1.0000
  C   C5087     1.0  0.59801  0.80133  0.09494  1.0000
  C   C5088     1.0  0.59440  0.79873  0.08676  1.0000
  C   C5089     1.0  0.59213  0.78826  0.08820  1.0000
  C   C5090     1.0  0.59369  0.78029  0.09795  1.0000
  C   C5091     1.0  0.59728  0.78294  0.10626  1.0000
  H   H6098     1.0  0.59958  0.80954  0.09370  1.0000
  H   H6099     1.0  0.59309  0.80499  0.07935  1.0000
  H   H6100     1.0  0.59168  0.77231  0.09923  1.0000
  H   H6101     1.0  0.59843  0.77684  0.11379  1.0000
  C   C5092     1.0  0.62839  0.76800  0.09491  1.0000
  H   H6102     1.0  0.55281  0.80905  0.13008  1.0000
  H   H6103     1.0  0.59630  0.75421  0.11294  1.0000
  H   H6104     1.0  0.62141  0.74826  0.10148  1.0000
  H   H6105     1.0  0.50404  0.76768  0.09664  1.0000
  C   C5093     1.0  0.56645  0.81493  0.10327  1.0000
  C   C5094     1.0  0.55986  0.79514  0.10203  1.0000
  H   H6106     1.0  0.57703  0.80428  0.11953  1.0000
  C   C5095     1.0  0.54401  0.78643  0.10688  1.0000
  Fe  Fe676     1.0  0.60673  0.75120  0.06533  1.0000
  C   C5096     1.0  0.49960  0.75496  0.11672  1.0000
  H   H6107     1.0  0.56024  0.81959  0.12291  1.0000
  H   H6108     1.0  0.61894  0.75248  0.12476  1.0000
  H   H6109     1.0  0.62871  0.77339  0.07238  1.0000
  C   C5097     1.0  0.58055  0.75792  0.13431  1.0000
  H   H6110     1.0  0.58208  0.75859  0.03633  1.0000
  Fe  Fe677     1.0  0.59539  0.77684  0.15504  1.0000
  H   H6111     1.0  0.54765  0.81967  0.11899  1.0000
  H   H6112     1.0  0.55213  0.77362  0.99885  1.0000
  C   C5098     1.0  0.61212  0.75558  0.14118  1.0000
  C   C5099     1.0  0.56159  0.78271  0.02286  1.0000
  H   H6113     1.0  0.61053  0.76001  0.09776  1.0000
  C   C5100     1.0  0.57844  0.74312  0.10594  1.0000
  S   S1356     1.0  0.55578  0.79089  0.14802  1.0000
  C   C5101     1.0  0.58251  0.74326  0.15633  1.0000
  C   C5102     1.0  0.61018  0.81778  0.18091  1.0000
  C   C5103     1.0  0.56966  0.78871  0.02157  1.0000
  H   H6114     1.0  0.62185  0.76288  0.07265  1.0000
  C   C5104     1.0  0.63758  0.75377  0.08424  1.0000
  C   C5105     1.0  0.55766  0.74931  0.08031  1.0000
  S   S1357     1.0  0.58754  0.81614  0.16400  1.0000
  H   H6115     1.0  0.54115  0.78558  0.00168  1.0000
  C   C5106     1.0  0.55131  0.75912  0.16050  1.0000
  C   C5107     1.0  0.55746  0.78283  0.01377  1.0000
  C   C5108     1.0  0.59122  0.83129  0.17367  1.0000
  C   C5109     1.0  0.57503  0.74901  0.13964  1.0000
  C   C5110     1.0  0.58274  0.75105  0.10810  1.0000
  C   C5111     1.0  0.63045  0.78029  0.10934  1.0000
  C   C5112     1.0  0.55986  0.75931  0.12993  1.0000
  H   H6116     1.0  0.57663  0.79419  0.11244  1.0000
  C   C5113     1.0  0.56521  0.76816  0.12537  1.0000
  C   C5114     1.0  0.53959  0.79137  0.11601  1.0000
  H   H6117     1.0  0.53183  0.78966  0.12155  1.0000
  H   H6118     1.0  0.57479  0.74810  0.16084  1.0000
  H   H6119     1.0  0.58862  0.74873  0.15307  1.0000
  S   S1358     1.0  0.53815  0.74629  0.15844  1.0000
  H   H6120     1.0  0.57982  0.77422  0.12364  1.0000
  H   H6121     1.0  0.58399  0.83669  0.17071  1.0000
  Fe  Fe678     1.0  0.58236  0.75343  0.06596  1.0000
  H   H6122     1.0  0.55158  0.77761  0.01532  1.0000
  H   H6123     1.0  0.63081  0.78502  0.11503  1.0000
  H   H6124     1.0  0.54147  0.80161  0.12553  1.0000
  C   C5115     1.0  0.57730  0.75703  0.02203  1.0000
  H   H6125     1.0  0.63566  0.76443  0.11974  1.0000
  Fe  Fe679     1.0  0.52806  0.74902  0.12219  1.0000
  S   S1359     1.0  0.57066  0.75511  0.00425  1.0000
  H   H6126     1.0  0.59312  0.84324  0.18179  1.0000
  H   H6127     1.0  0.61645  0.74994  0.08930  1.0000
  N   N342      1.0  0.55729  0.78934  0.99317  1.0000
  H   H6128     1.0  0.56216  0.76892  0.16179  1.0000
  C   C5116     1.0  0.56128  0.78915  0.00306  1.0000
  S   S1360     1.0  0.58051  0.78705  0.16472  1.0000
  Fe  Fe680     1.0  0.57338  0.75548  0.98597  1.0000
  C   C5117     1.0  0.57358  0.79496  0.01120  1.0000
  H   H6129     1.0  0.50818  0.75658  0.11415  1.0000
  H   H6130     1.0  0.58866  0.75768  0.13562  1.0000
  S   S1361     1.0  0.59804  0.74811  0.05383  1.0000
  C   C5118     1.0  0.56464  0.74984  0.13697  1.0000
  H   H6131     1.0  0.60089  0.74058  0.01321  1.0000
  H   H6132     1.0  0.55455  0.75185  0.16629  1.0000
  C   C5119     1.0  0.61714  0.74876  0.13348  1.0000
  S   S1362     1.0  0.56877  0.74393  0.07041  1.0000
  H   H6133     1.0  0.55173  0.75997  0.12835  1.0000
  H   H6134     1.0  0.63680  0.74900  0.07851  1.0000
  H   H6135     1.0  0.64422  0.75853  0.07979  1.0000
  C   C5120     1.0  0.57562  0.76739  0.12737  1.0000
  H   H6136     1.0  0.57101  0.77632  0.98839  1.0000
  C   C5121     1.0  0.59317  0.74814  0.11087  1.0000
  H   H6137     1.0  0.57116  0.75219  0.02693  1.0000
  H   H6138     1.0  0.61435  0.77362  0.07991  1.0000
  C   C5122     1.0  0.63312  0.76871  0.11199  1.0000
  C   C5123     1.0  0.62585  0.77983  0.09240  1.0000
  H   H6139     1.0  0.62465  0.79484  0.09765  1.0000
  H   H6140     1.0  0.57317  0.78819  0.02855  1.0000
  H   H6141     1.0  0.60808  0.80574  0.17296  1.0000
  C   C5124     1.0  0.56945  0.79524  0.00207  1.0000
  H   H6142     1.0  0.64057  0.74746  0.09127  1.0000
  C   C5125     1.0  0.61847  0.75458  0.09442  1.0000
  H   H6143     1.0  0.63420  0.75365  0.10737  1.0000
  C   C5126     1.0  0.54314  0.74620  0.09683  1.0000
  C   C5127     1.0  0.59522  0.82064  0.17117  1.0000
  C   C5128     1.0  0.60481  0.81392  0.17482  1.0000
  H   H6144     1.0  0.60470  0.75002  0.99395  1.0000
  C   C5129     1.0  0.55163  0.74211  0.08846  1.0000
  H   H6145     1.0  0.51753  0.75180  0.09750  1.0000
  S   S1363     1.0  0.62247  0.74079  0.07065  1.0000
  H   H6146     1.0  0.55980  0.74349  0.14056  1.0000
  H   H6147     1.0  0.59292  0.74653  0.99162  1.0000
  Fe  Fe681     1.0  0.53089  0.74269  0.14584  1.0000
  H   H6148     1.0  0.56000  0.84029  0.17667  1.0000
  C   C5130     1.0  0.50196  0.74594  0.10168  1.0000
  N   N343      1.0  0.58010  0.73939  0.14750  1.0000
  H   H6149     1.0  0.60645  0.74317  0.98294  1.0000
  H   H6150     1.0  0.54528  0.80472  0.99433  1.0000
  H   H6151     1.0  0.54590  0.78293  0.98800  1.0000
  H   H6152     1.0  0.57290  0.80006  0.99417  1.0000
  C   C5131     1.0  0.56686  0.78490  0.98483  1.0000
  C   C5132     1.0  0.55228  0.80093  0.98820  1.0000
  C   C5133     1.0  0.59643  0.83506  0.17994  1.0000
  H   H6153     1.0  0.55847  0.80635  0.98513  1.0000
  S   S1364     1.0  0.54281  0.74029  0.12983  1.0000
  C   C5134     1.0  0.61219  0.73920  0.15607  1.0000
  H   H6154     1.0  0.59694  0.73873  0.13769  1.0000
  H   H6155     1.0  0.55103  0.90572  0.24026  1.0000
  Fe  Fe682     1.0  0.60398  0.93024  0.23316  1.0000
  S   S1365     1.0  0.58817  0.92993  0.24613  1.0000
  S   S1366     1.0  0.61379  0.91321  0.22991  1.0000
  Fe  Fe683     1.0  0.60124  0.95550  0.23057  1.0000
  S   S1367     1.0  0.58477  0.95694  0.24279  1.0000
  S   S1368     1.0  0.60762  0.97153  0.22353  1.0000
  Fe  Fe684     1.0  0.59351  0.94159  0.25285  1.0000
  S   S1369     1.0  0.59193  0.94044  0.27091  1.0000
  Fe  Fe685     1.0  0.58097  0.94527  0.23481  1.0000
  S   S1370     1.0  0.56422  0.94535  0.23215  1.0000
  S   S1371     1.0  0.61018  0.94050  0.24108  1.0000
  S   S1372     1.0  0.59658  0.94518  0.22134  1.0000
  Fe  Fe686     1.0  0.53807  0.90271  0.27487  1.0000
  S   S1373     1.0  0.53830  0.88798  0.28924  1.0000
  S   S1374     1.0  0.53860  0.91942  0.27692  1.0000
  Fe  Fe687     1.0  0.53973  0.88916  0.25855  1.0000
  S   S1375     1.0  0.54095  0.87320  0.27118  1.0000
  S   S1376     1.0  0.53839  0.88866  0.24172  1.0000
  Fe  Fe688     1.0  0.52679  0.88291  0.28173  1.0000
  S   S1377     1.0  0.51145  0.87581  0.29093  1.0000
  Fe  Fe689     1.0  0.55242  0.87953  0.27747  1.0000
  S   S1378     1.0  0.56855  0.86837  0.28208  1.0000
  S   S1379     1.0  0.52505  0.89867  0.26874  1.0000
  S   S1380     1.0  0.55276  0.89450  0.26341  1.0000
  H   H6156     1.0  0.53303  0.84318  0.26516  1.0000
  Fe  Fe690     1.0  0.63714  0.86822  0.28972  1.0000
  S   S1381     1.0  0.62836  0.86528  0.30772  1.0000
  S   S1382     1.0  0.64491  0.85453  0.28017  1.0000
  Fe  Fe691     1.0  0.63436  0.89266  0.28824  1.0000
  S   S1383     1.0  0.62495  0.89187  0.30577  1.0000
  S   S1384     1.0  0.63790  0.90884  0.27751  1.0000
  Fe  Fe692     1.0  0.63819  0.87668  0.30985  1.0000
  S   S1385     1.0  0.64647  0.87300  0.32477  1.0000
  Fe  Fe693     1.0  0.61596  0.88075  0.30207  1.0000
  S   S1386     1.0  0.59700  0.88326  0.30739  1.0000
  S   S1387     1.0  0.64813  0.87808  0.29229  1.0000
  S   S1388     1.0  0.62430  0.88306  0.28405  1.0000
  Fe  Fe694     1.0  0.59905  0.86810  0.20951  1.0000
  S   S1389     1.0  0.59523  0.86084  0.22761  1.0000
  S   S1390     1.0  0.59641  0.88696  0.20453  1.0000
  Fe  Fe695     1.0  0.60613  0.84511  0.20323  1.0000
  S   S1391     1.0  0.60335  0.83655  0.22116  1.0000
  S   S1392     1.0  0.61295  0.83273  0.19162  1.0000
  Fe  Fe696     1.0  0.58767  0.84949  0.22286  1.0000
  S   S1393     1.0  0.57152  0.84442  0.23177  1.0000
  Fe  Fe697     1.0  0.61247  0.84812  0.22533  1.0000
  S   S1394     1.0  0.63181  0.84022  0.24235  1.0000
  S   S1395     1.0  0.58988  0.85773  0.20489  1.0000
  S   S1396     1.0  0.61556  0.85627  0.20627  1.0000
  Fe  Fe698     1.0  0.67879  0.90109  0.35543  1.0000
  S   S1397     1.0  0.69330  0.90963  0.34728  1.0000
  S   S1398     1.0  0.66692  0.90296  0.34390  1.0000
  H   H6157     1.0  0.52647  0.84456  0.28436  1.0000
  C   C5135     1.0  0.81654  0.82841  0.37343  1.0000
  Fe  Fe699     1.0  0.69009  0.91579  0.36286  1.0000
  S   S1399     1.0  0.69055  0.93274  0.36471  1.0000
  Fe  Fe700     1.0  0.70353  0.89429  0.35607  1.0000
  S   S1400     1.0  0.72054  0.88698  0.34698  1.0000
  C   C5136     1.0  0.58601  0.98670  0.27020  1.0000
  S   S1401     1.0  0.68942  0.88535  0.36347  1.0000
  C   C5137     1.0  0.60623  0.87986  0.33232  1.0000
  S   S1402     1.0  0.77970  0.86048  0.36659  1.0000
  H   H6158     1.0  0.56570  0.84622  0.26531  1.0000
  H   H6159     1.0  0.81954  0.81592  0.36399  1.0000
  S   S1403     1.0  0.78421  0.89007  0.36336  1.0000
  H   H6160     1.0  0.61921  0.89286  0.34321  1.0000
  H   H6161     1.0  0.56852  0.89079  0.23777  1.0000
  H   H6162     1.0  0.57421  0.92880  0.18425  1.0000
  C   C5138     1.0  0.53882  0.84396  0.26960  1.0000
  H   H6163     1.0  0.86933  0.76351  0.33167  1.0000
  C   C5139     1.0  0.80433  0.97813  0.38028  1.0000
  S   S1404     1.0  0.87546  0.78606  0.37061  1.0000
  C   C5140     1.0  0.57100  0.91108  0.23383  1.0000
  H   H6164     1.0  0.65009  0.91405  0.22462  1.0000
  Fe  Fe701     1.0  0.74155  0.95398  0.36618  1.0000
  S   S1405     1.0  0.75904  0.95639  0.36381  1.0000
  S   S1406     1.0  0.73648  0.94810  0.35355  1.0000
  H   H6165     1.0  0.80608  0.94709  0.37453  1.0000
  H   H6166     1.0  0.60079  0.92677  0.30409  1.0000
  H   H6167     1.0  0.83748  0.83160  0.35166  1.0000
  H   H6168     1.0  0.87705  0.74948  0.36380  1.0000
  H   H6169     1.0  0.57876  0.89257  0.22502  1.0000
  H   H6170     1.0  0.61518  0.89764  0.25486  1.0000
  H   H6171     1.0  0.63500  0.91836  0.22700  1.0000
  Fe  Fe702     1.0  0.78181  0.87343  0.37423  1.0000
  H   H6172     1.0  0.85497  0.83568  0.35272  1.0000
  C   C5141     1.0  0.56713  0.83182  0.19092  1.0000
  C   C5142     1.0  0.83350  0.81386  0.37137  1.0000
  H   H6173     1.0  0.56450  0.82698  0.22320  1.0000
  H   H6174     1.0  0.64014  0.88073  0.22890  1.0000
  H   H6175     1.0  0.59034  0.89736  0.32427  1.0000
  H   H6176     1.0  0.58989  0.89232  0.34477  1.0000
  C   C5143     1.0  0.59845  0.89082  0.34628  1.0000
  H   H6177     1.0  0.59039  0.81862  0.21481  1.0000
  Fe  Fe703     1.0  0.75859  0.94540  0.38078  1.0000
  H   H6178     1.0  0.60957  0.90254  0.26750  1.0000
  H   H6179     1.0  0.83856  0.86953  0.35325  1.0000
  N   N344      1.0  0.57551  0.82302  0.20805  1.0000
  H   H6180     1.0  0.57118  0.97678  0.26550  1.0000
  C   C5144     1.0  0.83799  0.86137  0.35291  1.0000
  H   H6181     1.0  0.55763  0.86039  0.19937  1.0000
  C   C5145     1.0  0.81539  0.87261  0.36330  1.0000
  C   C5146     1.0  0.82286  0.81908  0.36914  1.0000
  H   H6182     1.0  0.61994  0.87849  0.34462  1.0000
  H   H6183     1.0  0.61637  0.92294  0.31356  1.0000
  H   H6184     1.0  0.56832  0.93924  0.19927  1.0000
  C   C5147     1.0  0.70358  0.93628  0.36249  1.0000
  C   C5148     1.0  0.70385  0.94616  0.36508  1.0000
  C   C5149     1.0  0.71399  0.94963  0.36273  1.0000
  C   C5150     1.0  0.72391  0.94330  0.35765  1.0000
  C   C5151     1.0  0.72365  0.93338  0.35512  1.0000
  C   C5152     1.0  0.71355  0.92977  0.35771  1.0000
  H   H6185     1.0  0.79409  0.94119  0.37704  1.0000
  H   H6186     1.0  0.71409  0.95736  0.36457  1.0000
  H   H6187     1.0  0.73130  0.92849  0.35112  1.0000
  H   H6188     1.0  0.71346  0.92211  0.35572  1.0000
  C   C5153     1.0  0.72863  0.87795  0.35629  1.0000
  C   C5154     1.0  0.73983  0.87840  0.35495  1.0000
  C   C5155     1.0  0.74625  0.87126  0.36249  1.0000
  H   H6189     1.0  0.80716  0.87856  0.36462  1.0000
  H   H6190     1.0  0.53398  0.86477  0.29480  1.0000
  C   C5156     1.0  0.72395  0.87017  0.36502  1.0000
  H   H6191     1.0  0.74350  0.88441  0.34820  1.0000
  H   H6192     1.0  0.75481  0.87181  0.36158  1.0000
  C   C5157     1.0  0.78177  0.89979  0.38082  1.0000
  H   H6193     1.0  0.67105  0.88939  0.30942  1.0000
  H   H6194     1.0  0.59764  0.88029  0.33151  1.0000
  H   H6195     1.0  0.92607  0.74485  0.36210  1.0000
  C   C5158     1.0  0.56583  0.84319  0.20370  1.0000
  C   C5159     1.0  0.56761  0.82005  0.21868  1.0000
  H   H6196     1.0  0.58013  0.91026  0.23032  1.0000
  C   C5160     1.0  0.82768  0.85922  0.35268  1.0000
  H   H6197     1.0  0.65925  0.90760  0.24168  1.0000
  H   H6198     1.0  0.54657  0.82983  0.30400  1.0000
  H   H6199     1.0  0.76886  0.92920  0.36540  1.0000
  H   H6200     1.0  0.55966  0.91712  0.28616  1.0000
  H   H6201     1.0  0.59879  0.89802  0.34937  1.0000
  C   C5161     1.0  0.65206  0.88152  0.32998  1.0000
  C   C5162     1.0  0.65046  0.89307  0.32613  1.0000
  C   C5163     1.0  0.65503  0.89943  0.33052  1.0000
  C   C5164     1.0  0.66132  0.89438  0.33879  1.0000
  C   C5165     1.0  0.66290  0.88283  0.34265  1.0000
  C   C5166     1.0  0.65826  0.87648  0.33831  1.0000
  H   H6202     1.0  0.64573  0.89711  0.31974  1.0000
  H   H6203     1.0  0.65371  0.90834  0.32744  1.0000
  H   H6204     1.0  0.66759  0.87878  0.34905  1.0000
  H   H6205     1.0  0.65955  0.86757  0.34139  1.0000
  C   C5167     1.0  0.64026  0.85122  0.26987  1.0000
  C   C5168     1.0  0.63014  0.85670  0.26650  1.0000
  C   C5169     1.0  0.62724  0.85360  0.25800  1.0000
  C   C5170     1.0  0.63444  0.84498  0.25298  1.0000
  C   C5171     1.0  0.64443  0.83961  0.25648  1.0000
  C   C5172     1.0  0.64731  0.84271  0.26479  1.0000
  H   H6206     1.0  0.62460  0.86325  0.27043  1.0000
  H   H6207     1.0  0.61945  0.85779  0.25547  1.0000
  H   H6208     1.0  0.65003  0.83294  0.25275  1.0000
  H   H6209     1.0  0.65510  0.83841  0.26733  1.0000
  C   C5173     1.0  0.54757  0.87642  0.23880  1.0000
  C   C5174     1.0  0.55684  0.87207  0.24371  1.0000
  C   C5175     1.0  0.56429  0.86229  0.24140  1.0000
  C   C5176     1.0  0.56218  0.85661  0.23458  1.0000
  C   C5177     1.0  0.55280  0.86083  0.22982  1.0000
  C   C5178     1.0  0.54557  0.87087  0.23178  1.0000
  H   H6210     1.0  0.55835  0.87628  0.24922  1.0000
  H   H6211     1.0  0.57156  0.85902  0.24507  1.0000
  H   H6212     1.0  0.55121  0.85644  0.22449  1.0000
  H   H6213     1.0  0.53836  0.87422  0.22804  1.0000
  C   C5179     1.0  0.57618  0.87219  0.28966  1.0000
  C   C5180     1.0  0.57129  0.88046  0.29579  1.0000
  C   C5181     1.0  0.57774  0.88371  0.30122  1.0000
  C   C5182     1.0  0.58914  0.87874  0.30059  1.0000
  C   C5183     1.0  0.59396  0.87020  0.29476  1.0000
  C   C5184     1.0  0.58747  0.86689  0.28941  1.0000
  H   H6214     1.0  0.56255  0.88443  0.29630  1.0000
  H   H6215     1.0  0.57389  0.89024  0.30580  1.0000
  H   H6216     1.0  0.60268  0.86615  0.29438  1.0000
  H   H6217     1.0  0.59131  0.86033  0.28486  1.0000
  H   H6218     1.0  0.62375  0.91622  0.24556  1.0000
  S   S1407     1.0  0.75574  0.98731  0.36745  1.0000
  C   C5185     1.0  0.51199  0.86541  0.27441  1.0000
  C   C5186     1.0  0.50947  0.88550  0.24294  1.0000
  H   H6219     1.0  0.52055  0.86633  0.27124  1.0000
  H   H6220     1.0  0.51251  0.85635  0.26230  1.0000
  C   C5187     1.0  0.60464  0.93262  0.27417  1.0000
  C   C5188     1.0  0.60489  0.92252  0.28189  1.0000
  C   C5189     1.0  0.61514  0.91531  0.28319  1.0000
  C   C5190     1.0  0.62516  0.91843  0.27714  1.0000
  C   C5191     1.0  0.62492  0.92888  0.26998  1.0000
  C   C5192     1.0  0.61465  0.93589  0.26830  1.0000
  H   H6221     1.0  0.59716  0.91997  0.28646  1.0000
  H   H6222     1.0  0.61522  0.90724  0.28865  1.0000
  H   H6223     1.0  0.63266  0.93134  0.26533  1.0000
  H   H6224     1.0  0.61449  0.94372  0.26235  1.0000
  C   C5193     1.0  0.60893  0.90609  0.22271  1.0000
  C   C5194     1.0  0.60135  0.91170  0.21589  1.0000
  C   C5195     1.0  0.59781  0.90581  0.21013  1.0000
  C   C5196     1.0  0.60145  0.89421  0.21147  1.0000
  C   C5197     1.0  0.60902  0.88860  0.21831  1.0000
  C   C5198     1.0  0.61287  0.89453  0.22377  1.0000
  H   H6225     1.0  0.59838  0.92062  0.21483  1.0000
  H   H6226     1.0  0.59228  0.91031  0.20458  1.0000
  H   H6227     1.0  0.61206  0.87974  0.21916  1.0000
  H   H6228     1.0  0.61885  0.89012  0.22890  1.0000
  C   C5199     1.0  0.55630  0.93911  0.24467  1.0000
  C   C5200     1.0  0.55841  0.93906  0.25481  1.0000
  C   C5201     1.0  0.55253  0.93346  0.26472  1.0000
  C   C5202     1.0  0.54507  0.92729  0.26450  1.0000
  C   C5203     1.0  0.54289  0.92740  0.25435  1.0000
  C   C5204     1.0  0.54820  0.93366  0.24450  1.0000
  H   H6229     1.0  0.56447  0.94345  0.25504  1.0000
  H   H6230     1.0  0.55398  0.93372  0.27254  1.0000
  H   H6231     1.0  0.53690  0.92290  0.25416  1.0000
  H   H6232     1.0  0.54620  0.93417  0.23672  1.0000
  C   C5205     1.0  0.79263  0.95828  0.36022  1.0000
  H   H6233     1.0  0.54911  0.90625  0.22678  1.0000
  C   C5206     1.0  0.61803  0.97014  0.24039  1.0000
  C   C5207     1.0  0.61334  0.97699  0.23154  1.0000
  H   H6234     1.0  0.57333  0.80974  0.20193  1.0000
  N   N345      1.0  0.79093  0.95914  0.37189  1.0000
  H   H6235     1.0  0.57197  0.89838  0.20786  1.0000
  H   H6236     1.0  0.70343  0.87365  0.34553  1.0000
  H   H6237     1.0  0.81547  0.86576  0.37082  1.0000
  H   H6238     1.0  0.71335  0.87882  0.31481  1.0000
  C   C5208     1.0  0.56686  0.92468  0.21234  1.0000
  H   H6239     1.0  0.79957  0.87115  0.35432  1.0000
  N   N346      1.0  0.69338  0.94695  0.33107  1.0000
  C   C5209     1.0  0.69300  0.95514  0.33752  1.0000
  C   C5210     1.0  0.70338  0.93789  0.33243  1.0000
  C   C5211     1.0  0.69470  0.95281  0.31924  1.0000
  C   C5212     1.0  0.68333  0.94204  0.33463  1.0000
  C   C5213     1.0  0.67505  0.94364  0.34439  1.0000
  C   C5214     1.0  0.68197  0.93485  0.32864  1.0000
  C   C5215     1.0  0.66601  0.93836  0.34785  1.0000
  C   C5216     1.0  0.67283  0.92971  0.33212  1.0000
  C   C5217     1.0  0.66489  0.93143  0.34173  1.0000
  H   H6240     1.0  0.69291  0.95118  0.34638  1.0000
  H   H6241     1.0  0.70053  0.95888  0.33452  1.0000
  H   H6242     1.0  0.68551  0.96207  0.33703  1.0000
  H   H6243     1.0  0.70226  0.93283  0.34105  1.0000
  H   H6244     1.0  0.71110  0.94114  0.33074  1.0000
  H   H6245     1.0  0.70498  0.93206  0.32687  1.0000
  H   H6246     1.0  0.68698  0.95917  0.31778  1.0000
  H   H6247     1.0  0.70182  0.95713  0.31655  1.0000
  H   H6248     1.0  0.69649  0.94708  0.31356  1.0000
  H   H6249     1.0  0.67553  0.94862  0.34974  1.0000
  H   H6250     1.0  0.68811  0.93287  0.32139  1.0000
  H   H6251     1.0  0.65999  0.93943  0.35550  1.0000
  H   H6252     1.0  0.67203  0.92405  0.32758  1.0000
  H   H6253     1.0  0.65801  0.92715  0.34456  1.0000
  C   C5218     1.0  0.83761  0.83996  0.35194  1.0000
  Fe  Fe704     1.0  0.76552  0.85800  0.38112  1.0000
  S   S1408     1.0  0.94028  0.76624  0.37314  1.0000
  C   C5219     1.0  0.77995  0.90124  0.37020  1.0000
  H   H6254     1.0  0.89768  0.75722  0.34221  1.0000
  C   C5220     1.0  0.54633  0.83824  0.30507  1.0000
  C   C5221     1.0  0.53516  0.84476  0.28072  1.0000
  H   H6255     1.0  0.55965  0.84774  0.28464  1.0000
  C   C5222     1.0  0.62192  0.98621  0.24438  1.0000
  C   C5223     1.0  0.61307  0.98846  0.22907  1.0000
  H   H6256     1.0  0.60853  0.87183  0.33815  1.0000
  C   C5224     1.0  0.77246  0.92103  0.36974  1.0000
  H   H6257     1.0  0.85545  0.85473  0.35330  1.0000
  H   H6258     1.0  0.82042  0.84574  0.35186  1.0000
  H   H6259     1.0  0.82571  0.88119  0.34275  1.0000
  C   C5225     1.0  0.84772  0.85297  0.35290  1.0000
  H   H6260     1.0  0.78716  0.96522  0.35552  1.0000
  H   H6261     1.0  0.54833  0.85962  0.29589  1.0000
  N   N347      1.0  0.63883  0.83555  0.21479  1.0000
  C   C5226     1.0  0.64493  0.84387  0.20683  1.0000
  C   C5227     1.0  0.64686  0.82733  0.22107  1.0000
  C   C5228     1.0  0.63512  0.82972  0.20835  1.0000
  C   C5229     1.0  0.62917  0.84052  0.22269  1.0000
  C   C5230     1.0  0.62185  0.83304  0.23124  1.0000
  C   C5231     1.0  0.62704  0.85269  0.22375  1.0000
  C   C5232     1.0  0.61273  0.83747  0.24034  1.0000
  C   C5233     1.0  0.61792  0.85701  0.23291  1.0000
  C   C5234     1.0  0.61092  0.84933  0.24129  1.0000
  H   H6262     1.0  0.64870  0.84790  0.21114  1.0000
  H   H6263     1.0  0.65194  0.83997  0.20077  1.0000
  H   H6264     1.0  0.63935  0.85043  0.20192  1.0000
  H   H6265     1.0  0.64983  0.83135  0.22610  1.0000
  H   H6266     1.0  0.65434  0.82335  0.21550  1.0000
  H   H6267     1.0  0.64303  0.82056  0.22700  1.0000
  H   H6268     1.0  0.64225  0.82594  0.20230  1.0000
  H   H6269     1.0  0.63107  0.82285  0.21367  1.0000
  H   H6270     1.0  0.62903  0.83548  0.20349  1.0000
  H   H6271     1.0  0.62338  0.82429  0.23134  1.0000
  H   H6272     1.0  0.63216  0.85834  0.21838  1.0000
  H   H6273     1.0  0.60792  0.83195  0.24656  1.0000
  H   H6274     1.0  0.61685  0.86538  0.23394  1.0000
  H   H6275     1.0  0.60480  0.85225  0.24817  1.0000
  C   C5235     1.0  0.74158  0.86338  0.37113  1.0000
  H   H6276     1.0  0.89784  0.76060  0.37086  1.0000
  C   C5236     1.0  0.87163  0.75633  0.33803  1.0000
  H   H6277     1.0  0.72698  0.85650  0.37876  1.0000
  H   H6278     1.0  0.60024  0.96171  0.26372  1.0000
  H   H6279     1.0  0.91685  0.75267  0.37175  1.0000
  C   C5237     1.0  0.61238  0.90774  0.32444  1.0000
  H   H6280     1.0  0.89483  0.74809  0.36980  1.0000
  H   H6281     1.0  0.52599  0.83754  0.30331  1.0000
  H   H6282     1.0  0.71534  0.86971  0.36607  1.0000
  H   H6283     1.0  0.77369  0.96779  0.37253  1.0000
  H   H6284     1.0  0.51358  0.88319  0.23481  1.0000
  H   H6285     1.0  0.60589  0.97239  0.26514  1.0000
  S   S1409     1.0  0.80337  0.83474  0.37007  1.0000
  C   C5238     1.0  0.87323  0.74563  0.33628  1.0000
  H   H6286     1.0  0.77380  0.91304  0.35650  1.0000
  C   C5239     1.0  0.81870  0.87730  0.34334  1.0000
  H   H6287     1.0  0.52113  0.85245  0.29929  1.0000
  H   H6288     1.0  0.57164  0.81273  0.22436  1.0000
  H   H6289     1.0  0.56970  0.82420  0.18792  1.0000
  C   C5240     1.0  0.58007  0.81299  0.20316  1.0000
  H   H6290     1.0  0.59949  0.88325  0.35302  1.0000
  H   H6291     1.0  0.56719  0.84442  0.21118  1.0000
  N   N348      1.0  0.53893  0.84697  0.29844  1.0000
  C   C5241     1.0  0.59468  0.91221  0.31383  1.0000
  H   H6292     1.0  0.56874  0.98610  0.27925  1.0000
  C   C5242     1.0  0.77525  0.91187  0.36470  1.0000
  H   H6293     1.0  0.64419  0.87459  0.26222  1.0000
  C   C5243     1.0  0.54250  0.84602  0.28669  1.0000
  N   N349      1.0  0.81739  0.86814  0.35324  1.0000
  C   C5244     1.0  0.61831  0.88678  0.33894  1.0000
  H   H6294     1.0  0.56981  0.90637  0.24259  1.0000
  H   H6295     1.0  0.56740  0.91990  0.23437  1.0000
  H   H6296     1.0  0.54980  0.91858  0.23025  1.0000
  C   C5245     1.0  0.50562  0.86949  0.28378  1.0000
  C   C5246     1.0  0.56153  0.84108  0.18430  1.0000
  H   H6297     1.0  0.57586  0.90839  0.18885  1.0000
  H   H6298     1.0  0.58793  0.91384  0.30956  1.0000
  N   N350      1.0  0.58824  0.97720  0.26484  1.0000
  S   S1410     1.0  0.96708  0.74238  0.36842  1.0000
  H   H6299     1.0  0.84501  0.75180  0.36802  1.0000
  S   S1411     1.0  0.67457  0.90884  0.37041  1.0000
  C   C5247     1.0  0.92617  0.76658  0.37973  1.0000
  C   C5248     1.0  0.82781  0.84825  0.35205  1.0000
  H   H6300     1.0  0.49881  0.87471  0.23619  1.0000
  C   C5249     1.0  0.79043  0.97969  0.36621  1.0000
  H   H6301     1.0  0.55508  0.83945  0.30269  1.0000
  H   H6302     1.0  0.79050  0.95055  0.35971  1.0000
  C   C5250     1.0  0.56026  0.85240  0.19701  1.0000
  H   H6303     1.0  0.53740  0.85897  0.30808  1.0000
  H   H6304     1.0  0.51288  0.87856  0.24937  1.0000
  S   S1412     1.0  0.84946  0.78347  0.37374  1.0000
  C   C5251     1.0  0.87600  0.74845  0.35613  1.0000
  C   C5252     1.0  0.55365  0.84645  0.28080  1.0000
  N   N351      1.0  0.90969  0.75236  0.35842  1.0000
  H   H6305     1.0  0.61945  0.90651  0.32809  1.0000
  H   H6306     1.0  0.59748  0.98548  0.24949  1.0000
  H   H6307     1.0  0.57643  0.92530  0.28057  1.0000
  H   H6308     1.0  0.56496  0.89098  0.22533  1.0000
  C   C5253     1.0  0.60749  0.90221  0.25973  1.0000
  H   H6309     1.0  0.59502  0.88018  0.26950  1.0000
  H   H6310     1.0  0.58230  0.83216  0.21564  1.0000
  N   N352      1.0  0.56565  0.90714  0.22709  1.0000
  H   H6311     1.0  0.56413  0.92969  0.21853  1.0000
  C   C5254     1.0  0.57681  0.91767  0.27819  1.0000
  C   C5255     1.0  0.56736  0.91314  0.28130  1.0000
  H   H6312     1.0  0.58941  0.89168  0.25246  1.0000
  H   H6313     1.0  0.81099  0.88408  0.34348  1.0000
  C   C5256     1.0  0.55338  0.90953  0.23131  1.0000
  H   H6314     1.0  0.57699  0.96778  0.27714  1.0000
  C   C5257     1.0  0.89817  0.75557  0.36491  1.0000
  C   C5258     1.0  0.57100  0.90728  0.20647  1.0000
  Fe  Fe705     1.0  0.86685  0.77503  0.36638  1.0000
  H   H6315     1.0  0.80563  0.85751  0.36108  1.0000
  C   C5259     1.0  0.60537  0.89992  0.32753  1.0000
  C   C5260     1.0  0.60122  0.88527  0.26838  1.0000
  C   C5261     1.0  0.58672  0.91254  0.27190  1.0000
  H   H6316     1.0  0.60209  0.88530  0.27677  1.0000
  H   H6317     1.0  0.59362  0.91663  0.26962  1.0000
  C   C5262     1.0  0.80720  0.86432  0.35372  1.0000
  H   H6318     1.0  0.68317  0.89358  0.31861  1.0000
  C   C5263     1.0  0.58745  0.90260  0.26858  1.0000
  C   C5264     1.0  0.56770  0.90361  0.27792  1.0000
  H   H6319     1.0  0.60937  0.88078  0.26412  1.0000
  H   H6320     1.0  0.56023  0.90025  0.28028  1.0000
  H   H6321     1.0  0.68960  0.89354  0.33379  1.0000
  H   H6322     1.0  0.71394  0.86545  0.32412  1.0000
  H   H6323     1.0  0.71761  0.87631  0.32771  1.0000
  H   H6324     1.0  0.83833  0.80679  0.36786  1.0000
  C   C5265     1.0  0.56807  0.91294  0.21531  1.0000
  C   C5266     1.0  0.56910  0.93029  0.20127  1.0000
  H   H6325     1.0  0.59045  0.82953  0.20262  1.0000
  N   N353      1.0  0.59788  0.89679  0.26213  1.0000
  C   C5267     1.0  0.59595  0.89636  0.25140  1.0000
  C   C5268     1.0  0.57757  0.89834  0.27170  1.0000
  H   H6326     1.0  0.60368  0.89218  0.24629  1.0000
  C   C5269     1.0  0.71168  0.87455  0.32371  1.0000
  H   H6327     1.0  0.59330  0.90489  0.24650  1.0000
  H   H6328     1.0  0.57742  0.89081  0.26950  1.0000
  H   H6329     1.0  0.58483  0.80603  0.20856  1.0000
  H   H6330     1.0  0.65177  0.92112  0.24427  1.0000
  C   C5270     1.0  0.56969  0.89486  0.22882  1.0000
  C   C5271     1.0  0.57235  0.92444  0.19282  1.0000
  H   H6331     1.0  0.62624  0.96930  0.25334  1.0000
  H   H6332     1.0  0.58100  0.96407  0.26403  1.0000
  C   C5272     1.0  0.64246  0.87641  0.24560  1.0000
  H   H6333     1.0  0.65030  0.90920  0.25491  1.0000
  C   C5273     1.0  0.57322  0.91297  0.19542  1.0000
  H   H6334     1.0  0.63081  0.92516  0.24837  1.0000
  H   H6335     1.0  0.60572  0.91079  0.25466  1.0000
  C   C5274     1.0  0.67722  0.88269  0.31301  1.0000
  H   H6336     1.0  0.64283  0.92653  0.22957  1.0000
  C   C5275     1.0  0.60192  0.91948  0.31073  1.0000
  C   C5276     1.0  0.57889  0.97128  0.26807  1.0000
  H   H6337     1.0  0.59234  0.97440  0.24820  1.0000
  H   H6338     1.0  0.69985  0.89547  0.32087  1.0000
  H   H6339     1.0  0.87210  0.74461  0.32859  1.0000
  C   C5277     1.0  0.84750  0.84226  0.35251  1.0000
  C   C5278     1.0  0.65116  0.91229  0.24581  1.0000
  C   C5279     1.0  0.64247  0.91775  0.23023  1.0000
  H   H6340     1.0  0.80781  0.86133  0.34617  1.0000
  H   H6341     1.0  0.70406  0.89149  0.33379  1.0000
  C   C5280     1.0  0.61069  0.91730  0.31608  1.0000
  H   H6342     1.0  0.67179  0.87007  0.30895  1.0000
  N   N354      1.0  0.64165  0.91122  0.24183  1.0000
  C   C5281     1.0  0.63107  0.91634  0.24860  1.0000
  H   H6343     1.0  0.62988  0.91186  0.25741  1.0000
  H   H6344     1.0  0.61839  0.96129  0.24232  1.0000
  C   C5282     1.0  0.59624  0.90268  0.32221  1.0000
  N   N355      1.0  0.69986  0.87834  0.32919  1.0000
  C   C5283     1.0  0.69823  0.89025  0.32937  1.0000
  H   H6345     1.0  0.62513  0.88646  0.33138  1.0000
  C   C5284     1.0  0.55721  0.84564  0.26969  1.0000
  H   H6346     1.0  0.82033  0.87424  0.33560  1.0000
  H   H6347     1.0  0.55259  0.84386  0.25546  1.0000
  H   H6348     1.0  0.54348  0.83825  0.31407  1.0000
  H   H6349     1.0  0.69848  0.85828  0.32628  1.0000
  C   C5285     1.0  0.53975  0.85802  0.29934  1.0000
  C   C5286     1.0  0.52721  0.84575  0.30354  1.0000
  S   S1413     1.0  0.70160  0.90118  0.37086  1.0000
  C   C5287     1.0  0.69227  0.87630  0.32337  1.0000
  C   C5288     1.0  0.62247  0.97471  0.24663  1.0000
  H   H6350     1.0  0.52478  0.84648  0.31237  1.0000
  C   C5289     1.0  0.91714  0.74703  0.36641  1.0000
  H   H6351     1.0  0.91976  0.78015  0.36732  1.0000
  C   C5290     1.0  0.68432  0.88498  0.31833  1.0000
  C   C5291     1.0  0.64176  0.89934  0.24301  1.0000
  H   H6352     1.0  0.59701  0.96552  0.27687  1.0000
  H   H6353     1.0  0.63914  0.90042  0.22648  1.0000
  H   H6354     1.0  0.69997  0.86294  0.34158  1.0000
  C   C5292     1.0  0.56961  0.83264  0.20079  1.0000
  C   C5293     1.0  0.80008  0.98846  0.37411  1.0000
  C   C5294     1.0  0.54982  0.84437  0.26411  1.0000
  S   S1414     1.0  0.87154  0.77146  0.34936  1.0000
  H   H6355     1.0  0.64299  0.86761  0.24652  1.0000
  C   C5295     1.0  0.69800  0.87208  0.34086  1.0000
  C   C5296     1.0  0.64054  0.89513  0.23434  1.0000
  C   C5297     1.0  0.64273  0.89165  0.25321  1.0000
  H   H6356     1.0  0.64313  0.89429  0.26039  1.0000
  C   C5298     1.0  0.69265  0.86530  0.32268  1.0000
  H   H6357     1.0  0.68912  0.87450  0.34519  1.0000
  C   C5299     1.0  0.87295  0.75780  0.34796  1.0000
  N   N356      1.0  0.60714  0.88953  0.33609  1.0000
  H   H6358     1.0  0.56018  0.81804  0.21730  1.0000
  C   C5300     1.0  0.50740  0.85980  0.26931  1.0000
  C   C5301     1.0  0.64320  0.88035  0.25441  1.0000
  C   C5302     1.0  0.68537  0.86311  0.31750  1.0000
  C   C5303     1.0  0.67764  0.87179  0.31271  1.0000
  C   C5304     1.0  0.59827  0.96889  0.26777  1.0000
  C   C5305     1.0  0.58504  0.82594  0.21038  1.0000
  H   H6359     1.0  0.82177  0.87724  0.36287  1.0000
  H   H6360     1.0  0.61185  0.87922  0.32411  1.0000
  C   C5306     1.0  0.64097  0.88380  0.23565  1.0000
  H   H6361     1.0  0.58598  0.81482  0.19504  1.0000
  H   H6362     1.0  0.68560  0.85463  0.31729  1.0000
  C   C5307     1.0  0.59031  0.98129  0.25265  1.0000
  S   S1415     1.0  0.73341  0.96907  0.37353  1.0000
  C   C5308     1.0  0.91344  0.76258  0.35150  1.0000
  H   H6363     1.0  0.91391  0.76807  0.35668  1.0000
  C   C5309     1.0  0.60598  0.82833  0.18364  1.0000
  H   H6364     1.0  0.71036  0.92257  0.38174  1.0000
  H   H6365     1.0  0.51232  0.89306  0.24277  1.0000
  H   H6366     1.0  0.50611  0.89090  0.26138  1.0000
  C   C5310     1.0  0.91763  0.77412  0.37487  1.0000
  H   H6367     1.0  0.90764  0.76768  0.34601  1.0000
  H   H6368     1.0  0.92191  0.76049  0.34617  1.0000
  C   C5311     1.0  0.84921  0.74331  0.37093  1.0000
  H   H6369     1.0  0.61760  0.81250  0.18361  1.0000
  C   C5312     1.0  0.79460  0.96900  0.37237  1.0000
  S   S1416     1.0  0.74903  0.85465  0.38113  1.0000
  S   S1417     1.0  0.85121  0.81134  0.38097  1.0000
  C   C5313     1.0  0.90972  0.74508  0.35120  1.0000
  H   H6370     1.0  0.89978  0.77927  0.37571  1.0000
  C   C5314     1.0  0.55815  0.85136  0.18730  1.0000
  H   H6371     1.0  0.69617  0.95124  0.36878  1.0000
  H   H6372     1.0  0.80147  0.95822  0.35577  1.0000
  H   H6373     1.0  0.58291  0.98741  0.25004  1.0000
  C   C5315     1.0  0.90293  0.74894  0.34322  1.0000
  H   H6374     1.0  0.49754  0.89533  0.22782  1.0000
  H   H6375     1.0  0.89223  0.76072  0.35958  1.0000
  Fe  Fe706     1.0  0.95198  0.75050  0.37973  1.0000
  S   S1418     1.0  0.99439  0.73892  0.38132  1.0000
  Fe  Fe707     1.0  0.75094  0.97042  0.37286  1.0000
  H   H6376     1.0  0.89708  0.74519  0.33070  1.0000
  C   C5316     1.0  0.90251  0.74211  0.33658  1.0000
  H   H6377     1.0  0.55392  0.85853  0.18207  1.0000
  H   H6378     1.0  0.78455  0.98086  0.36108  1.0000
  C   C5317     1.0  0.73050  0.86274  0.37223  1.0000
  H   H6379     1.0  0.74790  0.91306  0.37533  1.0000
  H   H6380     1.0  0.77578  0.95302  0.37711  1.0000
  C   C5318     1.0  0.77887  0.96037  0.37704  1.0000
  C   C5319     1.0  0.90635  0.77360  0.37958  1.0000
  Fe  Fe708     1.0  0.68646  0.89379  0.37767  1.0000
  H   H6381     1.0  0.72832  0.92275  0.37747  1.0000
  C   C5320     1.0  0.83792  0.81792  0.37792  1.0000
  Fe  Fe709     1.0  0.79070  0.84841  0.37764  1.0000
  Fe  Fe710     1.0  0.85811  0.79339  0.37936  1.0000
  C   C5321     1.0  0.79688  0.94844  0.37784  1.0000
  C   C5322     1.0  0.85224  0.74021  0.38121  1.0000
  C   C5323     1.0  0.82094  0.83252  0.37997  1.0000
  C   C5324     1.0  0.80169  0.96849  0.37944  1.0000
  C   C5325     1.0  0.77475  0.91967  0.38013  1.0000
  S   S1419     1.0  0.86863  0.76144  0.38138  1.0000
  H   H6382     1.0  0.91460  0.73944  0.37213  1.0000
  S   S1420     1.0  0.68497  0.88493  0.39566  1.0000
  Fe  Fe711     1.0  0.77846  0.85900  0.39724  1.0000
  H   H6383     1.0  0.70765  0.88613  0.57656  1.0000
  S   S1421     1.0  0.77657  0.85912  0.41506  1.0000
  C   C5326     1.0  0.92800  0.77800  0.53167  1.0000
  H   H6384     1.0  0.72897  0.88916  0.40925  1.0000
  C   C5327     1.0  0.88741  0.74561  0.55060  1.0000
  C   C5328     1.0  0.73870  0.87871  0.39232  1.0000
  H   H6385     1.0  0.74013  0.93107  0.46873  1.0000
  H   H6386     1.0  0.83253  0.74286  0.43978  1.0000
  C   C5329     1.0  0.95625  0.74838  0.42757  1.0000
  S   S1422     1.0  0.83884  0.76265  0.40108  1.0000
  H   H6387     1.0  0.72338  0.94044  0.55958  1.0000
  N   N357      1.0  0.81896  0.79353  0.40679  1.0000
  H   H6388     1.0  0.93972  0.77219  0.54211  1.0000
  S   S1423     1.0  0.96270  0.77053  0.57241  1.0000
  H   H6389     1.0  0.81731  0.77816  0.40409  1.0000
  C   C5330     1.0  0.70899  0.86135  0.39617  1.0000
  S   S1424     1.0  0.89946  0.75488  0.53081  1.0000
  H   H6390     1.0  0.69190  0.84428  0.43290  1.0000
  C   C5331     1.0  0.88205  0.74536  0.56169  1.0000
  S   S1425     1.0  0.79141  0.88272  0.55420  1.0000
  H   H6391     1.0  0.87368  0.74416  0.49421  1.0000
  S   S1426     1.0  0.73243  0.96927  0.56031  1.0000
  H   H6392     1.0  0.69209  0.85576  0.45684  1.0000
  Fe  Fe712     1.0  0.71835  0.91746  0.54083  1.0000
  S   S1427     1.0  0.73425  0.91101  0.54685  1.0000
  S   S1428     1.0  0.70254  0.92337  0.55255  1.0000
  Fe  Fe713     1.0  0.72951  0.91591  0.51716  1.0000
  S   S1429     1.0  0.74666  0.90953  0.52095  1.0000
  S   S1430     1.0  0.72707  0.91987  0.49953  1.0000
  Fe  Fe714     1.0  0.73825  0.89878  0.53608  1.0000
  S   S1431     1.0  0.74634  0.88132  0.54325  1.0000
  Fe  Fe715     1.0  0.74153  0.92222  0.53152  1.0000
  S   S1432     1.0  0.75381  0.93035  0.53436  1.0000
  S   S1433     1.0  0.72143  0.90402  0.53153  1.0000
  S   S1434     1.0  0.72521  0.92983  0.52624  1.0000
  C   C5332     1.0  0.77937  0.90903  0.38568  1.0000
  H   H6393     1.0  0.95010  0.77868  0.54911  1.0000
  S   S1435     1.0  0.72172  0.95662  0.40507  1.0000
  H   H6394     1.0  0.91505  0.78530  0.52241  1.0000
  H   H6395     1.0  0.91479  0.80248  0.54667  1.0000
  Fe  Fe716     1.0  0.72399  0.90228  0.44382  1.0000
  S   S1436     1.0  0.70652  0.90925  0.45206  1.0000
  S   S1437     1.0  0.73750  0.91186  0.43760  1.0000
  Fe  Fe717     1.0  0.71921  0.87993  0.44565  1.0000
  S   S1438     1.0  0.70134  0.88485  0.45443  1.0000
  S   S1439     1.0  0.72577  0.86372  0.44009  1.0000
  Fe  Fe718     1.0  0.70143  0.90078  0.44154  1.0000
  S   S1440     1.0  0.68872  0.90937  0.43091  1.0000
  Fe  Fe719     1.0  0.70834  0.89276  0.46403  1.0000
  S   S1441     1.0  0.70452  0.89084  0.48265  1.0000
  S   S1442     1.0  0.71885  0.89533  0.43228  1.0000
  S   S1443     1.0  0.72622  0.88630  0.45634  1.0000
  C   C5333     1.0  0.72600  0.94406  0.41396  1.0000
  C   C5334     1.0  0.73715  0.93825  0.41195  1.0000
  C   C5335     1.0  0.74067  0.92829  0.41919  1.0000
  C   C5336     1.0  0.73296  0.92397  0.42827  1.0000
  C   C5337     1.0  0.72174  0.92960  0.43011  1.0000
  C   C5338     1.0  0.71831  0.93977  0.42308  1.0000
  H   H6396     1.0  0.74318  0.94149  0.40496  1.0000
  H   H6397     1.0  0.74934  0.92393  0.41769  1.0000
  H   H6398     1.0  0.71577  0.92639  0.43717  1.0000
  H   H6399     1.0  0.70967  0.94423  0.42464  1.0000
  S   S1444     1.0  0.95371  0.75502  0.55616  1.0000
  C   C5339     1.0  0.92833  0.78757  0.54574  1.0000
  Fe  Fe720     1.0  0.73515  0.95717  0.38968  1.0000
  C   C5340     1.0  0.72058  0.91175  0.49517  1.0000
  C   C5341     1.0  0.71665  0.90258  0.50234  1.0000
  C   C5342     1.0  0.71152  0.89635  0.49848  1.0000
  C   C5343     1.0  0.71048  0.89912  0.48741  1.0000
  C   C5344     1.0  0.71442  0.90830  0.48025  1.0000
  C   C5345     1.0  0.71935  0.91464  0.48416  1.0000
  H   H6400     1.0  0.71759  0.90024  0.51084  1.0000
  H   H6401     1.0  0.70851  0.88925  0.50404  1.0000
  H   H6402     1.0  0.71365  0.91054  0.47171  1.0000
  H   H6403     1.0  0.72230  0.92177  0.47861  1.0000
  C   C5346     1.0  0.73847  0.95859  0.55295  1.0000
  C   C5347     1.0  0.73335  0.95755  0.54500  1.0000
  C   C5348     1.0  0.73784  0.94872  0.53945  1.0000
  C   C5349     1.0  0.74752  0.94098  0.54176  1.0000
  C   C5350     1.0  0.75249  0.94195  0.54983  1.0000
  C   C5351     1.0  0.74804  0.95076  0.55536  1.0000
  H   H6404     1.0  0.72592  0.96358  0.54314  1.0000
  H   H6405     1.0  0.73396  0.94805  0.53321  1.0000
  H   H6406     1.0  0.75982  0.93591  0.55183  1.0000
  H   H6407     1.0  0.75208  0.95151  0.56143  1.0000
  C   C5352     1.0  0.77904  0.88201  0.55115  1.0000
  C   C5353     1.0  0.77341  0.87345  0.55703  1.0000
  C   C5354     1.0  0.76357  0.87300  0.55434  1.0000
  C   C5355     1.0  0.75907  0.88140  0.54615  1.0000
  C   C5356     1.0  0.76461  0.89004  0.54048  1.0000
  C   C5357     1.0  0.77468  0.89021  0.54279  1.0000
  C   C5358     1.0  0.86572  0.77500  0.43172  1.0000
  H   H6408     1.0  0.75941  0.86622  0.55868  1.0000
  H   H6409     1.0  0.76127  0.89653  0.53416  1.0000
  H   H6410     1.0  0.77902  0.89681  0.53819  1.0000
  H   H6411     1.0  0.74479  0.86046  0.58076  1.0000
  H   H6412     1.0  0.89069  0.76200  0.41841  1.0000
  H   H6413     1.0  0.70187  0.86437  0.44854  1.0000
  C   C5359     1.0  0.82385  0.78719  0.41654  1.0000
  H   H6414     1.0  0.94125  0.75311  0.54164  1.0000
  H   H6415     1.0  0.94760  0.79332  0.54302  1.0000
  C   C5360     1.0  0.89049  0.75535  0.54380  1.0000
  C   C5361     1.0  0.88726  0.76512  0.54783  1.0000
  C   C5362     1.0  0.88189  0.76487  0.55899  1.0000
  H   H6416     1.0  0.75015  0.93963  0.46263  1.0000
  H   H6417     1.0  0.70392  0.94251  0.39285  1.0000
  H   H6418     1.0  0.95526  0.74093  0.43384  1.0000
  H   H6419     1.0  0.88953  0.77270  0.54256  1.0000
  H   H6420     1.0  0.87998  0.77225  0.56226  1.0000
  H   H6421     1.0  0.69778  0.92645  0.39124  1.0000
  H   H6422     1.0  0.91663  0.74355  0.55476  1.0000
  H   H6423     1.0  0.70723  0.86639  0.42846  1.0000
  H   H6424     1.0  0.91971  0.79918  0.56304  1.0000
  H   H6425     1.0  0.73152  0.87449  0.41417  1.0000
  H   H6426     1.0  0.80041  0.91586  0.55790  1.0000
  H   H6427     1.0  0.81884  0.81821  0.57926  1.0000
  C   C5363     1.0  0.72382  0.85004  0.40528  1.0000
  Fe  Fe721     1.0  0.95733  0.75523  0.57232  1.0000
  C   C5364     1.0  0.84293  0.75622  0.41370  1.0000
  C   C5365     1.0  0.72771  0.85953  0.40441  1.0000
  H   H6428     1.0  0.73509  0.85836  0.40756  1.0000
  C   C5366     1.0  0.91883  0.79557  0.54266  1.0000
  H   H6429     1.0  0.81311  0.80381  0.42508  1.0000
  H   H6430     1.0  0.84999  0.74664  0.38589  1.0000
  H   H6431     1.0  0.71042  0.89958  0.55847  1.0000
  C   C5367     1.0  0.94562  0.78703  0.55077  1.0000
  C   C5368     1.0  0.86044  0.82001  0.57284  1.0000
  H   H6432     1.0  0.93148  0.77110  0.52749  1.0000
  H   H6433     1.0  0.92987  0.80584  0.55224  1.0000
  C   C5369     1.0  0.91874  0.78599  0.52882  1.0000
  H   H6434     1.0  0.89659  0.77781  0.40971  1.0000
  H   H6435     1.0  0.67786  0.93748  0.52378  1.0000
  C   C5370     1.0  0.76242  0.86046  0.42187  1.0000
  C   C5371     1.0  0.75758  0.86821  0.42863  1.0000
  C   C5372     1.0  0.74629  0.86934  0.43411  1.0000
  C   C5373     1.0  0.73991  0.86241  0.43322  1.0000
  C   C5374     1.0  0.74477  0.85456  0.42657  1.0000
  C   C5375     1.0  0.75594  0.85375  0.42070  1.0000
  H   H6436     1.0  0.76255  0.87347  0.42947  1.0000
  H   H6437     1.0  0.74260  0.87549  0.43913  1.0000
  H   H6438     1.0  0.73989  0.84915  0.42588  1.0000
  H   H6439     1.0  0.75964  0.84774  0.41551  1.0000
  C   C5376     1.0  0.87964  0.75488  0.56599  1.0000
  H   H6440     1.0  0.73627  0.90019  0.57983  1.0000
  C   C5377     1.0  0.68719  0.89224  0.40446  1.0000
  C   C5378     1.0  0.68238  0.90355  0.40387  1.0000
  C   C5379     1.0  0.68303  0.90881  0.41192  1.0000
  C   C5380     1.0  0.68874  0.90288  0.42040  1.0000
  C   C5381     1.0  0.69415  0.89177  0.42056  1.0000
  C   C5382     1.0  0.69326  0.88645  0.41269  1.0000
  H   H6441     1.0  0.67768  0.90811  0.39756  1.0000
  H   H6442     1.0  0.67887  0.91744  0.41171  1.0000
  H   H6443     1.0  0.69855  0.88715  0.42708  1.0000
  H   H6444     1.0  0.69703  0.87775  0.41314  1.0000
  H   H6445     1.0  0.90692  0.80091  0.53208  1.0000
  N   N358      1.0  0.71271  0.92539  0.39680  1.0000
  C   C5383     1.0  0.70638  0.92421  0.40848  1.0000
  H   H6446     1.0  0.83503  0.83052  0.38722  1.0000
  H   H6447     1.0  0.86342  0.80595  0.39966  1.0000
  C   C5384     1.0  0.72450  0.91913  0.39560  1.0000
  H   H6448     1.0  0.86086  0.79216  0.41684  1.0000
  C   C5385     1.0  0.72968  0.91405  0.40481  1.0000
  C   C5386     1.0  0.88711  0.75654  0.50538  1.0000
  H   H6449     1.0  0.87817  0.74977  0.52558  1.0000
  C   C5387     1.0  0.94991  0.74340  0.55458  1.0000
  H   H6450     1.0  0.70966  0.92804  0.41338  1.0000
  H   H6451     1.0  0.69737  0.92838  0.40913  1.0000
  H   H6452     1.0  0.70665  0.91531  0.41262  1.0000
  H   H6453     1.0  0.85842  0.85048  0.57986  1.0000
  H   H6454     1.0  0.91013  0.75236  0.40181  1.0000
  C   C5388     1.0  0.66769  0.88328  0.43119  1.0000
  C   C5389     1.0  0.70657  0.92159  0.39071  1.0000
  H   H6455     1.0  0.87860  0.75681  0.48872  1.0000
  H   H6456     1.0  0.77027  0.91734  0.56029  1.0000
  C   C5390     1.0  0.70578  0.90252  0.56591  1.0000
  H   H6457     1.0  0.72529  0.91443  0.41322  1.0000
  H   H6458     1.0  0.66856  0.87532  0.41818  1.0000
  C   C5391     1.0  0.72066  0.89062  0.39223  1.0000
  N   N359      1.0  0.97711  0.74099  0.42081  1.0000
  N   N360      1.0  0.68961  0.92195  0.52197  1.0000
  C   C5392     1.0  0.68826  0.92406  0.51039  1.0000
  C   C5393     1.0  0.67957  0.92858  0.52816  1.0000
  H   H6459     1.0  0.71285  0.85174  0.43119  1.0000
  C   C5394     1.0  0.69105  0.91005  0.52766  1.0000
  C   C5395     1.0  0.69199  0.90676  0.53892  1.0000
  C   C5396     1.0  0.69166  0.90145  0.52233  1.0000
  C   C5397     1.0  0.69355  0.89559  0.54445  1.0000
  C   C5398     1.0  0.69324  0.89029  0.52794  1.0000
  C   C5399     1.0  0.69420  0.88736  0.53897  1.0000
  H   H6460     1.0  0.68081  0.92130  0.51005  1.0000
  H   H6461     1.0  0.88081  0.75669  0.42996  1.0000
  H   H6462     1.0  0.69582  0.91978  0.50511  1.0000
  H   H6463     1.0  0.67201  0.92525  0.52933  1.0000
  H   H6464     1.0  0.74720  0.92194  0.45318  1.0000
  H   H6465     1.0  0.68054  0.92862  0.53651  1.0000
  C   C5400     1.0  0.81181  0.80455  0.40816  1.0000
  C   C5401     1.0  0.67185  0.87482  0.42530  1.0000
  N   N361      1.0  0.72683  0.88015  0.39827  1.0000
  H   H6466     1.0  0.69162  0.91280  0.54354  1.0000
  H   H6467     1.0  0.69099  0.90309  0.51381  1.0000
  C   C5402     1.0  0.98644  0.74586  0.42089  1.0000
  H   H6468     1.0  0.69370  0.88387  0.52369  1.0000
  H   H6469     1.0  0.69541  0.87871  0.54329  1.0000
  H   H6470     1.0  0.72831  0.84192  0.40887  1.0000
  C   C5403     1.0  0.79792  0.82577  0.41024  1.0000
  N   N362      1.0  0.69553  0.85668  0.43923  1.0000
  C   C5404     1.0  0.71259  0.93736  0.39216  1.0000
  H   H6471     1.0  0.87964  0.76212  0.50935  1.0000
  C   C5405     1.0  0.86927  0.79180  0.41197  1.0000
  H   H6472     1.0  0.87702  0.76251  0.41673  1.0000
  H   H6473     1.0  0.73768  0.94562  0.43009  1.0000
  S   S1445     1.0  0.86760  0.78724  0.57717  1.0000
  Fe  Fe722     1.0  0.87598  0.77294  0.38623  1.0000
  H   H6474     1.0  0.70176  0.86211  0.39285  1.0000
  C   C5406     1.0  0.84196  0.83553  0.56635  1.0000
  C   C5407     1.0  0.88918  0.78392  0.40794  1.0000
  H   H6475     1.0  0.70731  0.92119  0.51716  1.0000
  H   H6476     1.0  0.86118  0.74189  0.39820  1.0000
  H   H6477     1.0  0.80803  0.80926  0.39166  1.0000
  H   H6478     1.0  0.81242  0.83764  0.58199  1.0000
  H   H6479     1.0  0.67913  0.96741  0.57741  1.0000
  H   H6480     1.0  0.74086  0.87621  0.56727  1.0000
  H   H6481     1.0  0.91903  0.75586  0.41593  1.0000
  H   H6482     1.0  0.70075  0.92555  0.52998  1.0000
  H   H6483     1.0  0.86522  0.76809  0.43921  1.0000
  H   H6484     1.0  0.93824  0.74592  0.40867  1.0000
  H   H6485     1.0  0.86032  0.77399  0.42668  1.0000
  N   N363      1.0  0.78679  0.91744  0.55017  1.0000
  C   C5408     1.0  0.79420  0.91247  0.54083  1.0000
  H   H6486     1.0  0.88336  0.76919  0.44055  1.0000
  C   C5409     1.0  0.77613  0.91358  0.55344  1.0000
  C   C5410     1.0  0.78436  0.92974  0.54672  1.0000
  C   C5411     1.0  0.77999  0.93509  0.53706  1.0000
  C   C5412     1.0  0.78564  0.93673  0.55300  1.0000
  H   H6487     1.0  0.68438  0.87477  0.44960  1.0000
  C   C5413     1.0  0.78262  0.94832  0.54981  1.0000
  H   H6488     1.0  0.80182  0.91603  0.53743  1.0000
  H   H6489     1.0  0.79702  0.90329  0.54342  1.0000
  H   H6490     1.0  0.78994  0.91373  0.53395  1.0000
  H   H6491     1.0  0.68714  0.93307  0.50638  1.0000
  H   H6492     1.0  0.79442  0.90381  0.56188  1.0000
  C   C5414     1.0  0.79989  0.82205  0.40052  1.0000
  H   H6493     1.0  0.77177  0.91582  0.54645  1.0000
  H   H6494     1.0  0.77752  0.90438  0.55634  1.0000
  H   H6495     1.0  0.89340  0.75380  0.51070  1.0000
  H   H6496     1.0  0.97426  0.76118  0.40605  1.0000
  H   H6497     1.0  0.78878  0.93350  0.56051  1.0000
  H   H6498     1.0  0.74878  0.97497  0.44042  1.0000
  S   S1446     1.0  0.78021  0.94917  0.57877  1.0000
  S   S1447     1.0  0.85957  0.78121  0.39546  1.0000
  H   H6499     1.0  0.91382  0.76229  0.54381  1.0000
  C   C5415     1.0  0.69956  0.92608  0.52158  1.0000
  H   H6500     1.0  0.74717  0.92943  0.43936  1.0000
  C   C5416     1.0  0.84776  0.83799  0.57287  1.0000
  H   H6501     1.0  0.92213  0.77921  0.56769  1.0000
  H   H6502     1.0  0.71156  0.84357  0.40169  1.0000
  C   C5417     1.0  0.88114  0.79986  0.39513  1.0000
  C   C5418     1.0  0.89042  0.79197  0.39808  1.0000
  C   C5419     1.0  0.74270  0.91311  0.38358  1.0000
  C   C5420     1.0  0.83522  0.75187  0.42278  1.0000
  H   H6503     1.0  0.99455  0.77376  0.39069  1.0000
  H   H6504     1.0  0.98100  0.74256  0.40313  1.0000
  H   H6505     1.0  0.93859  0.75531  0.43207  1.0000
  H   H6506     1.0  0.83325  0.80065  0.39787  1.0000
  C   C5421     1.0  0.85449  0.81760  0.56643  1.0000
  C   C5422     1.0  0.70426  0.89493  0.57612  1.0000
  H   H6507     1.0  0.72426  0.89782  0.39158  1.0000
  H   H6508     1.0  0.98412  0.75046  0.42768  1.0000
  C   C5423     1.0  0.87853  0.78345  0.41510  1.0000
  S   S1448     1.0  0.88901  0.80109  0.58178  1.0000
  C   C5424     1.0  0.91043  0.74811  0.57095  1.0000
  N   N364      1.0  0.74317  0.87722  0.48687  1.0000
  C   C5425     1.0  0.74322  0.88868  0.48016  1.0000
  C   C5426     1.0  0.75460  0.87025  0.48451  1.0000
  C   C5427     1.0  0.73566  0.87264  0.48307  1.0000
  C   C5428     1.0  0.73975  0.87746  0.49881  1.0000
  C   C5429     1.0  0.74604  0.88169  0.50367  1.0000
  C   C5430     1.0  0.73030  0.87344  0.50596  1.0000
  C   C5431     1.0  0.74315  0.88179  0.51496  1.0000
  C   C5432     1.0  0.72745  0.87364  0.51724  1.0000
  C   C5433     1.0  0.73389  0.87776  0.52173  1.0000
  H   H6509     1.0  0.74949  0.89239  0.48163  1.0000
  H   H6510     1.0  0.74512  0.88895  0.47111  1.0000
  H   H6511     1.0  0.73492  0.89426  0.48219  1.0000
  H   H6512     1.0  0.76097  0.87368  0.48619  1.0000
  H   H6513     1.0  0.75733  0.86958  0.47566  1.0000
  H   H6514     1.0  0.75499  0.86167  0.48970  1.0000
  H   H6515     1.0  0.72697  0.87777  0.48418  1.0000
  H   H6516     1.0  0.73847  0.87253  0.47409  1.0000
  H   H6517     1.0  0.73543  0.86390  0.48752  1.0000
  H   H6518     1.0  0.75328  0.88496  0.49880  1.0000
  H   H6519     1.0  0.72487  0.87025  0.50303  1.0000
  H   H6520     1.0  0.74814  0.88496  0.51854  1.0000
  H   H6521     1.0  0.72020  0.87060  0.52254  1.0000
  H   H6522     1.0  0.73172  0.87783  0.53049  1.0000
  H   H6523     1.0  0.89323  0.77423  0.42881  1.0000
  H   H6524     1.0  0.66112  0.89024  0.42872  1.0000
  S   S1449     1.0  0.96140  0.74909  0.39273  1.0000
  C   C5434     1.0  0.74746  0.90815  0.39278  1.0000
  H   H6525     1.0  0.71708  0.94053  0.39655  1.0000
  Fe  Fe723     1.0  0.74145  0.96855  0.57343  1.0000
  H   H6526     1.0  0.77327  0.95052  0.52681  1.0000
  C   C5435     1.0  0.90353  0.76829  0.56929  1.0000
  H   H6527     1.0  0.86209  0.78289  0.43467  1.0000
  H   H6528     1.0  0.72115  0.89011  0.38357  1.0000
  H   H6529     1.0  0.88152  0.78395  0.43472  1.0000
  C   C5436     1.0  0.82838  0.79496  0.39711  1.0000
  C   C5437     1.0  0.81228  0.78666  0.40484  1.0000
  C   C5438     1.0  0.87705  0.74211  0.52445  1.0000
  C   C5439     1.0  0.74150  0.93905  0.46288  1.0000
  H   H6530     1.0  0.93300  0.79852  0.56544  1.0000
  S   S1450     1.0  0.75191  0.95958  0.38964  1.0000
  C   C5440     1.0  0.88165  0.76351  0.42247  1.0000
  C   C5441     1.0  0.74151  0.95008  0.44365  1.0000
  H   H6531     1.0  0.66923  0.88979  0.44430  1.0000
  H   H6532     1.0  0.99419  0.73939  0.42197  1.0000
  H   H6533     1.0  0.80920  0.79031  0.39703  1.0000
  H   H6534     1.0  0.78111  0.90792  0.39374  1.0000
  C   C5442     1.0  0.88413  0.77559  0.43267  1.0000
  H   H6535     1.0  0.73542  0.94581  0.46666  1.0000
  H   H6536     1.0  0.70011  0.83872  0.44311  1.0000
  H   H6537     1.0  0.92985  0.75345  0.39356  1.0000
  H   H6538     1.0  0.70631  0.84976  0.45101  1.0000
  H   H6539     1.0  0.83427  0.78690  0.39615  1.0000
  H   H6540     1.0  0.77326  0.98676  0.39766  1.0000
  C   C5443     1.0  0.73669  0.88383  0.57057  1.0000
  H   H6541     1.0  0.78348  0.95349  0.55484  1.0000
  C   C5444     1.0  0.67228  0.88300  0.43997  1.0000
  H   H6542     1.0  0.70613  0.91272  0.39416  1.0000
  C   C5445     1.0  0.74630  0.96847  0.43830  1.0000
  C   C5446     1.0  0.92874  0.79837  0.55897  1.0000
  H   H6543     1.0  0.90522  0.77835  0.55279  1.0000
  H   H6544     1.0  0.69896  0.93495  0.51719  1.0000
  H   H6545     1.0  0.71682  0.93895  0.38329  1.0000
  C   C5447     1.0  0.91418  0.79476  0.53429  1.0000
  H   H6546     1.0  0.68400  0.86013  0.42285  1.0000
  C   C5448     1.0  0.80672  0.81164  0.39945  1.0000
  C   C5449     1.0  0.70101  0.91384  0.56531  1.0000
  H   H6547     1.0  0.82673  0.75270  0.42207  1.0000
  C   C5450     1.0  0.84957  0.74484  0.43366  1.0000
  H   H6548     1.0  0.93443  0.77039  0.56167  1.0000
  N   N365      1.0  0.93335  0.78797  0.55472  1.0000
  C   C5451     1.0  0.93269  0.77872  0.54003  1.0000
  C   C5452     1.0  0.68567  0.86560  0.43692  1.0000
  H   H6549     1.0  0.72978  0.92684  0.56595  1.0000
  H   H6550     1.0  0.74620  0.97734  0.42143  1.0000
  C   C5453     1.0  0.87509  0.83308  0.57671  1.0000
  H   H6551     1.0  0.83459  0.84143  0.56406  1.0000
  C   C5454     1.0  0.80963  0.80857  0.41801  1.0000
  C   C5455     1.0  0.87975  0.73936  0.51386  1.0000
  H   H6552     1.0  0.84047  0.82330  0.55852  1.0000
  C   C5456     1.0  0.77826  0.95328  0.54036  1.0000
  C   C5457     1.0  0.79241  0.91309  0.55972  1.0000
  H   H6553     1.0  0.77681  0.86704  0.56345  1.0000
  H   H6554     1.0  0.74601  0.95822  0.45434  1.0000
  H   H6555     1.0  0.73963  0.87789  0.38371  1.0000
  H   H6556     1.0  0.72204  0.94495  0.45602  1.0000
  H   H6557     1.0  0.94949  0.78822  0.55705  1.0000
  H   H6558     1.0  0.71555  0.92976  0.56438  1.0000
  C   C5458     1.0  0.69900  0.85666  0.44938  1.0000
  H   H6559     1.0  0.77567  0.96226  0.53810  1.0000
  S   S1451     1.0  0.99255  0.75834  0.58103  1.0000
  H   H6560     1.0  0.75691  0.93094  0.44630  1.0000
  C   C5459     1.0  0.93124  0.77854  0.56414  1.0000
  C   C5460     1.0  0.71304  0.87083  0.39496  1.0000
  H   H6561     1.0  0.85688  0.80959  0.56415  1.0000
  C   C5461     1.0  0.71445  0.85095  0.40120  1.0000
  C   C5462     1.0  0.69310  0.84560  0.44065  1.0000
  H   H6562     1.0  0.68540  0.84454  0.44716  1.0000
  C   C5463     1.0  0.68110  0.87429  0.44287  1.0000
  C   C5464     1.0  0.72251  0.87023  0.39912  1.0000
  H   H6563     1.0  0.82921  0.77898  0.41517  1.0000
  H   H6564     1.0  0.87492  0.83955  0.56891  1.0000
  H   H6565     1.0  0.89928  0.77533  0.57311  1.0000
  H   H6566     1.0  0.74479  0.90504  0.41051  1.0000
  H   H6567     1.0  0.70345  0.85769  0.42190  1.0000
  C   C5465     1.0  0.74171  0.96153  0.42480  1.0000
  H   H6568     1.0  0.78696  0.91575  0.56733  1.0000
  C   C5466     1.0  0.68073  0.86613  0.42807  1.0000
  C   C5467     1.0  0.74097  0.90862  0.40337  1.0000
  C   C5468     1.0  0.77700  0.94668  0.53397  1.0000
  C   C5469     1.0  0.70692  0.94455  0.57731  1.0000
  H   H6569     1.0  0.72687  0.93737  0.44518  1.0000
  H   H6570     1.0  0.78539  0.89163  0.38512  1.0000
  N   N366      1.0  0.87743  0.77461  0.42531  1.0000
  H   H6571     1.0  0.81724  0.78535  0.42407  1.0000
  H   H6572     1.0  0.74061  0.96253  0.41646  1.0000
  C   C5470     1.0  0.70515  0.85815  0.42977  1.0000
  H   H6573     1.0  0.77831  0.93035  0.53213  1.0000
  C   C5471     1.0  0.73142  0.91857  0.38492  1.0000
  H   H6574     1.0  0.93540  0.77816  0.57086  1.0000
  H   H6575     1.0  0.81615  0.83973  0.38329  1.0000
  C   C5472     1.0  0.87062  0.79984  0.40210  1.0000
  H   H6576     1.0  0.72057  0.97608  0.41466  1.0000
  H   H6577     1.0  0.98680  0.76217  0.38318  1.0000
  C   C5473     1.0  0.72301  0.98371  0.40966  1.0000
  S   S1452     1.0  0.79394  0.86158  0.38417  1.0000
  C   C5474     1.0  0.94685  0.76630  0.41843  1.0000
  H   H6578     1.0  0.72775  0.88562  0.57011  1.0000
  C   C5475     1.0  0.94652  0.75662  0.42663  1.0000
  S   S1453     1.0  0.77621  0.84482  0.39164  1.0000
  C   C5476     1.0  0.74484  0.96984  0.42760  1.0000
  N   N367      1.0  0.88419  0.74683  0.50348  1.0000
  C   C5477     1.0  0.91175  0.76100  0.55277  1.0000
  Fe  Fe724     1.0  0.85219  0.77084  0.38923  1.0000
  C   C5478     1.0  0.68678  0.96106  0.57728  1.0000
  C   C5479     1.0  0.85116  0.74536  0.57435  1.0000
  H   H6579     1.0  0.70867  0.87852  0.39059  1.0000
  S   S1454     1.0  0.74184  0.94202  0.38247  1.0000
  H   H6580     1.0  0.84446  0.84591  0.57528  1.0000
  H   H6581     1.0  0.95715  0.77531  0.40467  1.0000
  C   C5480     1.0  0.91218  0.75846  0.39429  1.0000
  C   C5481     1.0  0.90687  0.77003  0.55781  1.0000
  H   H6582     1.0  0.74231  0.88590  0.39179  1.0000
  H   H6583     1.0  0.80486  0.78572  0.41174  1.0000
  H   H6584     1.0  0.75629  0.90418  0.39167  1.0000
  H   H6585     1.0  0.89086  0.76176  0.49750  1.0000
  S   S1455     1.0  0.88992  0.76393  0.39500  1.0000
  H   H6586     1.0  0.80949  0.97765  0.38593  1.0000
  H   H6587     1.0  0.87971  0.82502  0.57437  1.0000
  H   H6588     1.0  0.79618  0.82729  0.39370  1.0000
  C   C5482     1.0  0.83851  0.74628  0.43277  1.0000
  S   S1456     1.0  0.76667  0.87198  0.38785  1.0000
  N   N368      1.0  0.73996  0.93953  0.45169  1.0000
  H   H6589     1.0  0.86757  0.81373  0.57508  1.0000
  H   H6590     1.0  0.69124  0.92634  0.57450  1.0000
  C   C5483     1.0  0.74816  0.93008  0.44748  1.0000
  C   C5484     1.0  0.90525  0.75750  0.57582  1.0000
  H   H6591     1.0  0.71171  0.89256  0.39648  1.0000
  C   C5485     1.0  0.83164  0.82731  0.38217  1.0000
  H   H6592     1.0  0.72789  0.94835  0.57319  1.0000
  C   C5486     1.0  0.72613  0.88158  0.40952  1.0000
  C   C5487     1.0  0.70664  0.95524  0.57018  1.0000
  H   H6593     1.0  0.72705  0.93004  0.45897  1.0000
  H   H6594     1.0  0.93923  0.77251  0.41755  1.0000
  H   H6595     1.0  0.71743  0.88224  0.41450  1.0000
  S   S1457     1.0  0.75716  0.97492  0.56950  1.0000
  C   C5488     1.0  0.72849  0.93794  0.45303  1.0000
  H   H6596     1.0  0.76331  0.97877  0.38852  1.0000
  S   S1458     1.0  0.87456  0.75376  0.58026  1.0000
  H   H6597     1.0  0.74047  0.89068  0.56472  1.0000
  C   C5489     1.0  0.80278  0.81904  0.41897  1.0000
  C   C5490     1.0  0.85717  0.83022  0.57642  1.0000
  H   H6598     1.0  0.79263  0.83391  0.41098  1.0000
  H   H6599     1.0  0.82553  0.79842  0.38918  1.0000
  C   C5491     1.0  0.95695  0.76786  0.41120  1.0000
  C   C5492     1.0  0.84525  0.82533  0.56322  1.0000
  H   H6600     1.0  0.75491  0.87281  0.57905  1.0000
  C   C5493     1.0  0.72637  0.98502  0.39821  1.0000
  H   H6601     1.0  0.82931  0.79173  0.41822  1.0000
  C   C5494     1.0  0.74004  0.95182  0.43269  1.0000
  C   C5495     1.0  0.74468  0.95875  0.44625  1.0000
  H   H6602     1.0  0.80121  0.82201  0.42650  1.0000
  H   H6603     1.0  0.86577  0.74823  0.42527  1.0000
  H   H6604     1.0  0.74405  0.87118  0.39641  1.0000
  H   H6605     1.0  0.80512  0.96080  0.38459  1.0000
  H   H6606     1.0  0.75385  0.88737  0.57656  1.0000
  C   C5496     1.0  0.85393  0.75507  0.41466  1.0000
  H   H6607     1.0  0.88019  0.83501  0.58146  1.0000
  H   H6608     1.0  0.88207  0.80593  0.38736  1.0000
  H   H6609     1.0  0.72658  0.97837  0.39440  1.0000
  C   C5497     1.0  0.72178  0.93316  0.56636  1.0000
  C   C5498     1.0  0.76508  0.98694  0.38487  1.0000
  S   S1459     1.0  0.80445  0.87848  0.57951  1.0000
  H   H6610     1.0  0.89852  0.74621  0.48967  1.0000
  C   C5499     1.0  0.92337  0.75896  0.38957  1.0000
  C   C5500     1.0  0.96674  0.75972  0.41211  1.0000
  C   C5501     1.0  0.91741  0.74446  0.43181  1.0000
  C   C5502     1.0  0.72608  0.94086  0.57951  1.0000
  C   C5503     1.0  0.96672  0.74971  0.42035  1.0000
  Fe  Fe725     1.0  0.79154  0.87585  0.57213  1.0000
  S   S1460     1.0  0.90336  0.75046  0.43638  1.0000
  H   H6611     1.0  0.85999  0.75828  0.40765  1.0000
  H   H6612     1.0  0.71412  0.95744  0.56453  1.0000
  H   H6613     1.0  0.69683  0.97151  0.56482  1.0000
  H   H6614     1.0  0.69428  0.89334  0.55305  1.0000
  S   S1461     1.0  0.77245  0.93125  0.38604  1.0000
  C   C5504     1.0  0.69500  0.91759  0.57496  1.0000
  H   H6615     1.0  0.73425  0.93483  0.57951  1.0000
  H   H6616     1.0  0.84738  0.75365  0.57038  1.0000
  C   C5505     1.0  0.92309  0.74854  0.42112  1.0000
  C   C5506     1.0  0.93388  0.74286  0.41697  1.0000
  H   H6617     1.0  0.77716  0.96122  0.38577  1.0000
  C   C5507     1.0  0.91334  0.75020  0.55919  1.0000
  C   C5508     1.0  0.69673  0.96336  0.57023  1.0000
  C   C5509     1.0  0.90368  0.76561  0.38920  1.0000
  C   C5510     1.0  0.94377  0.74491  0.54654  1.0000
  H   H6618     1.0  0.79507  0.94800  0.38692  1.0000
  N   N369      1.0  0.71761  0.93620  0.57733  1.0000
  C   C5511     1.0  0.89451  0.74068  0.49713  1.0000
  S   S1462     1.0  0.79253  0.85796  0.58082  1.0000
  S   S1463     1.0  0.96986  0.74375  0.58194  1.0000
  H   H6619     1.0  0.89859  0.79188  0.39259  1.0000
  C   C5512     1.0  0.87567  0.75104  0.49657  1.0000
  H   H6620     1.0  0.86771  0.75556  0.50110  1.0000
  C   C5513     1.0  0.99386  0.75843  0.38712  1.0000
  H   H6621     1.0  0.98897  0.75171  0.41299  1.0000
  C   C5514     1.0  0.85726  0.74928  0.42461  1.0000
  N   N370      1.0  0.73788  0.88252  0.58204  1.0000
  C   C5515     1.0  0.74994  0.88043  0.58204  1.0000
  Fe  Fe726     1.0  0.76266  0.95946  0.58190  1.0000
  H   H6622     1.0  0.99646  0.78393  0.56873  1.0000
  H   H6623     1.0  0.99663  0.79695  0.57978  1.0000
  Fe  Fe727     1.0  0.97603  0.73959  0.38224  1.0000
  C   C5516     1.0  0.58907  0.92527  0.75580  1.0000
  H   H6624     1.0  0.56300  0.89771  0.74449  1.0000
  H   H6625     1.0  0.54577  0.93932  0.77019  1.0000
  C   C5517     1.0  0.71891  0.86528  0.60453  1.0000
  S   S1464     1.0  0.96110  0.76114  0.59909  1.0000
  Fe  Fe728     1.0  0.61854  0.90118  0.71744  1.0000
  S   S1465     1.0  0.62184  0.89721  0.70068  1.0000
  S   S1466     1.0  0.62665  0.89082  0.73151  1.0000
  Fe  Fe729     1.0  0.60371  0.92365  0.71121  1.0000
  S   S1467     1.0  0.60571  0.92197  0.69392  1.0000
  S   S1468     1.0  0.59169  0.93843  0.71682  1.0000
  Fe  Fe730     1.0  0.60345  0.90463  0.70182  1.0000
  S   S1469     1.0  0.59228  0.89877  0.69490  1.0000
  Fe  Fe731     1.0  0.62386  0.91486  0.69408  1.0000
  S   S1470     1.0  0.63684  0.92110  0.67942  1.0000
  S   S1471     1.0  0.59995  0.90683  0.71921  1.0000
  S   S1472     1.0  0.62206  0.91831  0.71076  1.0000
  C   C5518     1.0  0.59814  0.90698  0.76374  1.0000
  C   C5519     1.0  0.72497  0.98111  0.63131  1.0000
  S   S1473     1.0  0.85443  0.77196  0.59911  1.0000
  H   H6626     1.0  0.64730  0.88531  0.69807  1.0000
  C   C5520     1.0  0.82253  0.82095  0.58443  1.0000
  H   H6627     1.0  0.76599  0.93322  0.58313  1.0000
  C   C5521     1.0  0.90223  0.79677  0.58521  1.0000
  C   C5522     1.0  0.90796  0.80493  0.58446  1.0000
  Fe  Fe732     1.0  0.86516  0.77516  0.60854  1.0000
  S   S1474     1.0  0.86363  0.76754  0.62660  1.0000
  C   C5523     1.0  0.58372  0.89833  0.75624  1.0000
  S   S1475     1.0  0.86189  0.79359  0.60165  1.0000
  Fe  Fe733     1.0  0.71216  0.89727  0.62685  1.0000
  S   S1476     1.0  0.70145  0.88536  0.62848  1.0000
  S   S1477     1.0  0.73001  0.89336  0.62874  1.0000
  Fe  Fe734     1.0  0.69446  0.91746  0.62011  1.0000
  S   S1478     1.0  0.68203  0.90743  0.62119  1.0000
  S   S1479     1.0  0.69183  0.93583  0.61288  1.0000
  Fe  Fe735     1.0  0.68749  0.89744  0.63691  1.0000
  S   S1480     1.0  0.67580  0.88984  0.65209  1.0000
  Fe  Fe736     1.0  0.69682  0.89628  0.61277  1.0000
  S   S1481     1.0  0.69709  0.88912  0.59854  1.0000
  S   S1482     1.0  0.69866  0.90853  0.63660  1.0000
  S   S1483     1.0  0.70881  0.90706  0.61037  1.0000
  H   H6628     1.0  0.67715  0.90962  0.67257  1.0000
  H   H6629     1.0  0.64509  0.90536  0.69914  1.0000
  Fe  Fe737     1.0  0.77894  0.86500  0.59401  1.0000
  S   S1484     1.0  0.79068  0.86664  0.60333  1.0000
  S   S1485     1.0  0.76377  0.85785  0.60282  1.0000
  Fe  Fe738     1.0  0.78976  0.88380  0.59264  1.0000
  S   S1486     1.0  0.78768  0.89804  0.60055  1.0000
  C   C5524     1.0  0.51915  0.87397  0.74456  1.0000
  S   S1487     1.0  0.81984  0.84932  0.59440  1.0000
  N   N371      1.0  0.55046  0.92148  0.77585  1.0000
  C   C5525     1.0  0.81801  0.81375  0.62480  1.0000
  H   H6630     1.0  0.55744  0.87371  0.76637  1.0000
  S   S1488     1.0  0.73297  0.97777  0.58705  1.0000
  H   H6631     1.0  0.80263  0.91299  0.59241  1.0000
  C   C5526     1.0  0.61249  0.95338  0.77732  1.0000
  N   N372      1.0  0.50868  0.87662  0.75292  1.0000
  Fe  Fe739     1.0  0.74046  0.96243  0.59815  1.0000
  S   S1489     1.0  0.73139  0.95553  0.61525  1.0000
  S   S1490     1.0  0.75627  0.96796  0.59628  1.0000
  Fe  Fe740     1.0  0.58613  0.96268  0.76243  1.0000
  C   C5527     1.0  0.58527  0.90936  0.75143  1.0000
  S   S1491     1.0  0.60301  0.95441  0.75392  1.0000
  Fe  Fe741     1.0  0.56272  0.97066  0.75824  1.0000
  S   S1492     1.0  0.55462  0.97053  0.74482  1.0000
  H   H6632     1.0  0.61266  0.93588  0.78072  1.0000
  H   H6633     1.0  0.86881  0.82526  0.59884  1.0000
  S   S1493     1.0  0.57711  0.97903  0.75406  1.0000
  S   S1494     1.0  0.57219  0.95406  0.76544  1.0000
  Fe  Fe742     1.0  0.53196  0.91896  0.72601  1.0000
  S   S1495     1.0  0.53916  0.91662  0.74080  1.0000
  S   S1496     1.0  0.54168  0.92331  0.70853  1.0000
  C   C5528     1.0  0.99510  0.74925  0.61878  1.0000
  S   S1497     1.0  0.51450  0.91236  0.75564  1.0000
  Fe  Fe743     1.0  0.52257  0.92690  0.74743  1.0000
  S   S1498     1.0  0.52004  0.93963  0.75749  1.0000
  Fe  Fe744     1.0  0.53046  0.90235  0.74763  1.0000
  S   S1499     1.0  0.53906  0.88575  0.75615  1.0000
  S   S1500     1.0  0.51591  0.93051  0.73208  1.0000
  S   S1501     1.0  0.52461  0.90374  0.73222  1.0000
  C   C5529     1.0  0.53028  0.94749  0.75444  1.0000
  C   C5530     1.0  0.52832  0.95607  0.76001  1.0000
  C   C5531     1.0  0.53612  0.96279  0.75750  1.0000
  C   C5532     1.0  0.54588  0.96095  0.74940  1.0000
  C   C5533     1.0  0.54814  0.95200  0.74424  1.0000
  C   C5534     1.0  0.54032  0.94528  0.74673  1.0000
  H   H6634     1.0  0.52062  0.95771  0.76608  1.0000
  H   H6635     1.0  0.53436  0.96967  0.76152  1.0000
  H   H6636     1.0  0.55575  0.95056  0.73804  1.0000
  H   H6637     1.0  0.52652  0.87533  0.74674  1.0000
  Fe  Fe745     1.0  0.80427  0.86104  0.58942  1.0000
  C   C5535     1.0  0.78624  0.91153  0.59217  1.0000
  H   H6638     1.0  0.90219  0.75670  0.58463  1.0000
  H   H6639     1.0  0.97608  0.74285  0.61757  1.0000
  H   H6640     1.0  0.82342  0.81417  0.62982  1.0000
  H   H6641     1.0  0.73312  0.89288  0.59399  1.0000
  H   H6642     1.0  0.51474  0.88978  0.75529  1.0000
  C   C5536     1.0  0.73239  0.89328  0.58542  1.0000
  C   C5537     1.0  0.50719  0.88832  0.75358  1.0000
  S   S1502     1.0  0.93806  0.78751  0.59040  1.0000
  H   H6643     1.0  0.72682  0.97999  0.61025  1.0000
  C   C5538     1.0  0.70244  0.94166  0.61384  1.0000
  C   C5539     1.0  0.70730  0.93788  0.62310  1.0000
  C   C5540     1.0  0.71579  0.94258  0.62375  1.0000
  C   C5541     1.0  0.71991  0.95062  0.61486  1.0000
  C   C5542     1.0  0.71506  0.95442  0.60559  1.0000
  C   C5543     1.0  0.70614  0.95014  0.60522  1.0000
  H   H6644     1.0  0.70432  0.93150  0.62988  1.0000
  H   H6645     1.0  0.71931  0.93981  0.63106  1.0000
  H   H6646     1.0  0.71808  0.96073  0.59875  1.0000
  H   H6647     1.0  0.70226  0.95326  0.59814  1.0000
  C   C5544     1.0  0.55303  0.93272  0.77243  1.0000
  H   H6648     1.0  0.98301  0.74876  0.60373  1.0000
  C   C5545     1.0  0.91133  0.74860  0.62686  1.0000
  H   H6649     1.0  0.98228  0.77425  0.59546  1.0000
  H   H6650     1.0  0.61241  0.87304  0.76990  1.0000
  H   H6651     1.0  0.68941  0.91301  0.59273  1.0000
  H   H6652     1.0  0.50560  0.89404  0.74567  1.0000
  H   H6653     1.0  0.51859  0.87946  0.73625  1.0000
  C   C5546     1.0  0.73924  0.88291  0.62218  1.0000
  C   C5547     1.0  0.73534  0.87515  0.61921  1.0000
  C   C5548     1.0  0.74297  0.86703  0.61379  1.0000
  C   C5549     1.0  0.75441  0.86701  0.61088  1.0000
  C   C5550     1.0  0.75828  0.87476  0.61388  1.0000
  C   C5551     1.0  0.75075  0.88248  0.61977  1.0000
  H   H6654     1.0  0.72648  0.87529  0.62122  1.0000
  H   H6655     1.0  0.73999  0.86094  0.61162  1.0000
  H   H6656     1.0  0.76709  0.87479  0.61176  1.0000
  H   H6657     1.0  0.75387  0.88819  0.62235  1.0000
  H   H6658     1.0  0.72480  0.91991  0.58603  1.0000
  C   C5552     1.0  0.91838  0.78247  0.58978  1.0000
  H   H6659     1.0  0.92827  0.75206  0.62179  1.0000
  C   C5553     1.0  0.82369  0.83551  0.59261  1.0000
  C   C5554     1.0  0.83211  0.82807  0.59766  1.0000
  C   C5555     1.0  0.83594  0.81718  0.59589  1.0000
  H   H6660     1.0  0.51804  0.87009  0.76585  1.0000
  H   H6661     1.0  0.60318  0.89867  0.76244  1.0000
  H   H6662     1.0  0.83570  0.83075  0.60295  1.0000
  H   H6663     1.0  0.84239  0.81148  0.59985  1.0000
  C   C5556     1.0  0.66772  0.90179  0.68802  1.0000
  C   C5557     1.0  0.86969  0.75327  0.62991  1.0000
  Fe  Fe746     1.0  0.95622  0.74649  0.59684  1.0000
  H   H6664     1.0  0.86547  0.75295  0.64737  1.0000
  H   H6665     1.0  0.87514  0.75093  0.61310  1.0000
  H   H6666     1.0  0.67899  0.94880  0.58979  1.0000
  H   H6667     1.0  0.59526  0.92859  0.75798  1.0000
  N   N373      1.0  0.65697  0.89119  0.70574  1.0000
  Fe  Fe747     1.0  0.56629  0.95971  0.78139  1.0000
  C   C5558     1.0  0.65032  0.88323  0.70588  1.0000
  C   C5559     1.0  0.57566  0.89430  0.75387  1.0000
  C   C5560     1.0  0.64735  0.91228  0.67170  1.0000
  C   C5561     1.0  0.65486  0.91698  0.66255  1.0000
  C   C5562     1.0  0.66356  0.91019  0.65640  1.0000
  C   C5563     1.0  0.66484  0.89863  0.65944  1.0000
  C   C5564     1.0  0.65728  0.89392  0.66855  1.0000
  C   C5565     1.0  0.64850  0.90073  0.67461  1.0000
  H   H6668     1.0  0.65399  0.92592  0.66024  1.0000
  H   H6669     1.0  0.66932  0.91388  0.64938  1.0000
  H   H6670     1.0  0.65824  0.88498  0.67090  1.0000
  H   H6671     1.0  0.64270  0.89706  0.68155  1.0000
  C   C5566     1.0  0.59566  0.94366  0.72608  1.0000
  C   C5567     1.0  0.60625  0.93968  0.72870  1.0000
  C   C5568     1.0  0.60872  0.94322  0.73703  1.0000
  C   C5569     1.0  0.60063  0.95084  0.74263  1.0000
  C   C5570     1.0  0.59028  0.95516  0.73960  1.0000
  C   C5571     1.0  0.58778  0.95156  0.73141  1.0000
  H   H6672     1.0  0.61245  0.93371  0.72451  1.0000
  H   H6673     1.0  0.61678  0.93990  0.73927  1.0000
  H   H6674     1.0  0.58405  0.96122  0.74361  1.0000
  H   H6675     1.0  0.57960  0.95476  0.72941  1.0000
  C   C5572     1.0  0.57822  0.90545  0.69902  1.0000
  C   C5573     1.0  0.57189  0.91078  0.69097  1.0000
  C   C5574     1.0  0.56072  0.91625  0.69402  1.0000
  C   C5575     1.0  0.55566  0.91610  0.70518  1.0000
  C   C5576     1.0  0.56193  0.91062  0.71330  1.0000
  C   C5577     1.0  0.57327  0.90548  0.71021  1.0000
  H   H6676     1.0  0.57565  0.91077  0.68233  1.0000
  H   H6677     1.0  0.55592  0.92047  0.68772  1.0000
  H   H6678     1.0  0.55806  0.91038  0.72194  1.0000
  H   H6679     1.0  0.57810  0.90126  0.71649  1.0000
  C   C5578     1.0  0.61762  0.88333  0.74196  1.0000
  C   C5579     1.0  0.61876  0.88082  0.75297  1.0000
  C   C5580     1.0  0.61151  0.87495  0.76140  1.0000
  C   C5581     1.0  0.60338  0.87122  0.75878  1.0000
  C   C5582     1.0  0.60228  0.87371  0.74776  1.0000
  C   C5583     1.0  0.60924  0.87994  0.73939  1.0000
  H   H6680     1.0  0.62519  0.88348  0.75501  1.0000
  C   C5584     1.0  0.87501  0.74704  0.62173  1.0000
  H   H6681     1.0  0.59596  0.87089  0.74571  1.0000
  H   H6682     1.0  0.60829  0.88185  0.73091  1.0000
  H   H6683     1.0  0.58161  0.92551  0.76275  1.0000
  H   H6684     1.0  0.78951  0.91474  0.61632  1.0000
  H   H6685     1.0  0.58670  0.93139  0.74839  1.0000
  Fe  Fe748     1.0  0.94933  0.77106  0.58793  1.0000
  H   H6686     1.0  0.66711  0.87889  0.71636  1.0000
  C   C5585     1.0  0.66616  0.89168  0.69574  1.0000
  H   H6687     1.0  0.89356  0.74916  0.62917  1.0000
  H   H6688     1.0  0.60381  0.91091  0.76595  1.0000
  C   C5586     1.0  0.69396  0.91007  0.58526  1.0000
  H   H6689     1.0  0.78794  0.93505  0.60960  1.0000
  N   N374      1.0  0.79105  0.83054  0.61530  1.0000
  C   C5587     1.0  0.78111  0.82546  0.61864  1.0000
  C   C5588     1.0  0.78870  0.83927  0.62175  1.0000
  C   C5589     1.0  0.79231  0.83618  0.60346  1.0000
  C   C5590     1.0  0.80124  0.82182  0.61690  1.0000
  C   C5591     1.0  0.80839  0.82209  0.62359  1.0000
  C   C5592     1.0  0.80440  0.81277  0.61149  1.0000
  C   C5593     1.0  0.51034  0.86934  0.76377  1.0000
  C   C5594     1.0  0.81404  0.80450  0.61275  1.0000
  H   H6690     1.0  0.52042  0.95392  0.72728  1.0000
  H   H6691     1.0  0.77325  0.83191  0.61791  1.0000
  H   H6692     1.0  0.78160  0.81971  0.61334  1.0000
  H   H6693     1.0  0.78015  0.82070  0.62738  1.0000
  H   H6694     1.0  0.78739  0.83568  0.63081  1.0000
  H   H6695     1.0  0.78098  0.84568  0.62031  1.0000
  H   H6696     1.0  0.79561  0.84385  0.61925  1.0000
  H   H6697     1.0  0.79947  0.84040  0.60077  1.0000
  H   H6698     1.0  0.79380  0.83037  0.59792  1.0000
  H   H6699     1.0  0.78469  0.84260  0.60188  1.0000
  H   H6700     1.0  0.80684  0.82873  0.62786  1.0000
  H   H6701     1.0  0.79959  0.81213  0.60603  1.0000
  S   S1503     1.0  0.74742  0.95257  0.58489  1.0000
  C   C5595     1.0  0.83124  0.81362  0.58920  1.0000
  H   H6702     1.0  0.51118  0.86046  0.76373  1.0000
  H   H6703     1.0  0.66218  0.90973  0.68886  1.0000
  H   H6704     1.0  0.76949  0.91274  0.59072  1.0000
  H   H6705     1.0  0.82841  0.79866  0.62015  1.0000
  H   H6706     1.0  0.55946  0.90459  0.78039  1.0000
  H   H6707     1.0  0.71990  0.84773  0.60738  1.0000
  H   H6708     1.0  0.56754  0.91343  0.76998  1.0000
  H   H6709     1.0  0.71591  0.98503  0.63299  1.0000
  H   H6710     1.0  0.58879  0.89253  0.76172  1.0000
  S   S1504     1.0  0.59467  0.86330  0.76910  1.0000
  H   H6711     1.0  0.54190  0.93863  0.74245  1.0000
  C   C5596     1.0  0.77400  0.92880  0.58504  1.0000
  C   C5597     1.0  0.90013  0.75375  0.62595  1.0000
  C   C5598     1.0  0.91639  0.76648  0.61679  1.0000
  C   C5599     1.0  0.89714  0.76495  0.62084  1.0000
  C   C5600     1.0  0.90524  0.77133  0.61635  1.0000
  Fe  Fe749     1.0  0.85255  0.79007  0.59094  1.0000
  C   C5601     1.0  0.54200  0.88590  0.76869  1.0000
  C   C5602     1.0  0.68241  0.88199  0.68388  1.0000
  H   H6712     1.0  0.84950  0.75034  0.58921  1.0000
  H   H6713     1.0  0.57465  0.88583  0.75771  1.0000
  C   C5603     1.0  0.72634  0.98832  0.61169  1.0000
  C   C5604     1.0  0.85856  0.84320  0.58699  1.0000
  C   C5605     1.0  0.98174  0.74087  0.60974  1.0000
  H   H6714     1.0  0.65496  0.88707  0.72351  1.0000
  H   H6715     1.0  0.65338  0.90841  0.70693  1.0000
  C   C5606     1.0  0.92412  0.79070  0.58892  1.0000
  H   H6716     1.0  0.92270  0.77146  0.61311  1.0000
  H   H6717     1.0  0.88846  0.76869  0.62041  1.0000
  H   H6718     1.0  0.90289  0.78003  0.61244  1.0000
  H   H6719     1.0  0.60717  0.90564  0.74255  1.0000
  H   H6720     1.0  0.59122  0.90578  0.77114  1.0000
  C   C5607     1.0  0.85546  0.73996  0.60730  1.0000
  C   C5608     1.0  0.67635  0.90188  0.67855  1.0000
  N   N375      1.0  0.61882  0.90113  0.66429  1.0000
  C   C5609     1.0  0.61730  0.90870  0.67175  1.0000
  C   C5610     1.0  0.60951  0.90504  0.65834  1.0000
  C   C5611     1.0  0.61787  0.88997  0.67141  1.0000
  C   C5612     1.0  0.62964  0.90121  0.65618  1.0000
  C   C5613     1.0  0.63792  0.89136  0.65478  1.0000
  C   C5614     1.0  0.63212  0.91138  0.64930  1.0000
  C   C5615     1.0  0.64806  0.89178  0.64707  1.0000
  C   C5616     1.0  0.64231  0.91170  0.64168  1.0000
  C   C5617     1.0  0.65026  0.90192  0.64057  1.0000
  H   H6721     1.0  0.61672  0.91755  0.66738  1.0000
  H   H6722     1.0  0.60945  0.90844  0.67821  1.0000
  H   H6723     1.0  0.62438  0.90638  0.67600  1.0000
  H   H6724     1.0  0.60909  0.91375  0.65352  1.0000
  H   H6725     1.0  0.60124  0.90488  0.66423  1.0000
  H   H6726     1.0  0.61044  0.89971  0.65246  1.0000
  H   H6727     1.0  0.62453  0.88665  0.67630  1.0000
  H   H6728     1.0  0.60973  0.89026  0.67756  1.0000
  H   H6729     1.0  0.61824  0.88392  0.66646  1.0000
  H   H6730     1.0  0.63690  0.88324  0.65967  1.0000
  H   H6731     1.0  0.62627  0.91922  0.64988  1.0000
  H   H6732     1.0  0.65447  0.88425  0.64638  1.0000
  H   H6733     1.0  0.64419  0.91959  0.63677  1.0000
  H   H6734     1.0  0.65831  0.90220  0.63491  1.0000
  H   H6735     1.0  0.60066  0.97432  0.76268  1.0000
  H   H6736     1.0  0.66686  0.89309  0.71600  1.0000
  C   C5618     1.0  0.55173  0.87894  0.77178  1.0000
  H   H6737     1.0  0.65514  0.87449  0.70695  1.0000
  H   H6738     1.0  0.90389  0.73952  0.59409  1.0000
  H   H6739     1.0  0.60992  0.91750  0.74543  1.0000
  H   H6740     1.0  0.61774  0.95303  0.76919  1.0000
  H   H6741     1.0  0.68993  0.89208  0.66879  1.0000
  C   C5619     1.0  0.90736  0.78551  0.58807  1.0000
  C   C5620     1.0  0.79290  0.92875  0.58552  1.0000
  C   C5621     1.0  0.68670  0.95058  0.58420  1.0000
  H   H6742     1.0  0.90295  0.77914  0.58881  1.0000
  H   H6743     1.0  0.53965  0.92517  0.76428  1.0000
  Fe  Fe750     1.0  0.74929  0.98283  0.58426  1.0000
  H   H6744     1.0  0.85963  0.74697  0.60256  1.0000
  S   S1505     1.0  0.88129  0.77136  0.59643  1.0000
  C   C5622     1.0  0.49903  0.87127  0.74074  1.0000
  H   H6745     1.0  0.71328  0.92771  0.59433  1.0000
  H   H6746     1.0  0.59475  0.98416  0.77895  1.0000
  H   H6747     1.0  0.84983  0.84333  0.59190  1.0000
  H   H6748     1.0  0.50327  0.87153  0.77066  1.0000
  C   C5623     1.0  0.79475  0.91729  0.59007  1.0000
  H   H6749     1.0  0.99074  0.78260  0.60570  1.0000
  C   C5624     1.0  0.60826  0.96354  0.78100  1.0000
  H   H6750     1.0  0.52049  0.97105  0.73258  1.0000
  H   H6751     1.0  0.67334  0.87384  0.69900  1.0000
  H   H6752     1.0  0.71096  0.92137  0.58440  1.0000
  S   S1506     1.0  0.83600  0.80004  0.58677  1.0000
  H   H6753     1.0  0.71966  0.88221  0.60046  1.0000
  H   H6754     1.0  0.91853  0.74038  0.58967  1.0000
  C   C5625     1.0  0.91877  0.80191  0.58649  1.0000
  C   C5626     1.0  0.91947  0.75527  0.62189  1.0000
  H   H6755     1.0  0.76966  0.94735  0.60755  1.0000
  H   H6756     1.0  0.77318  0.90670  0.62087  1.0000
  H   H6757     1.0  0.75292  0.93994  0.61233  1.0000
  H   H6758     1.0  0.75256  0.91737  0.60329  1.0000
  N   N376      1.0  0.55826  0.94879  0.70971  1.0000
  C   C5627     1.0  0.56121  0.93761  0.71682  1.0000
  C   C5628     1.0  0.55650  0.94746  0.69923  1.0000
  C   C5629     1.0  0.56806  0.95403  0.70683  1.0000
  C   C5630     1.0  0.54789  0.95530  0.71556  1.0000
  C   C5631     1.0  0.53775  0.95147  0.71871  1.0000
  C   C5632     1.0  0.54756  0.96531  0.71858  1.0000
  C   C5633     1.0  0.52797  0.95719  0.72465  1.0000
  C   C5634     1.0  0.53772  0.97097  0.72452  1.0000
  C   C5635     1.0  0.56092  0.91323  0.77767  1.0000
  H   H6759     1.0  0.56253  0.93827  0.72481  1.0000
  H   H6760     1.0  0.55459  0.93280  0.71875  1.0000
  H   H6761     1.0  0.56906  0.93250  0.71276  1.0000
  H   H6762     1.0  0.55409  0.95569  0.69373  1.0000
  H   H6763     1.0  0.54979  0.94289  0.70066  1.0000
  H   H6764     1.0  0.56415  0.94258  0.69464  1.0000
  H   H6765     1.0  0.57029  0.95472  0.71439  1.0000
  H   H6766     1.0  0.57569  0.94897  0.70238  1.0000
  H   H6767     1.0  0.56653  0.96243  0.70136  1.0000
  H   H6768     1.0  0.53734  0.94386  0.71684  1.0000
  H   H6769     1.0  0.55487  0.96874  0.71690  1.0000
  C   C5636     1.0  0.73305  0.87303  0.58929  1.0000
  C   C5637     1.0  0.82082  0.80498  0.61940  1.0000
  H   H6770     1.0  0.62432  0.97314  0.78123  1.0000
  C   C5638     1.0  0.85241  0.74332  0.58527  1.0000
  C   C5639     1.0  0.69848  0.89871  0.58582  1.0000
  C   C5640     1.0  0.77599  0.91722  0.58928  1.0000
  C   C5641     1.0  0.99594  0.77638  0.60115  1.0000
  H   H6771     1.0  0.64229  0.90142  0.71395  1.0000
  C   C5642     1.0  0.52797  0.96688  0.72761  1.0000
  H   H6772     1.0  0.50005  0.89096  0.76021  1.0000
  H   H6773     1.0  0.64284  0.88328  0.71286  1.0000
  N   N377      1.0  0.73134  0.98737  0.62117  1.0000
  C   C5643     1.0  0.69656  0.94238  0.58417  1.0000
  H   H6774     1.0  0.52886  0.93377  0.77762  1.0000
  N   N378      1.0  0.75133  0.91742  0.62024  1.0000
  C   C5644     1.0  0.75068  0.90937  0.63109  1.0000
  C   C5645     1.0  0.74053  0.92569  0.62083  1.0000
  C   C5646     1.0  0.75242  0.91149  0.61147  1.0000
  C   C5647     1.0  0.76117  0.92249  0.61768  1.0000
  C   C5648     1.0  0.76060  0.93410  0.61364  1.0000
  C   C5649     1.0  0.77190  0.91566  0.61858  1.0000
  C   C5650     1.0  0.77017  0.93853  0.61090  1.0000
  C   C5651     1.0  0.78137  0.92019  0.61592  1.0000
  C   C5652     1.0  0.78051  0.93160  0.61207  1.0000
  H   H6775     1.0  0.74284  0.90615  0.63364  1.0000
  H   H6776     1.0  0.75757  0.90186  0.63093  1.0000
  H   H6777     1.0  0.75089  0.91331  0.63774  1.0000
  H   H6778     1.0  0.73948  0.93085  0.62690  1.0000
  H   H6779     1.0  0.73323  0.92161  0.62340  1.0000
  H   H6780     1.0  0.73978  0.93134  0.61265  1.0000
  H   H6781     1.0  0.76028  0.90497  0.61067  1.0000
  H   H6782     1.0  0.74529  0.90735  0.61317  1.0000
  H   H6783     1.0  0.75118  0.87941  0.59053  1.0000
  H   H6784     1.0  0.86909  0.81540  0.59137  1.0000
  H   H6785     1.0  0.56603  0.91662  0.73498  1.0000
  C   C5653     1.0  0.62271  0.97404  0.77290  1.0000
  S   S1507     1.0  0.77684  0.88264  0.58447  1.0000
  C   C5654     1.0  0.72361  0.87431  0.59818  1.0000
  C   C5655     1.0  0.56915  0.90095  0.74638  1.0000
  H   H6786     1.0  0.69583  0.93449  0.58979  1.0000
  C   C5656     1.0  0.86957  0.74819  0.64103  1.0000
  C   C5657     1.0  0.68359  0.89200  0.67641  1.0000
  H   H6787     1.0  0.56002  0.93343  0.76504  1.0000
  N   N379      1.0  0.59377  0.91381  0.75382  1.0000
  H   H6788     1.0  0.72335  0.89566  0.58511  1.0000
  H   H6789     1.0  0.58004  0.92395  0.73888  1.0000
  H   H6790     1.0  0.60060  0.91933  0.73649  1.0000
  C   C5658     1.0  0.60329  0.91412  0.74416  1.0000
  C   C5659     1.0  0.57877  0.91579  0.74353  1.0000
  C   C5660     1.0  0.57081  0.91163  0.74111  1.0000
  H   H6791     1.0  0.74716  0.97935  0.62587  1.0000
  C   C5661     1.0  0.64913  0.90209  0.70640  1.0000
  H   H6792     1.0  0.71158  0.86657  0.61114  1.0000
  H   H6793     1.0  0.81650  0.79786  0.60824  1.0000
  C   C5662     1.0  0.67391  0.88181  0.69347  1.0000
  C   C5663     1.0  0.66171  0.88738  0.71582  1.0000
  H   H6794     1.0  0.55388  0.91950  0.75900  1.0000
  H   H6795     1.0  0.68800  0.87431  0.68209  1.0000
  H   H6796     1.0  0.72823  0.98053  0.63871  1.0000
  Fe  Fe751     1.0  0.87715  0.78944  0.58848  1.0000
  C   C5664     1.0  0.78240  0.93462  0.58341  1.0000
  Fe  Fe752     1.0  0.50909  0.91499  0.73968  1.0000
  C   C5665     1.0  0.72356  0.85469  0.60239  1.0000
  H   H6797     1.0  0.85592  0.82246  0.59822  1.0000
  H   H6798     1.0  0.72553  0.97246  0.63059  1.0000
  H   H6799     1.0  0.90664  0.74007  0.64865  1.0000
  Fe  Fe753     1.0  0.57081  0.98279  0.77103  1.0000
  C   C5666     1.0  0.49861  0.87515  0.75026  1.0000
  H   H6800     1.0  0.61528  0.96918  0.75781  1.0000
  S   S1508     1.0  0.94320  0.75656  0.58715  1.0000
  H   H6801     1.0  0.62848  0.96700  0.76934  1.0000
  H   H6802     1.0  0.53781  0.97827  0.72721  1.0000
  H   H6803     1.0  0.98715  0.75448  0.61740  1.0000
  H   H6804     1.0  0.92313  0.80830  0.58590  1.0000
  H   H6805     1.0  0.52115  0.86513  0.74390  1.0000
  C   C5667     1.0  0.60917  0.97533  0.76236  1.0000
  H   H6806     1.0  0.50046  0.90154  0.72476  1.0000
  H   H6807     1.0  0.55536  0.93485  0.77925  1.0000
  N   N380      1.0  0.61087  0.97410  0.77367  1.0000
  N   N381      1.0  0.86360  0.83255  0.58326  1.0000
  C   C5668     1.0  0.74292  0.98063  0.61896  1.0000
  Fe  Fe754     1.0  0.97401  0.75920  0.58347  1.0000
  C   C5669     1.0  0.54716  0.91914  0.76664  1.0000
  C   C5670     1.0  0.86436  0.82355  0.59333  1.0000
  C   C5671     1.0  0.71659  0.92584  0.58590  1.0000
  H   H6808     1.0  0.52709  0.89801  0.77342  1.0000
  S   S1509     1.0  0.55534  0.97584  0.77453  1.0000
  Fe  Fe755     1.0  0.87033  0.76946  0.58637  1.0000
  H   H6809     1.0  0.74301  0.97218  0.61806  1.0000
  H   H6810     1.0  0.73659  0.84484  0.59223  1.0000
  H   H6811     1.0  0.54519  0.91074  0.76892  1.0000
  H   H6812     1.0  0.84626  0.74295  0.60814  1.0000
  C   C5672     1.0  0.73293  0.85310  0.59385  1.0000
  H   H6813     1.0  0.62505  0.98187  0.76754  1.0000
  C   C5673     1.0  0.99113  0.77161  0.59541  1.0000
  H   H6814     1.0  0.92240  0.77379  0.59178  1.0000
  C   C5674     1.0  0.53465  0.89265  0.77573  1.0000
  H   H6815     1.0  0.50670  0.86928  0.73480  1.0000
  C   C5675     1.0  0.73760  0.86211  0.58735  1.0000
  H   H6816     1.0  0.79945  0.93318  0.58417  1.0000
  H   H6817     1.0  0.72319  0.94335  0.58764  1.0000
  H   H6818     1.0  0.61005  0.98363  0.75700  1.0000
  C   C5676     1.0  0.60376  0.98411  0.77775  1.0000
  H   H6819     1.0  0.74805  0.98461  0.61112  1.0000
  C   C5677     1.0  0.81883  0.83192  0.58603  1.0000
  S   S1510     1.0  0.58117  0.96699  0.77916  1.0000
  H   H6820     1.0  0.86336  0.84458  0.59239  1.0000
  C   C5678     1.0  0.55418  0.87876  0.78183  1.0000
  H   H6821     1.0  0.90405  0.81364  0.58230  1.0000
  Fe  Fe756     1.0  0.57117  0.76879  0.96289  1.0000
  C   C5679     1.0  0.55122  0.84152  0.84546  1.0000
  S   S1511     1.0  0.56685  0.78670  0.95423  1.0000
  H   H6822     1.0  0.58387  0.94180  0.78388  1.0000
  H   H6823     1.0  0.61373  0.79842  0.85621  1.0000
  C   C5680     1.0  0.60664  0.79585  0.83906  1.0000
  S   S1512     1.0  0.52234  0.75635  0.89107  1.0000
  H   H6824     1.0  0.58780  0.74823  0.85532  1.0000
  S   S1513     1.0  0.60053  0.86932  0.79601  1.0000
  Fe  Fe757     1.0  0.56828  0.87842  0.80012  1.0000
  S   S1514     1.0  0.57734  0.88054  0.81183  1.0000
  S   S1515     1.0  0.54980  0.88481  0.80170  1.0000
  Fe  Fe758     1.0  0.58967  0.88633  0.79658  1.0000
  S   S1516     1.0  0.59690  0.90149  0.79252  1.0000
  Fe  Fe759     1.0  0.58726  0.86330  0.81042  1.0000
  S   S1517     1.0  0.59102  0.85206  0.82658  1.0000
  H   H6825     1.0  0.60538  0.98466  0.78565  1.0000
  S   S1518     1.0  0.57721  0.86076  0.79973  1.0000
  Fe  Fe760     1.0  0.57948  0.79638  0.86521  1.0000
  S   S1519     1.0  0.58811  0.77852  0.86535  1.0000
  S   S1520     1.0  0.57485  0.80677  0.84912  1.0000
  Fe  Fe761     1.0  0.57997  0.79412  0.88922  1.0000
  S   S1521     1.0  0.58875  0.77624  0.89142  1.0000
  S   S1522     1.0  0.57589  0.80436  0.90207  1.0000
  Fe  Fe762     1.0  0.59921  0.78126  0.87463  1.0000
  S   S1523     1.0  0.61762  0.77432  0.87024  1.0000
  Fe  Fe763     1.0  0.57694  0.77478  0.88204  1.0000
  S   S1524     1.0  0.57215  0.75825  0.88742  1.0000
  S   S1525     1.0  0.59169  0.79947  0.87311  1.0000
  S   S1526     1.0  0.56705  0.79235  0.88120  1.0000
  H   H6826     1.0  0.60486  0.78924  0.84659  1.0000
  S   S1527     1.0  0.56091  0.94636  0.79578  1.0000
  C   C5681     1.0  0.61344  0.75360  0.88152  1.0000
  C   C5682     1.0  0.62142  0.76020  0.87657  1.0000
  C   C5683     1.0  0.63267  0.75556  0.87680  1.0000
  H   H6827     1.0  0.60474  0.75712  0.88124  1.0000
  H   H6828     1.0  0.63887  0.76060  0.87302  1.0000
  C   C5684     1.0  0.58613  0.83968  0.83278  1.0000
  C   C5685     1.0  0.58144  0.83488  0.82706  1.0000
  C   C5686     1.0  0.57788  0.82486  0.83222  1.0000
  C   C5687     1.0  0.57913  0.81949  0.84305  1.0000
  C   C5688     1.0  0.58390  0.82424  0.84872  1.0000
  C   C5689     1.0  0.58734  0.83432  0.84362  1.0000
  H   H6829     1.0  0.58069  0.83880  0.81862  1.0000
  H   H6830     1.0  0.57426  0.82118  0.82776  1.0000
  H   H6831     1.0  0.58478  0.82025  0.85711  1.0000
  H   H6832     1.0  0.59098  0.83798  0.84807  1.0000
  Fe  Fe764     1.0  0.58949  0.86843  0.78545  1.0000
  C   C5690     1.0  0.53140  0.75603  0.95398  1.0000
  C   C5691     1.0  0.60925  0.74831  0.85821  1.0000
  C   C5692     1.0  0.60180  0.96292  0.79203  1.0000
  C   C5693     1.0  0.61909  0.80819  0.82822  1.0000
  C   C5694     1.0  0.58675  0.91383  0.79350  1.0000
  C   C5695     1.0  0.57597  0.91363  0.80000  1.0000
  C   C5696     1.0  0.56806  0.92365  0.80081  1.0000
  C   C5697     1.0  0.57086  0.93384  0.79497  1.0000
  C   C5698     1.0  0.52152  0.92766  0.79438  1.0000
  H   H6833     1.0  0.59785  0.92419  0.78262  1.0000
  H   H6834     1.0  0.57378  0.90579  0.80453  1.0000
  S   S1528     1.0  0.53116  0.73958  0.91887  1.0000
  H   H6835     1.0  0.56437  0.74736  0.90957  1.0000
  C   C5699     1.0  0.53642  0.75701  0.88861  1.0000
  C   C5700     1.0  0.53980  0.76717  0.88436  1.0000
  C   C5701     1.0  0.55088  0.76769  0.88373  1.0000
  C   C5702     1.0  0.55852  0.75800  0.88723  1.0000
  H   H6836     1.0  0.55963  0.76724  0.90808  1.0000
  H   H6837     1.0  0.56441  0.91489  0.78396  1.0000
  H   H6838     1.0  0.53378  0.77469  0.88200  1.0000
  H   H6839     1.0  0.55340  0.77558  0.88078  1.0000
  C   C5703     1.0  0.54673  0.88529  0.78901  1.0000
  H   H6840     1.0  0.63907  0.81427  0.80461  1.0000
  C   C5704     1.0  0.56941  0.79089  0.93965  1.0000
  C   C5705     1.0  0.57208  0.78339  0.93264  1.0000
  C   C5706     1.0  0.57395  0.78733  0.92101  1.0000
  C   C5707     1.0  0.57329  0.79873  0.91645  1.0000
  C   C5708     1.0  0.57062  0.80611  0.92352  1.0000
  C   C5709     1.0  0.56863  0.80223  0.93501  1.0000
  H   H6841     1.0  0.57264  0.77462  0.93618  1.0000
  H   H6842     1.0  0.57602  0.78158  0.91559  1.0000
  H   H6843     1.0  0.57006  0.81492  0.92007  1.0000
  H   H6844     1.0  0.56653  0.80808  0.94034  1.0000
  C   C5710     1.0  0.62891  0.74046  0.85806  1.0000
  Fe  Fe765     1.0  0.51916  0.74453  0.90754  1.0000
  C   C5711     1.0  0.62608  0.78976  0.83959  1.0000
  H   H6845     1.0  0.59901  0.75209  0.90295  1.0000
  H   H6846     1.0  0.64469  0.74096  0.88229  1.0000
  H   H6847     1.0  0.60308  0.75564  0.85581  1.0000
  C   C5712     1.0  0.59913  0.95289  0.79858  1.0000
  C   C5713     1.0  0.61287  0.82632  0.81640  1.0000
  H   H6848     1.0  0.51608  0.92020  0.81152  1.0000
  C   C5714     1.0  0.61203  0.74309  0.91800  1.0000
  S   S1529     1.0  0.55876  0.76193  0.97761  1.0000
  H   H6849     1.0  0.58666  0.75470  0.93182  1.0000
  H   H6850     1.0  0.63610  0.79982  0.82118  1.0000
  H   H6851     1.0  0.59898  0.80261  0.83947  1.0000
  H   H6852     1.0  0.56175  0.87337  0.78409  1.0000
  H   H6853     1.0  0.54359  0.75736  0.96216  1.0000
  S   S1530     1.0  0.51629  0.75428  0.94318  1.0000
  H   H6854     1.0  0.55086  0.82464  0.85448  1.0000
  C   C5715     1.0  0.55309  0.83235  0.85414  1.0000
  H   H6855     1.0  0.59969  0.75000  0.93656  1.0000
  H   H6856     1.0  0.56113  0.74030  0.89363  1.0000
  H   H6857     1.0  0.56299  0.85884  0.85273  1.0000
  C   C5716     1.0  0.62041  0.74938  0.85498  1.0000
  C   C5717     1.0  0.56034  0.76175  0.91608  1.0000
  Fe  Fe766     1.0  0.58897  0.74780  0.96561  1.0000
  H   H6858     1.0  0.53703  0.85799  0.83388  1.0000
  C   C5718     1.0  0.56313  0.75022  0.91704  1.0000
  Fe  Fe767     1.0  0.56469  0.74639  0.97091  1.0000
  C   C5719     1.0  0.55621  0.87103  0.83558  1.0000
  C   C5720     1.0  0.56163  0.84255  0.86155  1.0000
  H   H6859     1.0  0.59383  0.74048  0.93321  1.0000
  Fe  Fe768     1.0  0.51595  0.74363  0.93199  1.0000
  H   H6860     1.0  0.51339  0.93297  0.79363  1.0000
  S   S1531     1.0  0.57822  0.73925  0.98058  1.0000
  C   C5721     1.0  0.55810  0.76622  0.92538  1.0000
  H   H6861     1.0  0.55566  0.77516  0.92464  1.0000
  C   C5722     1.0  0.63596  0.74445  0.88208  1.0000
  H   H6862     1.0  0.58661  0.75709  0.91237  1.0000
  H   H6863     1.0  0.62784  0.78545  0.83267  1.0000
  C   C5723     1.0  0.61093  0.81809  0.82597  1.0000
  H   H6864     1.0  0.55453  0.87805  0.82844  1.0000
  C   C5724     1.0  0.55823  0.83288  0.86220  1.0000
  C   C5725     1.0  0.61482  0.80471  0.84827  1.0000
  C   C5726     1.0  0.54029  0.86457  0.83533  1.0000
  H   H6865     1.0  0.62443  0.83136  0.80131  1.0000
  C   C5727     1.0  0.53696  0.89224  0.78596  1.0000
  C   C5728     1.0  0.59513  0.74915  0.93066  1.0000
  H   H6866     1.0  0.56414  0.78456  0.97741  1.0000
  H   H6867     1.0  0.55607  0.85065  0.82341  1.0000
  C   C5729     1.0  0.62298  0.82493  0.80872  1.0000
  C   C5730     1.0  0.53046  0.92801  0.78520  1.0000
  H   H6868     1.0  0.60298  0.81955  0.83165  1.0000
  H   H6869     1.0  0.55182  0.87415  0.84326  1.0000
  H   H6870     1.0  0.60713  0.81143  0.84886  1.0000
  C   C5731     1.0  0.58159  0.93398  0.78834  1.0000
  H   H6871     1.0  0.56542  0.86914  0.83501  1.0000
  H   H6872     1.0  0.55667  0.76269  0.94295  1.0000
  H   H6873     1.0  0.55976  0.92351  0.80591  1.0000
  H   H6874     1.0  0.56589  0.84279  0.86770  1.0000
  N   N382      1.0  0.61679  0.79973  0.83856  1.0000
  H   H6875     1.0  0.60650  0.83388  0.81496  1.0000
  H   H6876     1.0  0.55674  0.86482  0.81740  1.0000
  C   C5732     1.0  0.56392  0.74277  0.92742  1.0000
  C   C5733     1.0  0.56159  0.74762  0.93672  1.0000
  H   H6877     1.0  0.52858  0.76493  0.95140  1.0000
  H   H6878     1.0  0.62196  0.80837  0.84788  1.0000
  H   H6879     1.0  0.63384  0.79196  0.83993  1.0000
  C   C5734     1.0  0.60297  0.94320  0.79448  1.0000
  C   C5735     1.0  0.60973  0.94342  0.78391  1.0000
  H   H6880     1.0  0.54164  0.73947  0.89484  1.0000
  H   H6881     1.0  0.61683  0.74357  0.90930  1.0000
  H   H6882     1.0  0.61760  0.74387  0.92297  1.0000
  H   H6883     1.0  0.54734  0.84060  0.83934  1.0000
  C   C5736     1.0  0.62935  0.80701  0.82022  1.0000
  H   H6884     1.0  0.60750  0.79252  0.83166  1.0000
  S   S1532     1.0  0.57585  0.75381  0.95548  1.0000
  H   H6885     1.0  0.62243  0.75731  0.85043  1.0000
  H   H6886     1.0  0.53539  0.86663  0.84340  1.0000
  H   H6887     1.0  0.62401  0.78353  0.84738  1.0000
  H   H6888     1.0  0.53842  0.87204  0.82863  1.0000
  C   C5737     1.0  0.58953  0.92401  0.78767  1.0000
  N   N383      1.0  0.60148  0.75170  0.91904  1.0000
  C   C5738     1.0  0.53987  0.75176  0.96007  1.0000
  H   H6889     1.0  0.53120  0.89737  0.79144  1.0000
  C   C5739     1.0  0.54420  0.74733  0.89173  1.0000
  C   C5740     1.0  0.60397  0.76296  0.91564  1.0000
  C   C5741     1.0  0.59951  0.77097  0.92239  1.0000
  C   C5742     1.0  0.61059  0.76641  0.90501  1.0000
  C   C5743     1.0  0.60123  0.78184  0.91848  1.0000
  C   C5744     1.0  0.61224  0.77729  0.90118  1.0000
  C   C5745     1.0  0.60745  0.78504  0.90785  1.0000
  H   H6890     1.0  0.60063  0.93551  0.79946  1.0000
  C   C5746     1.0  0.63120  0.81529  0.81062  1.0000
  S   S1533     1.0  0.60606  0.73931  0.95778  1.0000
  H   H6891     1.0  0.56160  0.74251  0.94496  1.0000
  C   C5747     1.0  0.55873  0.75917  0.93568  1.0000
  H   H6892     1.0  0.54895  0.80129  0.98089  1.0000
  H   H6893     1.0  0.58638  0.75428  0.86697  1.0000
  H   H6894     1.0  0.55989  0.82565  0.86878  1.0000
  S   S1534     1.0  0.58540  0.76350  0.97174  1.0000
  H   H6895     1.0  0.59444  0.76919  0.93063  1.0000
  H   H6896     1.0  0.61426  0.76082  0.89942  1.0000
  H   H6897     1.0  0.59738  0.78794  0.92361  1.0000
  H   H6898     1.0  0.61701  0.77978  0.89286  1.0000
  H   H6899     1.0  0.60841  0.79357  0.90475  1.0000
  H   H6900     1.0  0.59838  0.97012  0.79569  1.0000
  N   N384      1.0  0.55243  0.86113  0.83525  1.0000
  C   C5748     1.0  0.55845  0.85791  0.82459  1.0000
  C   C5749     1.0  0.55453  0.85154  0.84455  1.0000
  C   C5750     1.0  0.55988  0.85175  0.85285  1.0000
  C   C5751     1.0  0.55523  0.74781  0.89100  1.0000
  H   H6901     1.0  0.50440  0.74633  0.89484  1.0000
  H   H6902     1.0  0.56763  0.85575  0.82403  1.0000
  C   C5752     1.0  0.54120  0.92108  0.78578  1.0000
  S   S1535     1.0  0.57963  0.88584  0.78502  1.0000
  C   C5753     1.0  0.59464  0.75075  0.91180  1.0000
  C   C5754     1.0  0.53351  0.91373  0.80536  1.0000
  C   C5755     1.0  0.52674  0.74881  0.95098  1.0000
  H   H6903     1.0  0.55038  0.90858  0.79758  1.0000
  C   C5756     1.0  0.52303  0.92049  0.80444  1.0000
  H   H6904     1.0  0.59382  0.95268  0.80679  1.0000
  C   C5757     1.0  0.54252  0.91405  0.79623  1.0000
  H   H6905     1.0  0.59258  0.74240  0.91402  1.0000
  H   H6906     1.0  0.53471  0.90811  0.81316  1.0000
  H   H6907     1.0  0.50200  0.76162  0.87915  1.0000
  S   S1536     1.0  0.50418  0.74989  0.92035  1.0000
  H   H6908     1.0  0.57754  0.74538  0.86788  1.0000
  C   C5758     1.0  0.58628  0.74663  0.86450  1.0000
  C   C5759     1.0  0.54350  0.74026  0.96341  1.0000
  H   H6909     1.0  0.59295  0.74265  0.88365  1.0000
  H   H6910     1.0  0.63749  0.74144  0.85589  1.0000
  H   H6911     1.0  0.49753  0.76644  0.89626  1.0000
  C   C5760     1.0  0.61676  0.74239  0.88682  1.0000
  H   H6912     1.0  0.57330  0.79002  0.98173  1.0000
