data_image0
_chemical_formula_structural       H2CFeS2FeSFeCSCSFeSFeS2H2SCSH2CHCH5C4NC2HCH2C6H4C3HC3S2H2C2HC3HCHFeSCH2CSCHCH3CHNC9H5CH11CH3CFeHC2H2CHCH2CH2NH3CH2SHSHS2H4CHSFeS2FeS2FeSFeS2HCSHSFeH4C4HC6H4NCH3C6H6NCSCHCSC3HFeHC3HC3H7SH4CH2C2H3SH3NH2C7FeHFeH4CH2C2HC3HCHCH4NHCHC3HC2HC2H3CFeH2CH4C2H2NC3H2CHC3HSC2SFeSHCSFeHSH2C2S2H2SH2CH2CSH2CHFeC3SHC3H3C4HC2H2SC7H5FeHFeHCH2NHCH2NC6HC2H9CH4CHCHCHC3H2CN2H2SC3H4CHCHSCSC3HFeC2H2FeH2NSHFeNHCSFeS2CFeS3HFeSCHSHC2H3CHSCHFeH3NCHC6H4C2HNH4NHCH7C3H2C2H2CHC7FeHCHCHCSCHCH2CH3SH2C2H2C3H2C2HFeH5CSC2H2SCS2HFeS2FeSHFeSFeS3Fe2S2FeCS4H4CHC2HC6H4C6H4SCHSH2C6H5CHC2HCSHSC2H3SCFeH2Fe2NHCHFeCH2SCHNC9H4CHNSCH5CHSC2HCH2C3FeHCH3C5H5NH4CH6C2H3CHFeHCSH2CFeCH2C2HCHCFeSHFeS2HCH2SCH4SH3C2SH2CHCHCH3CHCHCHC3H2C2HSH2CHCNC3SH3C2HNHSH3C2HSH2SC2H2CH5CH2C3H2CSC2H2CHFeCH2C3H3C3HCNH2CHC2HC2H2FeCHCHCH2S2CFeSH3FeS2FeS2FeCFeHS3CSFeHSHCS2H2CHCSCH3CHCFeSH2C5NH2C6H4C2HCHC2HC4SC3H2C2FeH3C2HNHCNCH2CSH2FeHC3H2C5HCH2C2HCH2CFeCH2C2HSH3C3HC2H6SNH2SH3SH3CHSFeH2CH3FeSH3C7H5CHC2HCH2CH3CHSC2H4C2H3C2H4CNHCSC2NCH2SH4CHCH4CHCS2HFeSHFeSFeSFeS3CHFe2S2CFeS2C3H2SHC3H2C6H2FeH2CH5SCH4C3S2H2CHCH2CHCNC3HSC3HCHNHNC9H13FeCHSCH3NHC2SHC2H3CH3C2H2CH3C4HC3H2C3HCH2SC2HC2H3C2HCNCH5FeCH2FeCHCH2CHC2HSCHC2H2CFeS2CH2FeS2FeS2FeSFeS2HFeSHC2HC7H4C6H4C4H9C2HC2H2CHCH2SHCH2C2HC3NCHSHCH2C2H2CHCH5C3H2C3H2C3HSHNC2H3CNH2CH5C4NC3HSCH2CH2CH2CH2NCH5SCHNHFeH2CH2C2H2CFeH7C2HC2FeHFeHSFeC2FeHSFeHSH2CS2H2SHC5HC2NCH2C4H5C2H3C4HSHCH2C5HCHCHC2H3C2HCSH2CHC2H2C2H2CHCH2CSNCNCHCH2C3HSCHFeH2CHC2H3CHCSHCH3CH2C2HSCHCSH3SCH2CH3CH5CHCH2C2SFeS2FeSFeS2HCHCS2C2S2HFeHSFeCSC2H2C8H4C5H2FeCHNHC5HCH5SHC2H2FeHSCH2NHC2H2CHCSCHCFeCHFeNH4C2NC8H14CH3FeC2HC2H2CHCHFeHCHCHCH2C3HC3S2H4CH2CH3CHSHCHCHSHC
_chemical_formula_sum              "H864 C720 Fe96 S192 N48"
_cell_length_a       45.9796
_cell_length_b       46.2792
_cell_length_c       60.1256
_cell_angle_alpha    88.2681
_cell_angle_beta     88.4743
_cell_angle_gamma    84.425

_space_group_name_H-M_alt    "P 1"
_space_group_IT_number       1

loop_
  _space_group_symop_operation_xyz
  'x, y, z'

loop_
  _atom_site_type_symbol
  _atom_site_label
  _atom_site_symmetry_multiplicity
  _atom_site_fract_x
  _atom_site_fract_y
  _atom_site_fract_z
  _atom_site_occupancy
  H   H1        1.0  0.24292  0.99747  0.03966  1.0000
  H   H2        1.0  0.32162  0.17699  0.24417  1.0000
  C   C1        1.0  0.99639  0.47324  0.15876  1.0000
  Fe  Fe1       1.0  0.32239  0.02881  0.12936  1.0000
  S   S1        1.0  0.27923  0.04490  0.14516  1.0000
  S   S2        1.0  0.34329  0.05923  0.10551  1.0000
  Fe  Fe2       1.0  0.29732  0.02137  0.17578  1.0000
  S   S3        1.0  0.29441  0.03550  0.21163  1.0000
  Fe  Fe3       1.0  0.26477  0.00213  0.13496  1.0000
  C   C2        1.0  0.03595  0.46663  0.13168  1.0000
  S   S4        1.0  0.34174  0.00869  0.16071  1.0000
  C   C3        1.0  0.26405  0.18805  0.28016  1.0000
  S   S5        1.0  0.47992  0.04888  0.08860  1.0000
  Fe  Fe4       1.0  0.44999  0.10051  0.29352  1.0000
  S   S6        1.0  0.40830  0.08139  0.28674  1.0000
  Fe  Fe5       1.0  0.39164  0.12664  0.27670  1.0000
  S   S7        1.0  0.36947  0.13394  0.24362  1.0000
  S   S8        1.0  0.43432  0.14531  0.28121  1.0000
  H   H3        1.0  0.47286  0.04181  0.20054  1.0000
  H   H4        1.0  0.40094  0.10471  0.12953  1.0000
  S   S9        1.0  0.27872  0.97979  0.16751  1.0000
  C   C4        1.0  0.23322  0.99899  0.07497  1.0000
  S   S10       1.0  0.09882  0.00498  0.00592  1.0000
  H   H5        1.0  0.28395  0.17625  0.24053  1.0000
  H   H6        1.0  0.00475  0.45890  0.21251  1.0000
  C   C5        1.0  0.00475  0.43653  0.21808  1.0000
  H   H7        1.0  0.36387  0.07861  0.14998  1.0000
  C   C6        1.0  0.03484  0.43373  0.16366  1.0000
  H   H8        1.0  0.38663  0.21257  0.28969  1.0000
  H   H9        1.0  0.04062  0.38764  0.25343  1.0000
  H   H10       1.0  0.38650  0.01538  0.05212  1.0000
  H   H11       1.0  0.01001  0.19674  0.05054  1.0000
  H   H12       1.0  0.44999  0.10649  0.14521  1.0000
  C   C7        1.0  0.44216  0.05169  0.09429  1.0000
  C   C8        1.0  0.38137  0.05564  0.10160  1.0000
  C   C9        1.0  0.39969  0.03724  0.11523  1.0000
  C   C10       1.0  0.43017  0.03556  0.11174  1.0000
  N   N1        1.0  0.29566  0.18082  0.27488  1.0000
  C   C11       1.0  0.36369  0.21267  0.29450  1.0000
  C   C12       1.0  0.39350  0.07202  0.08443  1.0000
  H   H13       1.0  0.39037  0.02455  0.12848  1.0000
  C   C13       1.0  0.19642  0.99925  0.04605  1.0000
  H   H14       1.0  0.43294  0.08226  0.06712  1.0000
  H   H15       1.0  0.37938  0.08625  0.07388  1.0000
  C   C14       1.0  0.31547  0.06291  0.22013  1.0000
  C   C15       1.0  0.32555  0.08333  0.20492  1.0000
  C   C16       1.0  0.34201  0.10513  0.21229  1.0000
  C   C17       1.0  0.34895  0.10630  0.23481  1.0000
  C   C18       1.0  0.33907  0.08574  0.25001  1.0000
  C   C19       1.0  0.32202  0.06440  0.24273  1.0000
  H   H16       1.0  0.32034  0.08256  0.18750  1.0000
  H   H17       1.0  0.34959  0.12098  0.20044  1.0000
  H   H18       1.0  0.34414  0.08654  0.26743  1.0000
  H   H19       1.0  0.31395  0.04898  0.25467  1.0000
  C   C20       1.0  0.02460  0.42557  0.23426  1.0000
  C   C21       1.0  0.21139  0.99977  0.09167  1.0000
  C   C22       1.0  0.02026  0.41118  0.15472  1.0000
  H   H20       1.0  0.99647  0.08863  0.01953  1.0000
  C   C23       1.0  0.02889  0.07903  0.99346  1.0000
  C   C24       1.0  0.17451  0.00098  0.06271  1.0000
  C   C25       1.0  0.18200  0.00092  0.08537  1.0000
  S   S11       1.0  0.30697  0.98764  0.11735  1.0000
  S   S12       1.0  0.18874  0.99650  0.01729  1.0000
  H   H21       1.0  0.15185  0.00230  0.05821  1.0000
  H   H22       1.0  0.35431  0.18760  0.26720  1.0000
  C   C26       1.0  0.39467  0.00007  0.06501  1.0000
  C   C27       1.0  0.02560  0.38240  0.16245  1.0000
  H   H23       1.0  0.99773  0.24578  0.05685  1.0000
  C   C28       1.0  0.00645  0.37819  0.23158  1.0000
  C   C29       1.0  0.42378  0.06983  0.08064  1.0000
  C   C30       1.0  0.02502  0.39644  0.24124  1.0000
  H   H24       1.0  0.33550  0.00037  0.24115  1.0000
  C   C31       1.0  0.00441  0.09504  0.00320  1.0000
  H   H25       1.0  0.25783  0.21185  0.27829  1.0000
  Fe  Fe6       1.0  0.14690  0.99506  0.99761  1.0000
  S   S13       1.0  0.05281  0.44629  0.24197  1.0000
  C   C32       1.0  0.06088  0.39660  0.18787  1.0000
  H   H26       1.0  0.24998  0.17698  0.26897  1.0000
  H   H27       1.0  0.01345  0.36569  0.15601  1.0000
  C   C33       1.0  0.30535  0.21097  0.30819  1.0000
  S   S14       1.0  0.21980  0.99778  0.12051  1.0000
  C   C34       1.0  0.30000  0.18644  0.25058  1.0000
  H   H28       1.0  0.07584  0.39110  0.20135  1.0000
  C   C35       1.0  0.30294  0.14946  0.27985  1.0000
  H   H29       1.0  0.29803  0.21015  0.24647  1.0000
  H   H30       1.0  0.03973  0.06049  0.00229  1.0000
  H   H31       1.0  0.00421  0.41569  0.14195  1.0000
  C   C36       1.0  0.99026  0.11935  0.99199  1.0000
  H   H32       1.0  0.43967  0.06549  0.24135  1.0000
  N   N2        1.0  0.42711  0.05233  0.20904  1.0000
  C   C37       1.0  0.40348  0.03633  0.21938  1.0000
  C   C38       1.0  0.45337  0.03126  0.20658  1.0000
  C   C39       1.0  0.43349  0.07492  0.22468  1.0000
  C   C40       1.0  0.41959  0.06626  0.18716  1.0000
  C   C41       1.0  0.39184  0.06534  0.17748  1.0000
  C   C42       1.0  0.44028  0.08180  0.17499  1.0000
  C   C43       1.0  0.38519  0.07957  0.15714  1.0000
  C   C44       1.0  0.43362  0.09535  0.15441  1.0000
  C   C45       1.0  0.40605  0.09442  0.14559  1.0000
  H   H33       1.0  0.40999  0.02614  0.23576  1.0000
  H   H34       1.0  0.38337  0.05115  0.22264  1.0000
  H   H35       1.0  0.39792  0.01857  0.20864  1.0000
  H   H36       1.0  0.44972  0.01424  0.19453  1.0000
  H   H37       1.0  0.44428  0.02122  0.12210  1.0000
  C   C46       1.0  0.34481  0.19855  0.28165  1.0000
  H   H38       1.0  0.45953  0.02024  0.22273  1.0000
  H   H39       1.0  0.28174  0.00454  0.25375  1.0000
  H   H40       1.0  0.45187  0.08709  0.21863  1.0000
  H   H41       1.0  0.37478  0.05388  0.18526  1.0000
  H   H42       1.0  0.46190  0.08349  0.18122  1.0000
  H   H43       1.0  0.04883  0.35304  0.18565  1.0000
  H   H44       1.0  0.06778  0.44090  0.18842  1.0000
  H   H45       1.0  0.41426  0.09120  0.22698  1.0000
  H   H46       1.0  0.29001  0.13571  0.26978  1.0000
  H   H47       1.0  0.25800  0.18063  0.29729  1.0000
  H   H48       1.0  0.00750  0.35551  0.23672  1.0000
  C   C47       1.0  0.04568  0.37517  0.17910  1.0000
  H   H49       1.0  0.27564  0.98095  0.23210  1.0000
  H   H50       1.0  0.25590  0.99821  0.07949  1.0000
  H   H51       1.0  0.32635  0.14267  0.27617  1.0000
  C   C48       1.0  0.31491  0.19746  0.28796  1.0000
  Fe  Fe7       1.0  0.04592  0.47211  0.27338  1.0000
  H   H52       1.0  0.44780  0.03800  0.30848  1.0000
  C   C49       1.0  0.42465  0.99329  0.06724  1.0000
  C   C50       1.0  0.22576  0.99858  0.05235  1.0000
  H   H53       1.0  0.31973  0.99492  0.27930  1.0000
  H   H54       1.0  0.99262  0.16536  0.04404  1.0000
  C   C51       1.0  0.05580  0.42545  0.18027  1.0000
  H   H55       1.0  0.29914  0.14401  0.29780  1.0000
  C   C52       1.0  0.28218  0.98115  0.24978  1.0000
  H   H56       1.0  0.16492  0.00170  0.09812  1.0000
  H   H57       1.0  0.43975  0.00350  0.05607  1.0000
  C   C53       1.0  0.37522  0.98820  0.08000  1.0000
  H   H58       1.0  0.05931  0.45882  0.12853  1.0000
  H   H59       1.0  0.02261  0.45358  0.12137  1.0000
  N   N3        1.0  0.02810  0.46421  0.15569  1.0000
  H   H60       1.0  0.44110  0.98748  0.30603  1.0000
  H   H61       1.0  0.35194  0.99436  0.07863  1.0000
  H   H62       1.0  0.99826  0.17331  0.07267  1.0000
  C   C54       1.0  0.99232  0.18326  0.05612  1.0000
  H   H63       1.0  0.99696  0.28501  0.08319  1.0000
  H   H64       1.0  0.48600  0.00846  0.29125  1.0000
  S   S15       1.0  0.04914  0.45513  0.30872  1.0000
  H   H65       1.0  0.98924  0.47027  0.17638  1.0000
  S   S16       1.0  0.38697  0.11034  0.62303  1.0000
  H   H66       1.0  0.41403  0.08593  0.53236  1.0000
  S   S17       1.0  0.45369  0.05349  0.61106  1.0000
  S   S18       1.0  0.09204  0.46344  0.60389  1.0000
  H   H67       1.0  0.43614  0.11038  0.58583  1.0000
  H   H68       1.0  0.42394  0.43799  0.43673  1.0000
  H   H69       1.0  0.12980  0.44226  0.41042  1.0000
  H   H70       1.0  0.43553  0.38911  0.47157  1.0000
  C   C55       1.0  0.16167  0.41577  0.35355  1.0000
  H   H71       1.0  0.16781  0.46033  0.42922  1.0000
  S   S19       1.0  0.24759  0.42265  0.46587  1.0000
  Fe  Fe8       1.0  0.44467  0.28233  0.50003  1.0000
  S   S20       1.0  0.46880  0.27171  0.46784  1.0000
  S   S21       1.0  0.46098  0.25938  0.53196  1.0000
  Fe  Fe9       1.0  0.40481  0.33122  0.47767  1.0000
  S   S22       1.0  0.42519  0.32303  0.44375  1.0000
  S   S23       1.0  0.37806  0.37314  0.48707  1.0000
  Fe  Fe10      1.0  0.42431  0.27532  0.45272  1.0000
  S   S24       1.0  0.41417  0.23584  0.43313  1.0000
  Fe  Fe11      1.0  0.46801  0.31998  0.46153  1.0000
  S   S25       1.0  0.40003  0.28386  0.48563  1.0000
  S   S26       1.0  0.44780  0.33022  0.49485  1.0000
  H   H72       1.0  0.47649  0.22794  0.57232  1.0000
  C   C56       1.0  0.40035  0.03139  0.61016  1.0000
  S   S27       1.0  0.42474  0.19777  0.33138  1.0000
  H   H73       1.0  0.21521  0.38440  0.40281  1.0000
  S   S28       1.0  0.37216  0.06684  0.34607  1.0000
  Fe  Fe12      1.0  0.22994  0.46947  0.47243  1.0000
  H   H74       1.0  0.46506  0.26966  0.41665  1.0000
  H   H75       1.0  0.09828  0.44194  0.37889  1.0000
  H   H76       1.0  0.32337  0.37282  0.55285  1.0000
  H   H77       1.0  0.36823  0.27469  0.59638  1.0000
  C   C57       1.0  0.29648  0.32475  0.54657  1.0000
  C   C58       1.0  0.36511  0.03147  0.33947  1.0000
  C   C59       1.0  0.34523  0.01752  0.35301  1.0000
  C   C60       1.0  0.40845  0.20611  0.58173  1.0000
  H   H78       1.0  0.33412  0.02888  0.36675  1.0000
  C   C61       1.0  0.41577  0.22627  0.40455  1.0000
  C   C62       1.0  0.41270  0.19732  0.39919  1.0000
  C   C63       1.0  0.41474  0.18835  0.37690  1.0000
  C   C64       1.0  0.42004  0.20825  0.35964  1.0000
  C   C65       1.0  0.42255  0.23733  0.36494  1.0000
  C   C66       1.0  0.42020  0.24636  0.38721  1.0000
  H   H79       1.0  0.40894  0.18162  0.41239  1.0000
  H   H80       1.0  0.41263  0.16595  0.37313  1.0000
  H   H81       1.0  0.42648  0.25296  0.35172  1.0000
  H   H82       1.0  0.42157  0.26885  0.39092  1.0000
  N   N4        1.0  0.19054  0.42483  0.41148  1.0000
  C   C67       1.0  0.41596  0.16074  0.49554  1.0000
  H   H83       1.0  0.39074  0.05353  0.60938  1.0000
  H   H84       1.0  0.38535  0.14995  0.56437  1.0000
  H   H85       1.0  0.37218  0.21686  0.56002  1.0000
  C   C68       1.0  0.34224  0.38677  0.47976  1.0000
  C   C69       1.0  0.32388  0.37031  0.46832  1.0000
  C   C70       1.0  0.29491  0.38161  0.46412  1.0000
  C   C71       1.0  0.28428  0.40953  0.47101  1.0000
  C   C72       1.0  0.30282  0.42606  0.48220  1.0000
  C   C73       1.0  0.33161  0.41463  0.48666  1.0000
  H   H86       1.0  0.33186  0.34885  0.46289  1.0000
  H   H87       1.0  0.28068  0.36872  0.45543  1.0000
  H   H88       1.0  0.29486  0.44755  0.48761  1.0000
  H   H89       1.0  0.34562  0.42749  0.49560  1.0000
  H   H90       1.0  0.47759  0.18080  0.38780  1.0000
  H   H91       1.0  0.38651  0.11304  0.57460  1.0000
  N   N5        1.0  0.43673  0.43574  0.47094  1.0000
  C   C74       1.0  0.41092  0.23491  0.54699  1.0000
  S   S29       1.0  0.43834  0.11007  0.32937  1.0000
  C   C75       1.0  0.39504  0.21901  0.56264  1.0000
  H   H92       1.0  0.16266  0.46696  0.54106  1.0000
  C   C76       1.0  0.32535  0.36347  0.53597  1.0000
  S   S30       1.0  0.38723  0.18717  0.60126  1.0000
  C   C77       1.0  0.37936  0.01670  0.32165  1.0000
  C   C78       1.0  0.43075  0.02527  0.61059  1.0000
  C   C79       1.0  0.45145  0.40574  0.46982  1.0000
  H   H93       1.0  0.19265  0.43732  0.44567  1.0000
  Fe  Fe13      1.0  0.41862  0.15366  0.31669  1.0000
  H   H94       1.0  0.15884  0.42468  0.43870  1.0000
  C   C80       1.0  0.39124  0.12693  0.55977  1.0000
  C   C81       1.0  0.41192  0.14145  0.51349  1.0000
  C   C82       1.0  0.32820  0.32006  0.51437  1.0000
  H   H95       1.0  0.44854  0.19943  0.59965  1.0000
  C   C83       1.0  0.43800  0.20907  0.58496  1.0000
  C   C84       1.0  0.45377  0.22531  0.56947  1.0000
  C   C85       1.0  0.44030  0.23847  0.55051  1.0000
  H   H96       1.0  0.43926  0.03553  0.33757  1.0000
  H   H97       1.0  0.47348  0.03705  0.36476  1.0000
  H   H98       1.0  0.21737  0.39365  0.43130  1.0000
  H   H99       1.0  0.30938  0.32856  0.50398  1.0000
  H   H100      1.0  0.34563  0.37055  0.52802  1.0000
  H   H101      1.0  0.38397  0.33594  0.52891  1.0000
  H   H102      1.0  0.39918  0.42089  0.45545  1.0000
  S   S31       1.0  0.45076  0.13404  0.63199  1.0000
  H   H103      1.0  0.41805  0.28415  0.58388  1.0000
  H   H104      1.0  0.29435  0.30097  0.54700  1.0000
  H   H105      1.0  0.43570  0.14809  0.57892  1.0000
  H   H106      1.0  0.46325  0.40199  0.45358  1.0000
  C   C86       1.0  0.13972  0.43399  0.39512  1.0000
  H   H107      1.0  0.36859  0.23600  0.32431  1.0000
  H   H108      1.0  0.22892  0.43260  0.39117  1.0000
  C   C87       1.0  0.43600  0.18130  0.49678  1.0000
  C   C88       1.0  0.17010  0.42491  0.39283  1.0000
  H   H109      1.0  0.48398  0.22091  0.41186  1.0000
  H   H110      1.0  0.11783  0.42658  0.34216  1.0000
  H   H111      1.0  0.27824  0.33510  0.53633  1.0000
  S   S32       1.0  0.18270  0.47798  0.48342  1.0000
  H   H112      1.0  0.40031  0.24489  0.53245  1.0000
  H   H113      1.0  0.17011  0.40941  0.33723  1.0000
  H   H114      1.0  0.46426  0.12232  0.56787  1.0000
  N   N6        1.0  0.32542  0.33137  0.53724  1.0000
  H   H115      1.0  0.30702  0.37390  0.52585  1.0000
  H   H116      1.0  0.46718  0.40086  0.48349  1.0000
  C   C89       1.0  0.21524  0.44205  0.40511  1.0000
  C   C90       1.0  0.35042  0.31853  0.55050  1.0000
  C   C91       1.0  0.34696  0.30078  0.56997  1.0000
  C   C92       1.0  0.37949  0.32319  0.54376  1.0000
  C   C93       1.0  0.37117  0.28877  0.58188  1.0000
  C   C94       1.0  0.40349  0.31110  0.55581  1.0000
  C   C95       1.0  0.39932  0.29407  0.57490  1.0000
  Fe  Fe14      1.0  0.39518  0.09451  0.32130  1.0000
  H   H117      1.0  0.43562  0.98250  0.33564  1.0000
  Fe  Fe15      1.0  0.40441  0.15344  0.62741  1.0000
  H   H118      1.0  0.46636  0.99136  0.61115  1.0000
  H   H119      1.0  0.32956  0.29589  0.51465  1.0000
  H   H120      1.0  0.34808  0.32644  0.50538  1.0000
  H   H121      1.0  0.32587  0.29552  0.57628  1.0000
  C   C96       1.0  0.45224  0.18248  0.51590  1.0000
  H   H122      1.0  0.40871  0.45999  0.49472  1.0000
  H   H123      1.0  0.39598  0.12604  0.51176  1.0000
  C   C97       1.0  0.30431  0.99363  0.63935  1.0000
  C   C98       1.0  0.17669  0.43732  0.43210  1.0000
  H   H124      1.0  0.43884  0.43755  0.50654  1.0000
  C   C99       1.0  0.13143  0.46580  0.56864  1.0000
  C   C100      1.0  0.13215  0.42517  0.35630  1.0000
  C   C101      1.0  0.44049  0.12607  0.57200  1.0000
  H   H125      1.0  0.39931  0.45919  0.45500  1.0000
  C   C102      1.0  0.48576  0.01594  0.36568  1.0000
  H   H126      1.0  0.29267  0.33315  0.56367  1.0000
  C   C103      1.0  0.42235  0.43891  0.49322  1.0000
  H   H127      1.0  0.20715  0.46465  0.39998  1.0000
  H   H128      1.0  0.18447  0.38080  0.42142  1.0000
  H   H129      1.0  0.20310  0.40786  0.36856  1.0000
  H   H130      1.0  0.46761  0.19876  0.51688  1.0000
  N   N7        1.0  0.42235  0.12225  0.55240  1.0000
  H   H131      1.0  0.46091  0.16634  0.54852  1.0000
  C   C104      1.0  0.42878  0.09172  0.54550  1.0000
  H   H132      1.0  0.31132  0.01496  0.63337  1.0000
  C   C105      1.0  0.42774  0.14238  0.53341  1.0000
  C   C106      1.0  0.44817  0.16351  0.53405  1.0000
  C   C107      1.0  0.18039  0.41533  0.37155  1.0000
  H   H133      1.0  0.23034  0.44334  0.41918  1.0000
  C   C108      1.0  0.38219  0.00874  0.61005  1.0000
  C   C109      1.0  0.44289  0.99634  0.61106  1.0000
  H   H134      1.0  0.12929  0.44284  0.56737  1.0000
  C   C110      1.0  0.45698  0.45860  0.46747  1.0000
  C   C111      1.0  0.20240  0.39458  0.41693  1.0000
  H   H135      1.0  0.28041  0.99395  0.63670  1.0000
  H   H136      1.0  0.42555  0.31429  0.55005  1.0000
  H   H137      1.0  0.46568  0.29264  0.39213  1.0000
  C   C112      1.0  0.12115  0.43386  0.37708  1.0000
  Fe  Fe16      1.0  0.43225  0.09110  0.63004  1.0000
  H   H138      1.0  0.43877  0.19655  0.48298  1.0000
  H   H139      1.0  0.40757  0.42160  0.49688  1.0000
  C   C113      1.0  0.37423  0.98776  0.31783  1.0000
  H   H140      1.0  0.37599  0.12189  0.54676  1.0000
  H   H141      1.0  0.47892  0.30435  0.41782  1.0000
  H   H142      1.0  0.42617  0.07604  0.55975  1.0000
  H   H143      1.0  0.45168  0.08773  0.53901  1.0000
  C   C114      1.0  0.45760  0.03323  0.32505  1.0000
  C   C115      1.0  0.41389  0.43869  0.45378  1.0000
  H   H144      1.0  0.40332  0.16002  0.48062  1.0000
  H   H145      1.0  0.35876  0.01366  0.60934  1.0000
  N   N8        1.0  0.47374  0.00387  0.32605  1.0000
  C   C116      1.0  0.48826  0.19922  0.38120  1.0000
  C   C117      1.0  0.33947  0.98906  0.34882  1.0000
  C   C118      1.0  0.39430  0.97983  0.61101  1.0000
  H   H146      1.0  0.31696  0.23480  0.33646  1.0000
  H   H147      1.0  0.39456  0.02738  0.31104  1.0000
  C   C119      1.0  0.47809  0.28520  0.40723  1.0000
  H   H148      1.0  0.47246  0.05045  0.32742  1.0000
  C   C120      1.0  0.45250  0.98260  0.32202  1.0000
  C   C121      1.0  0.35358  0.22580  0.31412  1.0000
  C   C122      1.0  0.32449  0.22498  0.32094  1.0000
  H   H149      1.0  0.28334  0.21060  0.31475  1.0000
  S   S33       1.0  0.37433  0.13862  0.31091  1.0000
  C   C123      1.0  0.48803  0.99670  0.34756  1.0000
  C   C124      1.0  0.48786  0.45229  0.46591  1.0000
  S   S34       1.0  0.42411  0.08561  0.66667  1.0000
  Fe  Fe17      1.0  0.37984  0.10832  0.65995  1.0000
  S   S35       1.0  0.34019  0.08835  0.67407  1.0000
  H   H150      1.0  0.26070  0.01080  0.97255  1.0000
  C   C125      1.0  0.43395  0.11416  0.80947  1.0000
  S   S36       1.0  0.23422  0.03182  0.85045  1.0000
  Fe  Fe18      1.0  0.31529  0.03601  0.79278  1.0000
  H   H151      1.0  0.41816  0.15478  0.77828  1.0000
  S   S37       1.0  0.34150  0.07160  0.77888  1.0000
  H   H152      1.0  0.99801  0.45086  0.79512  1.0000
  H   H153      1.0  0.07218  0.40250  0.75274  1.0000
  C   C126      1.0  0.17931  0.98024  0.89962  1.0000
  C   C127      1.0  0.06276  0.42434  0.74861  1.0000
  S   S38       1.0  0.26899  0.02649  0.78754  1.0000
  S   S39       1.0  0.31164  0.02840  0.82965  1.0000
  H   H154      1.0  0.03353  0.11845  0.94511  1.0000
  H   H155      1.0  0.99009  0.14623  0.96215  1.0000
  S   S40       1.0  0.46683  0.14068  0.69636  1.0000
  H   H156      1.0  0.39908  0.04001  0.75270  1.0000
  H   H157      1.0  0.16433  0.10368  0.83932  1.0000
  C   C128      1.0  0.39506  0.02020  0.70951  1.0000
  H   H158      1.0  0.26987  0.98004  0.87383  1.0000
  H   H159      1.0  0.15745  0.01223  0.83782  1.0000
  C   C129      1.0  0.15182  0.03290  0.84565  1.0000
  S   S41       1.0  0.39291  0.15330  0.66423  1.0000
  H   H160      1.0  0.39176  0.01602  0.77546  1.0000
  H   H161      1.0  0.41110  0.11066  0.81472  1.0000
  C   C130      1.0  0.29848  0.01284  0.67595  1.0000
  H   H162      1.0  0.01985  0.42316  0.69334  1.0000
  Fe  Fe19      1.0  0.43809  0.13033  0.66841  1.0000
  C   C131      1.0  0.39675  0.02222  0.68627  1.0000
  C   C132      1.0  0.20809  0.98272  0.86487  1.0000
  C   C133      1.0  0.47542  0.13919  0.76256  1.0000
  S   S42       1.0  0.47067  0.04028  0.83241  1.0000
  H   H163      1.0  0.38099  0.03687  0.71763  1.0000
  C   C134      1.0  0.16219  0.05789  0.83626  1.0000
  C   C135      1.0  0.44191  0.01804  0.83496  1.0000
  C   C136      1.0  0.41443  0.02823  0.82697  1.0000
  H   H164      1.0  0.44820  0.06495  0.78813  1.0000
  H   H165      1.0  0.41715  0.13001  0.75566  1.0000
  H   H166      1.0  0.41092  0.04973  0.81945  1.0000
  C   C137      1.0  0.02348  0.46372  0.75374  1.0000
  C   C138      1.0  0.21449  0.01080  0.86958  1.0000
  C   C139      1.0  0.20392  0.02317  0.88965  1.0000
  C   C140      1.0  0.18680  0.00778  0.90475  1.0000
  H   H167      1.0  0.41500  0.00301  0.65624  1.0000
  C   C141      1.0  0.41595  0.13184  0.77411  1.0000
  C   C142      1.0  0.46892  0.11745  0.77870  1.0000
  H   H168      1.0  0.20891  0.04481  0.89348  1.0000
  H   H169      1.0  0.17936  0.01719  0.92036  1.0000
  S   S43       1.0  0.08633  0.98582  0.95456  1.0000
  C   C143      1.0  0.27846  0.00195  0.93951  1.0000
  C   C144      1.0  0.34005  0.07710  0.74984  1.0000
  C   C145      1.0  0.36111  0.09258  0.73880  1.0000
  C   C146      1.0  0.36114  0.09634  0.71556  1.0000
  C   C147      1.0  0.33975  0.08496  0.70326  1.0000
  C   C148      1.0  0.31844  0.06978  0.71431  1.0000
  C   C149      1.0  0.31884  0.06545  0.73753  1.0000
  H   H170      1.0  0.37760  0.10141  0.74819  1.0000
  H   H171      1.0  0.37764  0.10813  0.70715  1.0000
  H   H172      1.0  0.30145  0.06157  0.70497  1.0000
  H   H173      1.0  0.30242  0.05358  0.74594  1.0000
  H   H174      1.0  0.45889  0.08826  0.72280  1.0000
  Fe  Fe20      1.0  0.26725  0.01400  0.82422  1.0000
  H   H175      1.0  0.12930  0.01360  0.87235  1.0000
  Fe  Fe21      1.0  0.32824  0.98268  0.82252  1.0000
  H   H176      1.0  0.27124  0.02955  0.88852  1.0000
  C   C150      1.0  0.02537  0.11172  0.96129  1.0000
  H   H177      1.0  0.09642  0.43230  0.72423  1.0000
  H   H178      1.0  0.35218  0.00637  0.65969  1.0000
  N   N9        1.0  0.31125  0.98757  0.66309  1.0000
  H   H179      1.0  0.29519  0.01649  0.94139  1.0000
  C   C151      1.0  0.25888  0.99887  0.95746  1.0000
  H   H180      1.0  0.30349  0.00996  0.69396  1.0000
  H   H181      1.0  0.30015  0.03674  0.90635  1.0000
  N   N10       1.0  0.11280  0.06277  0.89839  1.0000
  C   C152      1.0  0.10474  0.03431  0.90741  1.0000
  C   C153      1.0  0.13083  0.07513  0.91519  1.0000
  C   C154      1.0  0.08535  0.08209  0.89574  1.0000
  C   C155      1.0  0.12912  0.06070  0.87683  1.0000
  C   C156      1.0  0.13561  0.03407  0.86567  1.0000
  C   C157      1.0  0.13943  0.08588  0.86649  1.0000
  H   H182      1.0  0.43856  0.13597  0.81497  1.0000
  C   C158      1.0  0.43382  0.08166  0.77887  1.0000
  C   C159      1.0  0.44048  0.99561  0.75444  1.0000
  H   H183      1.0  0.12440  0.01895  0.91066  1.0000
  H   H184      1.0  0.09247  0.03657  0.92353  1.0000
  H   H185      1.0  0.09031  0.02410  0.89602  1.0000
  H   H186      1.0  0.15262  0.06259  0.91643  1.0000
  H   H187      1.0  0.12031  0.07491  0.93208  1.0000
  H   H188      1.0  0.13448  0.09812  0.91132  1.0000
  H   H189      1.0  0.07144  0.07390  0.88291  1.0000
  H   H190      1.0  0.07226  0.08362  0.91164  1.0000
  H   H191      1.0  0.08947  0.10466  0.89075  1.0000
  C   C160      1.0  0.00202  0.39986  0.72150  1.0000
  H   H192      1.0  0.13529  0.10687  0.87396  1.0000
  H   H193      1.0  0.17582  0.05656  0.82126  1.0000
  H   H194      1.0  0.02301  0.38939  0.72644  1.0000
  H   H195      1.0  0.44081  0.99423  0.77300  1.0000
  C   C161      1.0  0.15589  0.08437  0.84659  1.0000
  H   H196      1.0  0.34955  0.98118  0.68310  1.0000
  C   C162      1.0  0.29411  0.02221  0.89323  1.0000
  H   H197      1.0  0.39343  0.12720  0.77953  1.0000
  C   C163      1.0  0.34338  0.98579  0.66547  1.0000
  H   H198      1.0  0.41087  0.07684  0.78262  1.0000
  C   C164      1.0  0.39138  0.01056  0.82855  1.0000
  C   C165      1.0  0.00073  0.12752  0.97091  1.0000
  C   C166      1.0  0.32734  0.98281  0.90746  1.0000
  H   H199      1.0  0.45873  0.15243  0.75358  1.0000
  H   H200      1.0  0.30849  0.02616  0.87849  1.0000
  C   C167      1.0  0.03668  0.43537  0.75913  1.0000
  N   N11       1.0  0.43864  0.11158  0.78506  1.0000
  N   N12       1.0  0.41058  0.99468  0.74611  1.0000
  H   H201      1.0  0.38433  0.03996  0.67750  1.0000
  H   H202      1.0  0.02705  0.42096  0.77108  1.0000
  S   S44       1.0  0.14388  0.02011  0.96481  1.0000
  C   C168      1.0  0.44621  0.99014  0.84471  1.0000
  C   C169      1.0  0.39169  0.01831  0.75694  1.0000
  C   C170      1.0  0.41402  0.00147  0.67427  1.0000
  H   H203      1.0  0.43836  0.07853  0.76079  1.0000
  H   H204      1.0  0.36853  0.01847  0.75198  1.0000
  H   H205      1.0  0.27436  0.01649  0.67419  1.0000
  H   H206      1.0  0.37063  0.01849  0.82177  1.0000
  C   C171      1.0  0.23665  0.98066  0.95605  1.0000
  H   H207      1.0  0.30750  0.03338  0.67013  1.0000
  C   C172      1.0  0.41111  0.99727  0.72149  1.0000
  H   H208      1.0  0.44975  0.01599  0.74878  1.0000
  S   S45       1.0  0.05187  0.47427  0.66410  1.0000
  C   C173      1.0  0.07638  0.44101  0.73251  1.0000
  S   S46       1.0  0.33491  0.99091  0.78613  1.0000
  C   C174      1.0  0.06408  0.46888  0.72693  1.0000
  C   C175      1.0  0.39520  0.98312  0.83909  1.0000
  C   C176      1.0  0.03959  0.08747  0.97251  1.0000
  H   H209      1.0  0.46745  0.98213  0.85090  1.0000
  Fe  Fe22      1.0  0.09526  0.02639  0.97186  1.0000
  C   C177      1.0  0.00026  0.41899  0.70279  1.0000
  C   C178      1.0  0.48206  0.09008  0.72066  1.0000
  H   H210      1.0  0.46995  0.02706  0.69440  1.0000
  H   H211      1.0  0.48437  0.98758  0.65640  1.0000
  Fe  Fe23      1.0  0.28895  0.98046  0.78326  1.0000
  H   H212      1.0  0.44817  0.09776  0.81909  1.0000
  H   H213      1.0  0.34330  0.98453  0.89325  1.0000
  N   N13       1.0  0.99571  0.47613  0.76423  1.0000
  S   S47       1.0  0.07093  0.06895  0.95978  1.0000
  H   H214      1.0  0.33422  0.99684  0.92063  1.0000
  Fe  Fe24      1.0  0.00413  0.47792  0.65659  1.0000
  N   N14       1.0  0.29686  0.99117  0.90051  1.0000
  H   H215      1.0  0.46810  0.02427  0.65468  1.0000
  C   C179      1.0  0.27623  0.98693  0.91945  1.0000
  S   S48       1.0  0.34621  0.92395  0.15195  1.0000
  Fe  Fe25      1.0  0.44324  0.91480  0.28649  1.0000
  S   S49       1.0  0.39780  0.92246  0.27377  1.0000
  S   S50       1.0  0.07037  0.51072  0.27968  1.0000
  C   C180      1.0  0.14342  0.90146  0.03147  1.0000
  Fe  Fe26      1.0  0.40187  0.87422  0.27066  1.0000
  S   S51       1.0  0.38781  0.85372  0.23972  1.0000
  S   S52       1.0  0.00217  0.49641  0.27836  1.0000
  S   S53       1.0  0.44857  0.86678  0.28148  1.0000
  H   H216      1.0  0.23028  0.93603  0.06645  1.0000
  Fe  Fe27      1.0  0.02624  0.53381  0.28712  1.0000
  S   S54       1.0  0.38320  0.86498  0.30494  1.0000
  C   C181      1.0  0.12574  0.94957  0.04298  1.0000
  H   H217      1.0  0.45144  0.83735  0.23335  1.0000
  S   S55       1.0  0.14106  0.95242  0.98196  1.0000
  H   H218      1.0  0.45838  0.86887  0.16601  1.0000
  C   C182      1.0  0.46422  0.84684  0.22008  1.0000
  C   C183      1.0  0.17849  0.91814  0.10417  1.0000
  H   H219      1.0  0.26496  0.97160  0.26018  1.0000
  H   H220      1.0  0.39257  0.96021  0.14232  1.0000
  H   H221      1.0  0.19053  0.93276  0.04108  1.0000
  C   C184      1.0  0.46154  0.93237  0.23227  1.0000
  H   H222      1.0  0.38557  0.97624  0.30430  1.0000
  S   S56       1.0  0.06241  0.93255  0.00435  1.0000
  C   C185      1.0  0.20958  0.92949  0.07288  1.0000
  H   H223      1.0  0.16059  0.91074  0.02092  1.0000
  Fe  Fe28      1.0  0.32212  0.96881  0.15052  1.0000
  H   H224      1.0  0.01681  0.89684  0.01752  1.0000
  H   H225      1.0  0.35494  0.96478  0.23956  1.0000
  H   H226      1.0  0.34216  0.96137  0.28017  1.0000
  N   N15       1.0  0.31135  0.96529  0.25354  1.0000
  C   C186      1.0  0.38565  0.96959  0.09736  1.0000
  H   H227      1.0  0.22286  0.92859  0.10692  1.0000
  C   C187      1.0  0.35705  0.90614  0.17718  1.0000
  C   C188      1.0  0.35904  0.87580  0.17811  1.0000
  C   C189      1.0  0.36823  0.86034  0.19744  1.0000
  C   C190      1.0  0.37635  0.87492  0.21599  1.0000
  C   C191      1.0  0.37509  0.90539  0.21501  1.0000
  C   C192      1.0  0.36513  0.92106  0.19567  1.0000
  H   H228      1.0  0.35306  0.86412  0.16385  1.0000
  H   H229      1.0  0.36916  0.83687  0.19798  1.0000
  H   H230      1.0  0.38166  0.91683  0.22907  1.0000
  H   H231      1.0  0.36422  0.94449  0.19489  1.0000
  C   C193      1.0  0.43536  0.97477  0.08460  1.0000
  C   C194      1.0  0.46813  0.86447  0.18211  1.0000
  H   H232      1.0  0.00599  0.96386  0.98342  1.0000
  N   N16       1.0  0.13438  0.91950  0.05096  1.0000
  H   H233      1.0  0.14389  0.95919  0.03371  1.0000
  H   H234      1.0  0.42104  0.90386  0.10234  1.0000
  H   H235      1.0  0.06822  0.48110  0.16472  1.0000
  H   H236      1.0  0.44687  0.91792  0.23997  1.0000
  N   N17       1.0  0.42649  0.94325  0.11922  1.0000
  H   H237      1.0  0.46943  0.95762  0.12201  1.0000
  C   C195      1.0  0.15547  0.91537  0.08984  1.0000
  H   H238      1.0  0.03946  0.48402  0.18580  1.0000
  H   H239      1.0  0.46583  0.92235  0.13375  1.0000
  H   H240      1.0  0.11916  0.96401  0.05709  1.0000
  H   H241      1.0  0.46778  0.92698  0.10414  1.0000
  H   H242      1.0  0.36967  0.96146  0.10885  1.0000
  H   H243      1.0  0.30430  0.96279  0.28921  1.0000
  H   H244      1.0  0.09054  0.90670  0.04884  1.0000
  C   C196      1.0  0.20544  0.92529  0.09571  1.0000
  C   C197      1.0  0.46496  0.93358  0.20903  1.0000
  C   C198      1.0  0.41607  0.96236  0.10028  1.0000
  H   H245      1.0  0.32572  0.86567  0.27255  1.0000
  H   H246      1.0  0.42465  0.94346  0.15519  1.0000
  C   C199      1.0  0.02417  0.89073  0.00093  1.0000
  C   C200      1.0  0.00453  0.57375  0.24251  1.0000
  H   H247      1.0  0.42118  0.90006  0.13234  1.0000
  H   H248      1.0  0.17530  0.91554  0.12202  1.0000
  C   C201      1.0  0.18664  0.92724  0.05844  1.0000
  H   H249      1.0  0.10696  0.95050  0.03162  1.0000
  C   C202      1.0  0.31032  0.93405  0.24933  1.0000
  C   C203      1.0  0.31862  0.91174  0.26537  1.0000
  C   C204      1.0  0.30167  0.92515  0.22830  1.0000
  C   C205      1.0  0.31838  0.88243  0.26042  1.0000
  C   C206      1.0  0.30145  0.89580  0.22357  1.0000
  C   C207      1.0  0.30987  0.87448  0.23958  1.0000
  C   C208      1.0  0.10802  0.90783  0.06126  1.0000
  Fe  Fe29      1.0  0.09285  0.96362  0.98799  1.0000
  H   H250      1.0  0.29572  0.88954  0.20712  1.0000
  C   C209      1.0  0.01412  0.54706  0.20857  1.0000
  H   H251      1.0  0.32588  0.91626  0.28174  1.0000
  C   C210      1.0  0.41676  0.95696  0.14050  1.0000
  H   H252      1.0  0.43015  0.84654  0.19639  1.0000
  C   C211      1.0  0.04663  0.90495  0.99025  1.0000
  S   S57       1.0  0.47629  0.94502  0.27461  1.0000
  C   C212      1.0  0.04418  0.48519  0.16755  1.0000
  H   H253      1.0  0.13507  0.91038  0.09759  1.0000
  C   C213      1.0  0.45212  0.85203  0.19921  1.0000
  H   H254      1.0  0.09794  0.92208  0.07452  1.0000
  H   H255      1.0  0.31076  0.85172  0.23560  1.0000
  C   C214      1.0  0.45880  0.93733  0.11965  1.0000
  H   H256      1.0  0.38996  0.91703  0.11887  1.0000
  H   H257      1.0  0.15192  0.87908  0.03685  1.0000
  H   H258      1.0  0.99387  0.85793  0.99869  1.0000
  S   S58       1.0  0.00844  0.57651  0.27139  1.0000
  H   H259      1.0  0.03785  0.50808  0.16190  1.0000
  H   H260      1.0  0.02440  0.52830  0.20032  1.0000
  C   C215      1.0  0.33308  0.97718  0.23800  1.0000
  C   C216      1.0  0.01715  0.54926  0.23156  1.0000
  H   H261      1.0  0.45244  0.92046  0.19904  1.0000
  H   H262      1.0  0.12484  0.89978  0.02014  1.0000
  C   C217      1.0  0.15887  0.91992  0.06644  1.0000
  C   C218      1.0  0.47789  0.94890  0.24542  1.0000
  C   C219      1.0  0.41422  0.91484  0.11811  1.0000
  H   H263      1.0  0.02981  0.53218  0.24075  1.0000
  H   H264      1.0  0.11330  0.88548  0.06830  1.0000
  C   C220      1.0  0.01109  0.86868  0.99028  1.0000
  C   C221      1.0  0.31971  0.97122  0.27655  1.0000
  H   H265      1.0  0.29578  0.94081  0.21506  1.0000
  Fe  Fe30      1.0  0.38370  0.91293  0.30882  1.0000
  H   H266      1.0  0.45884  0.97148  0.08577  1.0000
  H   H267      1.0  0.99087  0.49655  0.15397  1.0000
  H   H268      1.0  0.32666  0.97646  0.22032  1.0000
  H   H269      1.0  0.03231  0.48948  0.12524  1.0000
  H   H270      1.0  0.42514  0.97860  0.14177  1.0000
  C   C222      1.0  0.99783  0.56889  0.19634  1.0000
  S   S59       1.0  0.99378  0.56453  0.16759  1.0000
  C   C223      1.0  0.48503  0.95094  0.19876  1.0000
  C   C224      1.0  0.98854  0.59593  0.23028  1.0000
  H   H271      1.0  0.10631  0.52372  0.59950  1.0000
  H   H272      1.0  0.14012  0.54764  0.57362  1.0000
  S   S60       1.0  0.37126  0.95168  0.61173  1.0000
  C   C225      1.0  0.11791  0.50266  0.36326  1.0000
  S   S61       1.0  0.42418  0.80617  0.60898  1.0000
  S   S62       1.0  0.43711  0.89012  0.61859  1.0000
  H   H273      1.0  0.12830  0.51911  0.48535  1.0000
  Fe  Fe31      1.0  0.40083  0.74450  0.48872  1.0000
  S   S63       1.0  0.36502  0.73296  0.46679  1.0000
  S   S64       1.0  0.39450  0.78674  0.50760  1.0000
  Fe  Fe32      1.0  0.44170  0.69198  0.47419  1.0000
  S   S65       1.0  0.40917  0.67620  0.45125  1.0000
  H   H274      1.0  0.35226  0.92227  0.40257  1.0000
  Fe  Fe33      1.0  0.40060  0.72365  0.44082  1.0000
  S   S66       1.0  0.39253  0.73696  0.40452  1.0000
  Fe  Fe34      1.0  0.37596  0.68670  0.47883  1.0000
  S   S67       1.0  0.34147  0.65994  0.49508  1.0000
  S   S68       1.0  0.43557  0.73853  0.46176  1.0000
  S   S69       1.0  0.40943  0.69918  0.50268  1.0000
  Fe  Fe35      1.0  0.19758  0.51318  0.50386  1.0000
  Fe  Fe36      1.0  0.23789  0.53399  0.46646  1.0000
  S   S70       1.0  0.11241  0.49546  0.33482  1.0000
  S   S71       1.0  0.27121  0.56352  0.45181  1.0000
  Fe  Fe37      1.0  0.17871  0.51127  0.45532  1.0000
  C   C226      1.0  0.10028  0.51069  0.40138  1.0000
  S   S72       1.0  0.19102  0.54734  0.47643  1.0000
  S   S73       1.0  0.24560  0.50212  0.49532  1.0000
  S   S74       1.0  0.17782  0.52723  0.53755  1.0000
  S   S75       1.0  0.44946  0.83438  0.34514  1.0000
  H   H275      1.0  0.46076  0.71478  0.54623  1.0000
  H   H276      1.0  0.45602  0.53301  0.46318  1.0000
  H   H277      1.0  0.35845  0.68314  0.53516  1.0000
  H   H278      1.0  0.34241  0.81614  0.57168  1.0000
  C   C227      1.0  0.48738  0.80081  0.56264  1.0000
  H   H279      1.0  0.43963  0.71420  0.37531  1.0000
  C   C228      1.0  0.33252  0.88220  0.37736  1.0000
  C   C229      1.0  0.14667  0.50297  0.37070  1.0000
  H   H280      1.0  0.05650  0.48741  0.56520  1.0000
  C   C230      1.0  0.40747  0.76547  0.38896  1.0000
  C   C231      1.0  0.43065  0.77955  0.39670  1.0000
  C   C232      1.0  0.44312  0.80069  0.38312  1.0000
  C   C233      1.0  0.43223  0.80840  0.36188  1.0000
  C   C234      1.0  0.40863  0.79478  0.35436  1.0000
  C   C235      1.0  0.39651  0.77326  0.36777  1.0000
  H   H281      1.0  0.43922  0.77395  0.41300  1.0000
  H   H282      1.0  0.46135  0.81113  0.38909  1.0000
  H   H283      1.0  0.40019  0.80028  0.33798  1.0000
  H   H284      1.0  0.37866  0.76239  0.36160  1.0000
  C   C236      1.0  0.29058  0.59006  0.46438  1.0000
  C   C237      1.0  0.28671  0.59683  0.48686  1.0000
  C   C238      1.0  0.30249  0.61819  0.49596  1.0000
  C   C239      1.0  0.32237  0.63299  0.48276  1.0000
  C   C240      1.0  0.32634  0.62614  0.46031  1.0000
  C   C241      1.0  0.31051  0.60484  0.45121  1.0000
  H   H285      1.0  0.27148  0.58568  0.49719  1.0000
  H   H286      1.0  0.29922  0.62325  0.51333  1.0000
  H   H287      1.0  0.34145  0.63733  0.44991  1.0000
  H   H288      1.0  0.31364  0.59982  0.43381  1.0000
  S   S76       1.0  0.22484  0.50042  0.44295  1.0000
  C   C242      1.0  0.11844  0.51127  0.58680  1.0000
  H   H289      1.0  0.45921  0.81938  0.51208  1.0000
  S   S77       1.0  0.48817  0.67378  0.48146  1.0000
  H   H290      1.0  0.46288  0.72171  0.51673  1.0000
  H   H291      1.0  0.45401  0.65228  0.41422  1.0000
  C   C243      1.0  0.41517  0.80120  0.58088  1.0000
  C   C244      1.0  0.40485  0.82447  0.56691  1.0000
  C   C245      1.0  0.39848  0.81963  0.54457  1.0000
  C   C246      1.0  0.40240  0.79156  0.53594  1.0000
  C   C247      1.0  0.41246  0.76825  0.54995  1.0000
  C   C248      1.0  0.41886  0.77308  0.57228  1.0000
  H   H292      1.0  0.40192  0.84620  0.57329  1.0000
  H   H293      1.0  0.39064  0.83780  0.53390  1.0000
  H   H294      1.0  0.41532  0.74660  0.54356  1.0000
  H   H295      1.0  0.42675  0.75496  0.58298  1.0000
  H   H296      1.0  0.37922  0.85027  0.36137  1.0000
  C   C249      1.0  0.15373  0.50899  0.55547  1.0000
  H   H297      1.0  0.06204  0.53374  0.48122  1.0000
  C   C250      1.0  0.46480  0.51038  0.46391  1.0000
  C   C251      1.0  0.07723  0.55018  0.48499  1.0000
  H   H298      1.0  0.09990  0.58622  0.51208  1.0000
  C   C252      1.0  0.35418  0.97401  0.33144  1.0000
  S   S78       1.0  0.02684  0.52252  0.32385  1.0000
  H   H299      1.0  0.47636  0.71672  0.36576  1.0000
  S   S79       1.0  0.01120  0.48591  0.61985  1.0000
  C   C253      1.0  0.37491  0.87194  0.42628  1.0000
  C   C254      1.0  0.36676  0.86241  0.40523  1.0000
  H   H300      1.0  0.48095  0.68909  0.52829  1.0000
  H   H301      1.0  0.17437  0.50791  0.39865  1.0000
  H   H302      1.0  0.46641  0.84048  0.54861  1.0000
  S   S80       1.0  0.42870  0.91001  0.32220  1.0000
  C   C255      1.0  0.15222  0.50719  0.39329  1.0000
  Fe  Fe38      1.0  0.41719  0.84870  0.62779  1.0000
  H   H303      1.0  0.10112  0.49673  0.49556  1.0000
  H   H304      1.0  0.05147  0.58099  0.52256  1.0000
  Fe  Fe39      1.0  0.05878  0.48665  0.62769  1.0000
  Fe  Fe40      1.0  0.00662  0.48256  0.31402  1.0000
  N   N18       1.0  0.36276  0.88212  0.38542  1.0000
  H   H305      1.0  0.42702  0.67691  0.40099  1.0000
  C   C256      1.0  0.42468  0.97368  0.61173  1.0000
  H   H306      1.0  0.33229  0.71735  0.51154  1.0000
  Fe  Fe41      1.0  0.42953  0.86215  0.31634  1.0000
  C   C257      1.0  0.38350  0.87186  0.36740  1.0000
  H   H307      1.0  0.46629  0.62879  0.45503  1.0000
  H   H308      1.0  0.45612  0.68701  0.35763  1.0000
  S   S81       1.0  0.37235  0.87072  0.63541  1.0000
  C   C258      1.0  0.37364  0.82355  0.44269  1.0000
  H   H309      1.0  0.08216  0.51357  0.41319  1.0000
  N   N19       1.0  0.33362  0.72184  0.54720  1.0000
  C   C259      1.0  0.30594  0.70813  0.55063  1.0000
  C   C260      1.0  0.33391  0.73427  0.52413  1.0000
  C   C261      1.0  0.11263  0.56474  0.51034  1.0000
  C   C262      1.0  0.33607  0.74362  0.56445  1.0000
  C   C263      1.0  0.33721  0.77372  0.55933  1.0000
  C   C264      1.0  0.33798  0.73483  0.58725  1.0000
  C   C265      1.0  0.34083  0.79341  0.57600  1.0000
  C   C266      1.0  0.34207  0.75467  0.60373  1.0000
  C   C267      1.0  0.34375  0.78386  0.59807  1.0000
  H   H310      1.0  0.28671  0.72468  0.54986  1.0000
  H   H311      1.0  0.35783  0.68574  0.56451  1.0000
  H   H312      1.0  0.30486  0.69634  0.56695  1.0000
  H   H313      1.0  0.31506  0.75082  0.52129  1.0000
  C   C268      1.0  0.47957  0.77698  0.52139  1.0000
  H   H314      1.0  0.35454  0.74431  0.52020  1.0000
  N   N20       1.0  0.47152  0.68363  0.39136  1.0000
  S   S82       1.0  0.13491  0.51487  0.43767  1.0000
  C   C269      1.0  0.35846  0.69891  0.54880  1.0000
  H   H315      1.0  0.33624  0.78261  0.54251  1.0000
  H   H316      1.0  0.33685  0.71242  0.59247  1.0000
  H   H317      1.0  0.34438  0.74737  0.62095  1.0000
  H   H318      1.0  0.12428  0.55966  0.52621  1.0000
  H   H319      1.0  0.45444  0.71874  0.41225  1.0000
  C   C270      1.0  0.36241  0.83256  0.40383  1.0000
  H   H320      1.0  0.37635  0.80866  0.45696  1.0000
  S   S83       1.0  0.34713  0.93800  0.32718  1.0000
  C   C271      1.0  0.05293  0.56013  0.53122  1.0000
  C   C272      1.0  0.07433  0.51066  0.53717  1.0000
  H   H321      1.0  0.30335  0.69188  0.53761  1.0000
  C   C273      1.0  0.03403  0.55682  0.54957  1.0000
  H   H322      1.0  0.38461  0.86021  0.46056  1.0000
  H   H323      1.0  0.09200  0.55221  0.47008  1.0000
  C   C274      1.0  0.44876  0.66436  0.39833  1.0000
  C   C275      1.0  0.07369  0.53712  0.52442  1.0000
  C   C276      1.0  0.11362  0.51510  0.49990  1.0000
  Fe  Fe42      1.0  0.39336  0.91207  0.62877  1.0000
  H   H324      1.0  0.35669  0.82352  0.38834  1.0000
  C   C277      1.0  0.05527  0.50761  0.55545  1.0000
  H   H325      1.0  0.47479  0.76854  0.50546  1.0000
  H   H326      1.0  0.42287  0.49496  0.46806  1.0000
  H   H327      1.0  0.37970  0.70857  0.54781  1.0000
  C   C278      1.0  0.37831  0.85264  0.44464  1.0000
  C   C279      1.0  0.13764  0.52479  0.57207  1.0000
  C   C280      1.0  0.36778  0.91272  0.38964  1.0000
  C   C281      1.0  0.12905  0.51079  0.40881  1.0000
  C   C282      1.0  0.09470  0.50676  0.37874  1.0000
  H   H328      1.0  0.36445  0.92688  0.37438  1.0000
  H   H329      1.0  0.38207  0.88689  0.35259  1.0000
  H   H330      1.0  0.08973  0.49212  0.53373  1.0000
  H   H331      1.0  0.39062  0.91448  0.39475  1.0000
  H   H332      1.0  0.40650  0.86998  0.37307  1.0000
  N   N21       1.0  0.09397  0.54147  0.50529  1.0000
  H   H333      1.0  0.44616  0.64799  0.38552  1.0000
  H   H334      1.0  0.36206  0.79087  0.42085  1.0000
  H   H335      1.0  0.43426  0.95146  0.61233  1.0000
  H   H336      1.0  0.31615  0.88868  0.39071  1.0000
  C   C283      1.0  0.47484  0.70413  0.40944  1.0000
  H   H337      1.0  0.32785  0.86057  0.37158  1.0000
  H   H338      1.0  0.32846  0.89760  0.36289  1.0000
  H   H339      1.0  0.37887  0.89413  0.42903  1.0000
  H   H340      1.0  0.07249  0.50653  0.37329  1.0000
  H   H341      1.0  0.06415  0.57151  0.48651  1.0000
  H   H342      1.0  0.16476  0.49988  0.35887  1.0000
  C   C284      1.0  0.03524  0.53062  0.56166  1.0000
  C   C285      1.0  0.36559  0.81358  0.42234  1.0000
  H   H343      1.0  0.00441  0.64390  0.63416  1.0000
  H   H344      1.0  0.12964  0.56737  0.49707  1.0000
  H   H345      1.0  0.34779  0.79910  0.61075  1.0000
  C   C286      1.0  0.46068  0.70106  0.37157  1.0000
  H   H346      1.0  0.46327  0.96018  0.32070  1.0000
  Fe  Fe43      1.0  0.00739  0.53283  0.62821  1.0000
  H   H347      1.0  0.02082  0.52824  0.57604  1.0000
  C   C287      1.0  0.47444  0.81810  0.54557  1.0000
  S   S84       1.0  0.05522  0.53440  0.63379  1.0000
  H   H348      1.0  0.01849  0.57468  0.55470  1.0000
  H   H349      1.0  0.01807  0.59272  0.64136  1.0000
  C   C288      1.0  0.47551  0.71268  0.53128  1.0000
  Fe  Fe44      1.0  0.06963  0.49622  0.31599  1.0000
  C   C289      1.0  0.44603  0.48839  0.46654  1.0000
  H   H350      1.0  0.12827  0.50814  0.51386  1.0000
  H   H351      1.0  0.47958  0.69289  0.42575  1.0000
  C   C290      1.0  0.47053  0.80621  0.52499  1.0000
  C   C291      1.0  0.11544  0.48160  0.58532  1.0000
  H   H352      1.0  0.31559  0.97708  0.62824  1.0000
  C   C292      1.0  0.15032  0.47944  0.55367  1.0000
  H   H353      1.0  0.32386  0.97862  0.35930  1.0000
  C   C293      1.0  0.40966  0.86599  0.77372  1.0000
  Fe  Fe45      1.0  0.44698  0.89271  0.65495  1.0000
  S   S85       1.0  0.43135  0.84914  0.66358  1.0000
  H   H354      1.0  0.27372  0.88472  0.68972  1.0000
  Fe  Fe46      1.0  0.38786  0.87433  0.67028  1.0000
  S   S86       1.0  0.36088  0.86294  0.70065  1.0000
  S   S87       1.0  0.40449  0.91760  0.66427  1.0000
  H   H355      1.0  0.00288  0.66941  0.65617  1.0000
  C   C294      1.0  0.05597  0.89681  0.96882  1.0000
  H   H356      1.0  0.02516  0.57908  0.66907  1.0000
  H   H357      1.0  0.38213  0.81172  0.74487  1.0000
  S   S88       1.0  0.99584  0.52517  0.66402  1.0000
  C   C295      1.0  0.38327  0.88288  0.77994  1.0000
  H   H358      1.0  0.44115  0.95864  0.71669  1.0000
  H   H359      1.0  0.03753  0.65298  0.64567  1.0000
  H   H360      1.0  0.01756  0.49895  0.78846  1.0000
  H   H361      1.0  0.25368  0.92963  0.70820  1.0000
  S   S89       1.0  0.15593  0.96108  0.91736  1.0000
  H   H362      1.0  0.31383  0.85777  0.73137  1.0000
  H   H363      1.0  0.02087  0.64550  0.80327  1.0000
  H   H364      1.0  0.26986  0.97607  0.69715  1.0000
  C   C296      1.0  0.31108  0.93347  0.66010  1.0000
  C   C297      1.0  0.47142  0.91011  0.73282  1.0000
  S   S90       1.0  0.36568  0.96163  0.84210  1.0000
  H   H365      1.0  0.21641  0.95147  0.93562  1.0000
  H   H366      1.0  0.28221  0.89322  0.75318  1.0000
  C   C298      1.0  0.00877  0.56330  0.72078  1.0000
  H   H367      1.0  0.99513  0.92184  0.96289  1.0000
  C   C299      1.0  0.43589  0.89809  0.79617  1.0000
  H   H368      1.0  0.05059  0.58833  0.77084  1.0000
  C   C300      1.0  0.40968  0.91353  0.80249  1.0000
  H   H369      1.0  0.35512  0.96849  0.65537  1.0000
  H   H370      1.0  0.99329  0.61623  0.82674  1.0000
  H   H371      1.0  0.32733  0.93331  0.64674  1.0000
  C   C301      1.0  0.46964  0.90545  0.70993  1.0000
  H   H372      1.0  0.02196  0.65280  0.69371  1.0000
  C   C302      1.0  0.30461  0.92990  0.74207  1.0000
  H   H373      1.0  0.07327  0.90747  0.96042  1.0000
  C   C303      1.0  0.03950  0.55932  0.72080  1.0000
  H   H374      1.0  0.36218  0.87870  0.77397  1.0000
  C   C304      1.0  0.34021  0.88954  0.71653  1.0000
  C   C305      1.0  0.34525  0.91899  0.71563  1.0000
  C   C306      1.0  0.32743  0.93918  0.72845  1.0000
  H   H375      1.0  0.36230  0.92626  0.70474  1.0000
  H   H376      1.0  0.33025  0.96209  0.72689  1.0000
  C   C307      1.0  0.31802  0.88040  0.73068  1.0000
  C   C308      1.0  0.02068  0.86032  0.96892  1.0000
  H   H377      1.0  0.42838  0.79629  0.75726  1.0000
  S   S91       1.0  0.00486  0.83296  0.95453  1.0000
  H   H378      1.0  0.24937  0.95654  0.90398  1.0000
  H   H379      1.0  0.42303  0.81026  0.78489  1.0000
  C   C309      1.0  0.05419  0.56841  0.73898  1.0000
  H   H380      1.0  0.44533  0.85433  0.73706  1.0000
  C   C310      1.0  0.25332  0.96844  0.91859  1.0000
  N   N22       1.0  0.41034  0.84118  0.75861  1.0000
  C   C311      1.0  0.38344  0.90613  0.79429  1.0000
  C   C312      1.0  0.03179  0.69155  0.85659  1.0000
  C   C313      1.0  0.38105  0.83106  0.75555  1.0000
  S   S92       1.0  0.48781  0.91126  0.66618  1.0000
  H   H381      1.0  0.40979  0.93148  0.81362  1.0000
  H   H382      1.0  0.04603  0.64816  0.82503  1.0000
  H   H383      1.0  0.32994  0.95993  0.91393  1.0000
  C   C314      1.0  0.00617  0.67704  0.85424  1.0000
  C   C315      1.0  0.00048  0.50320  0.77567  1.0000
  H   H384      1.0  0.00763  0.52035  0.76400  1.0000
  N   N23       1.0  0.00094  0.66015  0.83443  1.0000
  H   H385      1.0  0.37780  0.96447  0.74680  1.0000
  S   S93       1.0  0.28379  0.96716  0.81951  1.0000
  H   H386      1.0  0.31070  0.88697  0.65930  1.0000
  H   H387      1.0  0.45524  0.90243  0.74422  1.0000
  H   H388      1.0  0.42048  0.83317  0.72388  1.0000
  C   C316      1.0  0.30033  0.95969  0.67048  1.0000
  C   C317      1.0  0.28055  0.90551  0.68404  1.0000
  H   H389      1.0  0.07784  0.56537  0.73919  1.0000
  S   S94       1.0  0.06116  0.54405  0.69860  1.0000
  H   H390      1.0  0.45715  0.86442  0.77688  1.0000
  H   H391      1.0  0.21598  0.97301  0.84944  1.0000
  S   S95       1.0  0.99083  0.60310  0.78032  1.0000
  C   C318      1.0  0.30021  0.90044  0.74319  1.0000
  C   C319      1.0  0.02754  0.59784  0.65743  1.0000
  H   H392      1.0  0.05528  0.71869  0.87691  1.0000
  H   H393      1.0  0.18481  0.94624  0.87572  1.0000
  C   C320      1.0  0.23402  0.96535  0.93674  1.0000
  H   H394      1.0  0.36312  0.91853  0.79918  1.0000
  H   H395      1.0  0.45293  0.81981  0.76714  1.0000
  H   H396      1.0  0.04907  0.69097  0.84406  1.0000
  H   H397      1.0  0.37057  0.82531  0.77177  1.0000
  H   H398      1.0  0.05137  0.59887  0.65414  1.0000
  C   C321      1.0  0.42947  0.81589  0.76741  1.0000
  H   H399      1.0  0.99718  0.55646  0.70677  1.0000
  H   H400      1.0  0.36632  0.84774  0.74676  1.0000
  C   C322      1.0  0.03872  0.58148  0.75693  1.0000
  C   C323      1.0  0.03076  0.63198  0.68617  1.0000
  C   C324      1.0  0.04322  0.87445  0.95833  1.0000
  H   H401      1.0  0.45235  0.89381  0.70377  1.0000
  H   H402      1.0  0.45633  0.90445  0.80220  1.0000
  C   C325      1.0  0.26924  0.93083  0.69438  1.0000
  S   S96       1.0  0.27755  0.95486  0.75391  1.0000
  C   C326      1.0  0.02548  0.65867  0.81778  1.0000
  C   C327      1.0  0.99610  0.62988  0.84135  1.0000
  H   H403      1.0  0.99364  0.89855  0.93117  1.0000
  H   H404      1.0  0.05088  0.86810  0.94184  1.0000
  C   C328      1.0  0.30144  0.90682  0.66695  1.0000
  H   H405      1.0  0.03140  0.61436  0.69923  1.0000
  Fe  Fe47      1.0  0.04376  0.52238  0.66929  1.0000
  C   C329      1.0  0.42198  0.85009  0.73650  1.0000
  H   H406      1.0  0.40946  0.87030  0.73000  1.0000
  H   H407      1.0  0.01485  0.61939  0.85091  1.0000
  C   C330      1.0  0.42273  0.97287  0.84711  1.0000
  C   C331      1.0  0.27895  0.95758  0.68785  1.0000
  C   C332      1.0  0.43602  0.87484  0.78186  1.0000
  H   H408      1.0  0.44327  0.96237  0.67615  1.0000
  H   H409      1.0  0.41465  0.94760  0.74805  1.0000
  H   H410      1.0  0.02936  0.50171  0.73226  1.0000
  C   C333      1.0  0.99310  0.57680  0.73889  1.0000
  C   C334      1.0  0.00824  0.58605  0.75698  1.0000
  C   C335      1.0  0.01458  0.64886  0.65003  1.0000
  H   H411      1.0  0.05397  0.63424  0.68123  1.0000
  C   C336      1.0  0.98921  0.69571  0.89066  1.0000
  N   N24       1.0  0.01330  0.62497  0.66694  1.0000
  H   H412      1.0  0.02925  0.68060  0.81085  1.0000
  H   H413      1.0  0.42597  0.95157  0.85509  1.0000
  C   C337      1.0  0.03570  0.70764  0.87545  1.0000
  H   H414      1.0  0.01741  0.72236  0.90697  1.0000
  C   C338      1.0  0.01444  0.70973  0.89243  1.0000
  C   C339      1.0  0.19033  0.96765  0.87975  1.0000
  H   H415      1.0  0.29402  0.95009  0.88495  1.0000
  C   C340      1.0  0.29180  0.97379  0.88084  1.0000
  C   C341      1.0  0.39981  0.96664  0.75345  1.0000
  H   H416      1.0  0.39804  0.96462  0.77195  1.0000
  H   H417      1.0  0.45580  0.97716  0.74869  1.0000
  Fe  Fe48      1.0  0.13524  0.97827  0.94981  1.0000
  C   C342      1.0  0.42842  0.97654  0.70872  1.0000
  H   H418      1.0  0.07468  0.48189  0.71438  1.0000
  C   C343      1.0  0.03806  0.48010  0.73733  1.0000
  H   H419      1.0  0.30793  0.97722  0.86708  1.0000
  C   C344      1.0  0.42981  0.97862  0.68549  1.0000
  H   H420      1.0  0.22127  0.97860  0.96991  1.0000
  H   H421      1.0  0.50423  0.13014  0.13838  1.0000
  S   S97       1.0  0.78120  0.05598  0.98118  1.0000
  S   S98       1.0  0.54712  0.04939  0.12433  1.0000
  C   C345      1.0  0.50770  0.10476  0.22085  1.0000
  Fe  Fe49      1.0  0.53344  0.04432  0.16015  1.0000
  S   S99       1.0  0.53102  0.08380  0.18152  1.0000
  H   H422      1.0  0.67833  0.47551  0.27979  1.0000
  H   H423      1.0  0.96838  0.43748  0.26264  1.0000
  H   H424      1.0  0.95623  0.19712  0.02224  1.0000
  Fe  Fe50      1.0  0.90904  0.35444  0.13060  1.0000
  S   S100      1.0  0.95544  0.36394  0.13590  1.0000
  S   S101      1.0  0.89704  0.31321  0.11431  1.0000
  Fe  Fe51      1.0  0.88395  0.40878  0.15530  1.0000
  S   S102      1.0  0.92804  0.42303  0.16151  1.0000
  S   S103      1.0  0.84595  0.43948  0.16730  1.0000
  Fe  Fe52      1.0  0.93882  0.40977  0.12657  1.0000
  C   C346      1.0  0.74253  0.43599  0.24620  1.0000
  Fe  Fe53      1.0  0.94076  0.37653  0.17064  1.0000
  H   H425      1.0  0.89267  0.44152  0.28465  1.0000
  S   S104      1.0  0.89338  0.39994  0.11905  1.0000
  S   S105      1.0  0.89567  0.36262  0.16659  1.0000
  S   S106      1.0  0.72624  0.00212  0.99799  1.0000
  C   C347      1.0  0.92453  0.46421  0.23620  1.0000
  S   S107      1.0  0.63683  0.02252  0.00709  1.0000
  Fe  Fe54      1.0  0.90673  0.23826  0.99391  1.0000
  H   H426      1.0  0.59642  0.05732  0.09418  1.0000
  S   S108      1.0  0.91221  0.28040  0.01165  1.0000
  H   H427      1.0  0.55622  0.13419  0.14531  1.0000
  C   C348      1.0  0.91722  0.47460  0.09377  1.0000
  S   S109      1.0  0.55818  0.00011  0.16405  1.0000
  S   S110      1.0  0.89269  0.19495  0.00560  1.0000
  H   H428      1.0  0.53273  0.03422  0.21259  1.0000
  H   H429      1.0  0.59331  0.07649  0.04440  1.0000
  C   C349      1.0  0.90291  0.46540  0.21971  1.0000
  H   H430      1.0  0.50541  0.12565  0.21217  1.0000
  C   C350      1.0  0.94516  0.24708  0.10819  1.0000
  S   S111      1.0  0.49040  0.07229  0.28278  1.0000
  C   C351      1.0  0.94482  0.22463  0.09315  1.0000
  H   H431      1.0  0.75702  0.41508  0.27633  1.0000
  H   H432      1.0  0.88447  0.45275  0.22165  1.0000
  H   H433      1.0  0.91994  0.39972  0.26466  1.0000
  C   C352      1.0  0.54989  0.12712  0.12924  1.0000
  H   H434      1.0  0.59370  0.12085  0.11692  1.0000
  C   C353      1.0  0.81023  0.98382  0.98331  1.0000
  Fe  Fe55      1.0  0.68010  0.01438  0.98748  1.0000
  S   S112      1.0  0.96011  0.13938  0.00507  1.0000
  H   H435      1.0  0.56059  0.10051  0.04655  1.0000
  H   H436      1.0  0.94534  0.43029  0.28615  1.0000
  C   C354      1.0  0.83719  0.43770  0.19598  1.0000
  C   C355      1.0  0.82160  0.46173  0.20585  1.0000
  C   C356      1.0  0.82348  0.43671  0.24195  1.0000
  C   C357      1.0  0.83863  0.41244  0.23209  1.0000
  C   C358      1.0  0.84574  0.41303  0.20916  1.0000
  N   N25       1.0  0.92215  0.44531  0.25639  1.0000
  H   H437      1.0  0.84524  0.39330  0.24219  1.0000
  H   H438      1.0  0.85769  0.39435  0.20169  1.0000
  C   C359      1.0  0.90104  0.30474  0.08561  1.0000
  C   C360      1.0  0.91454  0.32258  0.07011  1.0000
  C   C361      1.0  0.91779  0.31471  0.04762  1.0000
  C   C362      1.0  0.90783  0.28886  0.04033  1.0000
  C   C363      1.0  0.89440  0.27095  0.05583  1.0000
  C   C364      1.0  0.89094  0.27895  0.07829  1.0000
  H   H439      1.0  0.92246  0.34244  0.07548  1.0000
  H   H440      1.0  0.92815  0.32879  0.03582  1.0000
  H   H441      1.0  0.88625  0.25121  0.05049  1.0000
  H   H442      1.0  0.88038  0.26506  0.09012  1.0000
  C   C365      1.0  0.51991  0.08014  0.20965  1.0000
  C   C366      1.0  0.72210  0.45573  0.23582  1.0000
  H   H443      1.0  0.58758  0.14010  0.06046  1.0000
  C   C367      1.0  0.98762  0.38872  0.21459  1.0000
  H   H444      1.0  0.93573  0.22740  0.03520  1.0000
  C   C368      1.0  0.52301  0.05323  0.22103  1.0000
  C   C369      1.0  0.61912  0.00002  0.08123  1.0000
  H   H445      1.0  0.69685  0.39724  0.30224  1.0000
  C   C370      1.0  0.51219  0.11489  0.10508  1.0000
  C   C371      1.0  0.98276  0.26784  0.08608  1.0000
  C   C372      1.0  0.57118  0.11909  0.11294  1.0000
  C   C373      1.0  0.69903  0.46944  0.24824  1.0000
  S   S113      1.0  0.94807  0.21885  0.97714  1.0000
  C   C374      1.0  0.63075  0.01243  0.03549  1.0000
  C   C375      1.0  0.60191  0.01401  0.04411  1.0000
  C   C376      1.0  0.59609  0.00783  0.06682  1.0000
  H   H446      1.0  0.58392  0.02013  0.03316  1.0000
  H   H447      1.0  0.57378  0.00925  0.07321  1.0000
  C   C377      1.0  0.81494  0.46131  0.22874  1.0000
  C   C378      1.0  0.94743  0.44507  0.27132  1.0000
  Fe  Fe56      1.0  0.50647  0.02927  0.11685  1.0000
  H   H448      1.0  0.62002  0.11584  0.05539  1.0000
  H   H449      1.0  0.96308  0.28667  0.11586  1.0000
  H   H450      1.0  0.92988  0.24856  0.12229  1.0000
  C   C379      1.0  0.51411  0.05109  0.24354  1.0000
  C   C380      1.0  0.98282  0.24538  0.07102  1.0000
  H   H451      1.0  0.93878  0.40703  0.23894  1.0000
  N   N26       1.0  0.58680  0.09774  0.07598  1.0000
  H   H452      1.0  0.89979  0.41222  0.24086  1.0000
  C   C381      1.0  0.95709  0.21387  0.03501  1.0000
  N   N27       1.0  0.71547  0.43748  0.30662  1.0000
  C   C382      1.0  0.56363  0.10790  0.09234  1.0000
  H   H453      1.0  0.82638  0.00394  0.03493  1.0000
  H   H454      1.0  0.48934  0.11238  0.10230  1.0000
  C   C383      1.0  0.98625  0.41820  0.20826  1.0000
  S   S114      1.0  0.81619  0.43673  0.27088  1.0000
  H   H455      1.0  0.66592  0.99191  0.08354  1.0000
  H   H456      1.0  0.94502  0.16759  0.07815  1.0000
  Fe  Fe57      1.0  0.56805  0.00390  0.12691  1.0000
  H   H457      1.0  0.67607  0.00284  0.04345  1.0000
  C   C384      1.0  0.50142  0.07562  0.25460  1.0000
  C   C385      1.0  0.53330  0.10657  0.08871  1.0000
  C   C386      1.0  0.74005  0.42995  0.26905  1.0000
  H   H458      1.0  0.61391  0.13225  0.08184  1.0000
  H   H459      1.0  0.62435  0.06561  0.07435  1.0000
  C   C387      1.0  0.81798  0.00644  0.01774  1.0000
  C   C388      1.0  0.57537  0.08457  0.05615  1.0000
  C   C389      1.0  0.60276  0.12257  0.06809  1.0000
  C   C390      1.0  0.82115  0.09627  0.98212  1.0000
  C   C391      1.0  0.69635  0.46360  0.27115  1.0000
  H   H460      1.0  0.97230  0.00899  0.98261  1.0000
  C   C392      1.0  0.92003  0.41487  0.24993  1.0000
  H   H461      1.0  0.62041  0.08415  0.09993  1.0000
  H   H462      1.0  0.51705  0.03039  0.25240  1.0000
  C   C393      1.0  0.96388  0.26873  0.10458  1.0000
  C   C394      1.0  0.96356  0.22327  0.07391  1.0000
  H   H463      1.0  0.56331  0.06550  0.06104  1.0000
  C   C395      1.0  0.52049  0.12485  0.12537  1.0000
  H   H464      1.0  0.79483  0.01614  0.01905  1.0000
  H   H465      1.0  0.97154  0.42665  0.19544  1.0000
  C   C396      1.0  0.89545  0.45540  0.26943  1.0000
  Fe  Fe58      1.0  0.93264  0.17553  0.98666  1.0000
  C   C397      1.0  0.65377  0.00416  0.04982  1.0000
  H   H466      1.0  0.50980  0.98008  0.24522  1.0000
  H   H467      1.0  0.51611  0.98190  0.20402  1.0000
  C   C398      1.0  0.94564  0.47265  0.10186  1.0000
  C   C399      1.0  0.60787  0.07542  0.08656  1.0000
  H   H468      1.0  0.92915  0.20913  0.09673  1.0000
  S   S115      1.0  0.96572  0.43890  0.10602  1.0000
  H   H469      1.0  0.52521  0.09801  0.07380  1.0000
  H   H470      1.0  0.76087  0.42578  0.23662  1.0000
  H   H471      1.0  0.72448  0.46073  0.21817  1.0000
  C   C400      1.0  0.71692  0.44360  0.28229  1.0000
  C   C401      1.0  0.64795  0.99799  0.07256  1.0000
  C   C402      1.0  0.94101  0.17970  0.06209  1.0000
  H   H472      1.0  0.82960  0.02310  0.00827  1.0000
  C   C403      1.0  0.49601  0.00257  0.30767  1.0000
  C   C404      1.0  0.49809  0.10245  0.24317  1.0000
  H   H473      1.0  0.87526  0.45483  0.25979  1.0000
  H   H474      1.0  0.98262  0.46062  0.14853  1.0000
  H   H475      1.0  0.97391  0.22805  0.02894  1.0000
  H   H476      1.0  0.90766  0.45507  0.08956  1.0000
  H   H477      1.0  0.91852  0.19110  0.06245  1.0000
  H   H478      1.0  0.48864  0.12155  0.25163  1.0000
  S   S116      1.0  0.49086  0.02794  0.15228  1.0000
  N   N28       1.0  0.96334  0.20036  0.05724  1.0000
  H   H479      1.0  0.94123  0.16302  0.04903  1.0000
  H   H480      1.0  0.85309  0.12752  0.98388  1.0000
  S   S117      1.0  0.96642  0.36421  0.20178  1.0000
  H   H481      1.0  0.81369  0.47313  0.13128  1.0000
  H   H482      1.0  0.78720  0.99358  0.98312  1.0000
  H   H483      1.0  0.94923  0.46686  0.27818  1.0000
  S   S118      1.0  0.61283  0.99381  0.11023  1.0000
  H   H484      1.0  0.87378  0.00010  0.01578  1.0000
  H   H485      1.0  0.92472  0.33276  0.98451  1.0000
  H   H486      1.0  0.83545  0.07871  0.98928  1.0000
  C   C405      1.0  0.83124  0.12396  0.97907  1.0000
  H   H487      1.0  0.73575  0.39326  0.30563  1.0000
  S   S119      1.0  0.52790  0.98376  0.11717  1.0000
  Fe  Fe59      1.0  0.51598  0.98412  0.15377  1.0000
  H   H488      1.0  0.50748  0.98051  0.30577  1.0000
  H   H489      1.0  0.89625  0.47808  0.27485  1.0000
  C   C406      1.0  0.79272  0.09122  0.97616  1.0000
  H   H490      1.0  0.71327  0.46230  0.55946  1.0000
  H   H491      1.0  0.54506  0.25066  0.41791  1.0000
  H   H492      1.0  0.61470  0.42432  0.53646  1.0000
  Fe  Fe60      1.0  0.60162  0.46954  0.47773  1.0000
  S   S120      1.0  0.57871  0.43190  0.49339  1.0000
  H   H493      1.0  0.52626  0.28046  0.43277  1.0000
  H   H494      1.0  0.74153  0.44290  0.33528  1.0000
  H   H495      1.0  0.49190  0.18312  0.34797  1.0000
  C   C407      1.0  0.62526  0.45184  0.56385  1.0000
  C   C408      1.0  0.55801  0.40782  0.47941  1.0000
  C   C409      1.0  0.55816  0.40644  0.45619  1.0000
  C   C410      1.0  0.54173  0.38661  0.44586  1.0000
  C   C411      1.0  0.52471  0.36821  0.45858  1.0000
  C   C412      1.0  0.52433  0.36981  0.48178  1.0000
  C   C413      1.0  0.54100  0.38939  0.49211  1.0000
  H   H496      1.0  0.57120  0.42041  0.44620  1.0000
  H   H497      1.0  0.58857  0.46697  0.52812  1.0000
  H   H498      1.0  0.54082  0.39016  0.51008  1.0000
  H   H499      1.0  0.51159  0.35561  0.49182  1.0000
  H   H500      1.0  0.93842  0.33063  0.63689  1.0000
  C   C414      1.0  0.71506  0.40580  0.31107  1.0000
  H   H501      1.0  0.69195  0.39280  0.57053  1.0000
  C   C415      1.0  0.64673  0.45397  0.58013  1.0000
  C   C416      1.0  0.67025  0.43271  0.58262  1.0000
  H   H502      1.0  0.90582  0.45678  0.32501  1.0000
  C   C417      1.0  0.74158  0.44728  0.31696  1.0000
  H   H503      1.0  0.51245  0.30590  0.37613  1.0000
  H   H504      1.0  0.66867  0.44564  0.31124  1.0000
  C   C418      1.0  0.52409  0.29531  0.39067  1.0000
  H   H505      1.0  0.97465  0.38396  0.63629  1.0000
  H   H506      1.0  0.56966  0.44702  0.54930  1.0000
  H   H507      1.0  0.68887  0.44744  0.33620  1.0000
  C   C419      1.0  0.52314  0.26198  0.42183  1.0000
  H   H508      1.0  0.93798  0.36165  0.61800  1.0000
  S   S121      1.0  0.96664  0.46400  0.32833  1.0000
  C   C420      1.0  0.51571  0.98143  0.38850  1.0000
  C   C421      1.0  0.50642  0.47446  0.46340  1.0000
  H   H509      1.0  0.52645  0.31308  0.40246  1.0000
  H   H510      1.0  0.90501  0.35297  0.63163  1.0000
  H   H511      1.0  0.52298  0.26589  0.35559  1.0000
  H   H512      1.0  0.49832  0.43042  0.46670  1.0000
  C   C422      1.0  0.57875  0.46803  0.54520  1.0000
  C   C423      1.0  0.68925  0.45234  0.31793  1.0000
  H   H513      1.0  0.68886  0.47641  0.31622  1.0000
  H   H514      1.0  0.51079  0.24687  0.43221  1.0000
  H   H515      1.0  0.65581  0.38821  0.54132  1.0000
  C   C424      1.0  0.50899  0.22463  0.34998  1.0000
  C   C425      1.0  0.92883  0.35344  0.63406  1.0000
  H   H516      1.0  0.49751  0.02333  0.39936  1.0000
  H   H517      1.0  0.92892  0.41257  0.63411  1.0000
  H   H518      1.0  0.54224  0.38556  0.42791  1.0000
  H   H519      1.0  0.54655  0.28672  0.38532  1.0000
  C   C426      1.0  0.62933  0.42752  0.54977  1.0000
  N   N29       1.0  0.60056  0.47472  0.56160  1.0000
  H   H520      1.0  0.73752  0.47147  0.39469  1.0000
  C   C427      1.0  0.65308  0.40647  0.55233  1.0000
  S   S122      1.0  0.64970  0.47439  0.48117  1.0000
  C   C428      1.0  0.67343  0.40900  0.56875  1.0000
  C   C429      1.0  0.50515  0.24726  0.38655  1.0000
  N   N30       1.0  0.50778  0.27204  0.40116  1.0000
  C   C430      1.0  0.51349  0.24773  0.36359  1.0000
  H   H521      1.0  0.68664  0.43520  0.59494  1.0000
  H   H522      1.0  0.51271  0.01799  0.31021  1.0000
  S   S123      1.0  0.50452  0.34345  0.44484  1.0000
  H   H523      1.0  0.76241  0.43650  0.31001  1.0000
  H   H524      1.0  0.64600  0.47250  0.59072  1.0000
  H   H525      1.0  0.57769  0.45817  0.59014  1.0000
  H   H526      1.0  0.52995  0.46915  0.46235  1.0000
  C   C431      1.0  0.49949  0.00829  0.38579  1.0000
  H   H527      1.0  0.75087  0.46798  0.50160  1.0000
  C   C432      1.0  0.49632  0.20050  0.35875  1.0000
  H   H528      1.0  0.51472  0.22564  0.33237  1.0000
  H   H529      1.0  0.71223  0.40062  0.32917  1.0000
  H   H530      1.0  0.49991  0.01426  0.63815  1.0000
  H   H531      1.0  0.74221  0.47107  0.31418  1.0000
  C   C433      1.0  0.49226  0.22231  0.39489  1.0000
  H   H532      1.0  0.88139  0.30339  0.94006  1.0000
  C   C434      1.0  0.81642  0.43899  0.72489  1.0000
  S   S124      1.0  0.55916  0.05094  0.74443  1.0000
  S   S125      1.0  0.93973  0.45276  0.83342  1.0000
  H   H533      1.0  0.52921  0.13309  0.69477  1.0000
  Fe  Fe61      1.0  0.93984  0.37478  0.78073  1.0000
  S   S126      1.0  0.89729  0.35403  0.78165  1.0000
  H   H534      1.0  0.48998  0.08328  0.80037  1.0000
  Fe  Fe62      1.0  0.92096  0.41569  0.81758  1.0000
  S   S127      1.0  0.87664  0.39984  0.82152  1.0000
  Fe  Fe63      1.0  0.90056  0.35506  0.81920  1.0000
  S   S128      1.0  0.88144  0.32296  0.84380  1.0000
  Fe  Fe64      1.0  0.87622  0.39973  0.78416  1.0000
  S   S129      1.0  0.83599  0.41895  0.76579  1.0000
  S   S130      1.0  0.94523  0.37135  0.81790  1.0000
  S   S131      1.0  0.91830  0.42001  0.78074  1.0000
  C   C435      1.0  0.93082  0.34108  0.71262  1.0000
  H   H535      1.0  0.49483  0.05429  0.74334  1.0000
  Fe  Fe65      1.0  0.69757  0.01513  0.93806  1.0000
  Fe  Fe66      1.0  0.74029  0.03468  0.97210  1.0000
  S   S132      1.0  0.55278  0.03140  0.80949  1.0000
  S   S133      1.0  0.90957  0.17185  0.95448  1.0000
  C   C436      1.0  0.84526  0.43489  0.69050  1.0000
  Fe  Fe67      1.0  0.92144  0.21726  0.94651  1.0000
  S   S134      1.0  0.94185  0.23153  0.91362  1.0000
  S   S135      1.0  0.67633  0.03047  0.90531  1.0000
  C   C437      1.0  0.65585  0.01146  0.88687  1.0000
  C   C438      1.0  0.57032  0.03435  0.95664  1.0000
  C   C439      1.0  0.62215  0.01337  0.85579  1.0000
  H   H536      1.0  0.61849  0.05296  0.91613  1.0000
  H   H537      1.0  0.91128  0.23495  0.83937  1.0000
  S   S136      1.0  0.96873  0.45179  0.67065  1.0000
  H   H538      1.0  0.60906  0.02595  0.84358  1.0000
  C   C440      1.0  0.83872  0.42265  0.73652  1.0000
  C   C441      1.0  0.86369  0.41128  0.72485  1.0000
  C   C442      1.0  0.86688  0.41734  0.70192  1.0000
  H   H539      1.0  0.88066  0.39813  0.73359  1.0000
  H   H540      1.0  0.88652  0.40904  0.69317  1.0000
  C   C443      1.0  0.89967  0.30009  0.86426  1.0000
  C   C444      1.0  0.88345  0.29048  0.88275  1.0000
  C   C445      1.0  0.89627  0.27007  0.89833  1.0000
  C   C446      1.0  0.92543  0.25886  0.89543  1.0000
  C   C447      1.0  0.94182  0.26884  0.87718  1.0000
  C   C448      1.0  0.92905  0.28943  0.86168  1.0000
  H   H541      1.0  0.86063  0.29838  0.88471  1.0000
  H   H542      1.0  0.88333  0.26227  0.91209  1.0000
  Fe  Fe68      1.0  0.50798  0.01650  0.81388  1.0000
  H   H543      1.0  0.94165  0.29639  0.84739  1.0000
  H   H544      1.0  0.56502  0.09835  0.71412  1.0000
  C   C449      1.0  0.63856  0.02744  0.87093  1.0000
  H   H545      1.0  0.53999  0.09193  0.78962  1.0000
  H   H546      1.0  0.93368  0.28358  0.93817  1.0000
  H   H547      1.0  0.50353  0.02119  0.70882  1.0000
  H   H548      1.0  0.89246  0.32920  0.73051  1.0000
  H   H549      1.0  0.52452  0.05788  0.68374  1.0000
  S   S137      1.0  0.50148  0.01107  0.77771  1.0000
  C   C450      1.0  0.53222  0.04170  0.89172  1.0000
  H   H550      1.0  0.63797  0.05087  0.87018  1.0000
  H   H551      1.0  0.89619  0.40111  0.64673  1.0000
  H   H552      1.0  0.88538  0.40306  0.90165  1.0000
  H   H553      1.0  0.60079  0.98410  0.94569  1.0000
  C   C451      1.0  0.53244  0.07395  0.73017  1.0000
  C   C452      1.0  0.54190  0.09586  0.71596  1.0000
  C   C453      1.0  0.52164  0.11539  0.70483  1.0000
  S   S138      1.0  0.82437  0.18250  0.96657  1.0000
  S   S139      1.0  0.88102  0.23923  0.96242  1.0000
  H   H554      1.0  0.54471  0.06574  0.91890  1.0000
  H   H555      1.0  0.92265  0.41535  0.66345  1.0000
  C   C454      1.0  0.57165  0.02430  0.91712  1.0000
  H   H556      1.0  0.90819  0.36389  0.96994  1.0000
  C   C455      1.0  0.97297  0.43146  0.69579  1.0000
  H   H557      1.0  0.58334  0.03690  0.97177  1.0000
  H   H558      1.0  0.59082  0.07550  0.93057  1.0000
  C   C456      1.0  0.93798  0.33312  0.91032  1.0000
  H   H559      1.0  0.80287  0.45878  0.69344  1.0000
  C   C457      1.0  0.91926  0.37404  0.88704  1.0000
  N   N31       1.0  0.91754  0.32593  0.94978  1.0000
  C   C458      1.0  0.88297  0.34356  0.69687  1.0000
  C   C459      1.0  0.90017  0.38360  0.90423  1.0000
  C   C460      1.0  0.92449  0.34472  0.96810  1.0000
  H   H560      1.0  0.87716  0.46548  0.83491  1.0000
  S   S140      1.0  0.69362  0.04977  0.96392  1.0000
  C   C461      1.0  0.98316  0.45621  0.78093  1.0000
  C   C462      1.0  0.78449  0.14200  0.96407  1.0000
  C   C463      1.0  0.91868  0.34221  0.92821  1.0000
  H   H561      1.0  0.88867  0.46948  0.71302  1.0000
  C   C464      1.0  0.94150  0.99155  0.96150  1.0000
  H   H562      1.0  0.88312  0.45314  0.75110  1.0000
  N   N32       1.0  0.58948  0.02924  0.93659  1.0000
  H   H563      1.0  0.79662  0.44715  0.73359  1.0000
  N   N33       1.0  0.83198  0.19528  0.89774  1.0000
  C   C465      1.0  0.80573  0.18800  0.88597  1.0000
  C   C466      1.0  0.84293  0.16895  0.91093  1.0000
  C   C467      1.0  0.82308  0.21873  0.91348  1.0000
  C   C468      1.0  0.85396  0.20545  0.88162  1.0000
  C   C469      1.0  0.88398  0.19457  0.88185  1.0000
  C   C470      1.0  0.84587  0.22790  0.86568  1.0000
  C   C471      1.0  0.90419  0.20482  0.86647  1.0000
  C   C472      1.0  0.86628  0.23799  0.85041  1.0000
  C   C473      1.0  0.89534  0.22633  0.85072  1.0000
  H   H564      1.0  0.81191  0.17210  0.87272  1.0000
  H   H565      1.0  0.78979  0.17830  0.89758  1.0000
  H   H566      1.0  0.79345  0.20736  0.87817  1.0000
  H   H567      1.0  0.85134  0.15088  0.90001  1.0000
  H   H568      1.0  0.82546  0.16072  0.92193  1.0000
  H   H569      1.0  0.86040  0.17355  0.92241  1.0000
  H   H570      1.0  0.81377  0.23899  0.90487  1.0000
  H   H571      1.0  0.80629  0.21216  0.92585  1.0000
  H   H572      1.0  0.84209  0.22427  0.92307  1.0000
  H   H573      1.0  0.89265  0.17872  0.89410  1.0000
  H   H574      1.0  0.82389  0.23845  0.86525  1.0000
  H   H575      1.0  0.92715  0.19695  0.86743  1.0000
  H   H576      1.0  0.85988  0.25581  0.83883  1.0000
  Fe  Fe69      1.0  0.54751  0.02157  0.77337  1.0000
  C   C474      1.0  0.49168  0.11270  0.70716  1.0000
  H   H577      1.0  0.95276  0.31354  0.91126  1.0000
  S   S141      1.0  0.74549  0.00267  0.94439  1.0000
  C   C475      1.0  0.96708  0.99027  0.97358  1.0000
  H   H578      1.0  0.92665  0.43451  0.70235  1.0000
  H   H579      1.0  0.82362  0.99915  0.97397  1.0000
  H   H580      1.0  0.96216  0.46599  0.78836  1.0000
  N   N34       1.0  0.50811  0.01840  0.67304  1.0000
  H   H581      1.0  0.62800  0.00066  0.92855  1.0000
  C   C476      1.0  0.94221  0.35204  0.69263  1.0000
  C   C477      1.0  0.89413  0.35443  0.67677  1.0000
  S   S142      1.0  0.85074  0.44340  0.66197  1.0000
  H   H582      1.0  0.97030  0.46346  0.73741  1.0000
  C   C478      1.0  0.93840  0.29933  0.95088  1.0000
  C   C479      1.0  0.90127  0.33699  0.71478  1.0000
  H   H583      1.0  0.55509  0.05437  0.95497  1.0000
  H   H584      1.0  0.93000  0.40222  0.73584  1.0000
  H   H585      1.0  0.54978  0.13008  0.76171  1.0000
  C   C480      1.0  0.53678  0.00082  0.67381  1.0000
  H   H586      1.0  0.92676  0.01134  0.96131  1.0000
  H   H587      1.0  0.85982  0.34108  0.69880  1.0000
  H   H588      1.0  0.62133  0.05816  0.94537  1.0000
  C   C481      1.0  0.52744  0.12708  0.76676  1.0000
  C   C482      1.0  0.94777  0.42540  0.70791  1.0000
  H   H589      1.0  0.78817  0.46435  0.77146  1.0000
  H   H590      1.0  0.97318  0.38897  0.66538  1.0000
  C   C483      1.0  0.92410  0.35918  0.67404  1.0000
  H   H591      1.0  0.91920  0.38591  0.87118  1.0000
  H   H592      1.0  0.95276  0.34149  0.87657  1.0000
  H   H593      1.0  0.55219  0.02242  0.70250  1.0000
  C   C484      1.0  0.94965  0.40719  0.72696  1.0000
  C   C485      1.0  0.89988  0.36806  0.92455  1.0000
  C   C486      1.0  0.52185  0.10550  0.78247  1.0000
  C   C487      1.0  0.57634  0.99894  0.90420  1.0000
  H   H594      1.0  0.88460  0.37631  0.93733  1.0000
  C   C488      1.0  0.88775  0.31684  0.95386  1.0000
  C   C489      1.0  0.93823  0.34901  0.89014  1.0000
  C   C490      1.0  0.60559  0.05513  0.93204  1.0000
  H   H595      1.0  0.96437  0.26020  0.87478  1.0000
  H   H596      1.0  0.59351  0.98188  0.90760  1.0000
  C   C491      1.0  0.55922  0.99520  0.88579  1.0000
  C   C492      1.0  0.81991  0.44559  0.70206  1.0000
  C   C493      1.0  0.62323  0.98305  0.85617  1.0000
  H   H597      1.0  0.87879  0.36026  0.66368  1.0000
  C   C494      1.0  0.97669  0.39406  0.73373  1.0000
  H   H598      1.0  0.48850  0.99096  0.69738  1.0000
  H   H599      1.0  0.94491  0.33642  0.72676  1.0000
  S   S143      1.0  0.97883  0.36962  0.75686  1.0000
  C   C495      1.0  0.50240  0.07099  0.73242  1.0000
  C   C496      1.0  0.96706  0.37431  0.65236  1.0000
  H   H600      1.0  0.52530  0.05348  0.65423  1.0000
  C   C497      1.0  0.51256  0.04960  0.66986  1.0000
  C   C498      1.0  0.49177  0.01427  0.69431  1.0000
  H   H601      1.0  0.55702  0.01577  0.96004  1.0000
  H   H602      1.0  0.87089  0.33557  0.95540  1.0000
  H   H603      1.0  0.97976  0.35278  0.65475  1.0000
  C   C499      1.0  0.53726  0.01651  0.87953  1.0000
  C   C500      1.0  0.55699  0.00565  0.69044  1.0000
  H   H604      1.0  0.51526  0.05830  0.88658  1.0000
  C   C501      1.0  0.54914  0.04565  0.91021  1.0000
  N   N35       1.0  0.93506  0.37180  0.65285  1.0000
  C   C502      1.0  0.49308  0.10066  0.78839  1.0000
  H   H605      1.0  0.88633  0.30377  0.96967  1.0000
  H   H606      1.0  0.96514  0.35539  0.69248  1.0000
  H   H607      1.0  0.62358  0.00858  0.95730  1.0000
  H   H608      1.0  0.52436  0.01364  0.86504  1.0000
  H   H609      1.0  0.49143  0.06353  0.66888  1.0000
  Fe  Fe70      1.0  0.56825  0.98394  0.81367  1.0000
  C   C503      1.0  0.61131  0.00445  0.94215  1.0000
  H   H610      1.0  0.77006  0.15972  0.95725  1.0000
  H   H611      1.0  0.59843  0.99262  0.70533  1.0000
  Fe  Fe71      1.0  0.87058  0.19388  0.97265  1.0000
  C   C504      1.0  0.58369  0.98866  0.69219  1.0000
  H   H612      1.0  0.96144  0.30446  0.94856  1.0000
  C   C505      1.0  0.77447  0.11420  0.96693  1.0000
  H   H613      1.0  0.75253  0.11066  0.96234  1.0000
  H   H614      1.0  0.93704  0.28762  0.96728  1.0000
  C   C506      1.0  0.81285  0.14706  0.97023  1.0000
  H   H615      1.0  0.94635  0.35280  0.96527  1.0000
  C   C507      1.0  0.65644  0.98117  0.88760  1.0000
  C   C508      1.0  0.92006  0.40133  0.64907  1.0000
  H   H616      1.0  0.97838  0.43557  0.77333  1.0000
  S   S144      1.0  0.68227  0.98048  0.96124  1.0000
  C   C509      1.0  0.88776  0.47526  0.74765  1.0000
  H   H617      1.0  0.50872  0.15989  0.74394  1.0000
  C   C510      1.0  0.50429  0.14386  0.75683  1.0000
  C   C511      1.0  0.48943  0.01062  0.65479  1.0000
  H   H618      1.0  0.91529  0.77049  0.16968  1.0000
  H   H619      1.0  0.55584  0.87666  0.17752  1.0000
  C   C512      1.0  0.90002  0.70973  0.14378  1.0000
  Fe  Fe72      1.0  0.78523  0.54177  0.26122  1.0000
  S   S145      1.0  0.82832  0.51749  0.26899  1.0000
  S   S146      1.0  0.77906  0.56435  0.22777  1.0000
  C   C513      1.0  0.94936  0.49934  0.21287  1.0000
  H   H620      1.0  0.86212  0.48769  0.13351  1.0000
  H   H621      1.0  0.90890  0.54533  0.27822  1.0000
  Fe  Fe73      1.0  0.91215  0.59150  0.11695  1.0000
  S   S147      1.0  0.95867  0.60152  0.11362  1.0000
  S   S148      1.0  0.89349  0.56123  0.09395  1.0000
  Fe  Fe74      1.0  0.90024  0.62831  0.15736  1.0000
  S   S149      1.0  0.94594  0.64182  0.15702  1.0000
  S   S150      1.0  0.86857  0.64595  0.18399  1.0000
  Fe  Fe75      1.0  0.94066  0.64739  0.11987  1.0000
  S   S151      1.0  0.96083  0.68190  0.09851  1.0000
  Fe  Fe76      1.0  0.95927  0.59481  0.15075  1.0000
  S   S152      1.0  0.89369  0.63783  0.12076  1.0000
  S   S153      1.0  0.91401  0.58104  0.15346  1.0000
  H   H622      1.0  0.55819  0.83195  0.20180  1.0000
  Fe  Fe77      1.0  0.91749  0.78622  0.99367  1.0000
  S   S154      1.0  0.89967  0.77066  0.02720  1.0000
  H   H623      1.0  0.98009  0.49655  0.11299  1.0000
  C   C514      1.0  0.85337  0.50922  0.14004  1.0000
  C   C515      1.0  0.91630  0.59955  0.25851  1.0000
  H   H624      1.0  0.76071  0.57817  0.17850  1.0000
  C   C516      1.0  0.92006  0.68615  0.00166  1.0000
  C   C517      1.0  0.94322  0.70475  0.07777  1.0000
  C   C518      1.0  0.96041  0.71856  0.06178  1.0000
  C   C519      1.0  0.94736  0.73788  0.04554  1.0000
  C   C520      1.0  0.91697  0.74400  0.04547  1.0000
  C   C521      1.0  0.89979  0.72990  0.06130  1.0000
  C   C522      1.0  0.91279  0.71017  0.07726  1.0000
  H   H625      1.0  0.96284  0.65036  0.05483  1.0000
  H   H626      1.0  0.96084  0.74873  0.03355  1.0000
  H   H627      1.0  0.87627  0.73466  0.06141  1.0000
  H   H628      1.0  0.89926  0.69978  0.08944  1.0000
  C   C523      1.0  0.80699  0.58559  0.21859  1.0000
  C   C524      1.0  0.82964  0.57391  0.20450  1.0000
  C   C525      1.0  0.84906  0.59209  0.19411  1.0000
  C   C526      1.0  0.84598  0.62199  0.19780  1.0000
  C   C527      1.0  0.82398  0.63339  0.21252  1.0000
  C   C528      1.0  0.80444  0.61531  0.22275  1.0000
  H   H629      1.0  0.83129  0.55106  0.20079  1.0000
  H   H630      1.0  0.86568  0.58301  0.18270  1.0000
  H   H631      1.0  0.82142  0.65645  0.21550  1.0000
  H   H632      1.0  0.78671  0.62455  0.23331  1.0000
  C   C529      1.0  0.90153  0.50192  0.09050  1.0000
  C   C530      1.0  0.91369  0.52712  0.09642  1.0000
  C   C531      1.0  0.94188  0.52495  0.10483  1.0000
  C   C532      1.0  0.94419  0.75811  0.11555  1.0000
  H   H633      1.0  0.87999  0.50341  0.08360  1.0000
  H   H634      1.0  0.95151  0.54404  0.10951  1.0000
  H   H635      1.0  0.50713  0.88222  0.17198  1.0000
  H   H636      1.0  0.90361  0.59175  0.21551  1.0000
  H   H637      1.0  0.90392  0.73757  0.18248  1.0000
  H   H638      1.0  0.86173  0.55893  0.24532  1.0000
  H   H639      1.0  0.90578  0.52733  0.25274  1.0000
  H   H640      1.0  0.96388  0.77843  0.08690  1.0000
  H   H641      1.0  0.77805  0.97077  0.02080  1.0000
  C   C533      1.0  0.91512  0.54598  0.26022  1.0000
  C   C534      1.0  0.94686  0.72186  0.15490  1.0000
  H   H642      1.0  0.91714  0.80194  0.07292  1.0000
  C   C535      1.0  0.77855  0.57637  0.16626  1.0000
  C   C536      1.0  0.91621  0.67290  0.98162  1.0000
  H   H643      1.0  0.95796  0.70774  0.14191  1.0000
  H   H644      1.0  0.90200  0.55351  0.21776  1.0000
  C   C537      1.0  0.91985  0.65225  0.25764  1.0000
  H   H645      1.0  0.57525  0.89572  0.19674  1.0000
  C   C538      1.0  0.79807  0.88457  0.97765  1.0000
  H   H646      1.0  0.80158  0.52859  0.10168  1.0000
  H   H647      1.0  0.97996  0.62274  0.03724  1.0000
  S   S155      1.0  0.92652  0.83256  0.98518  1.0000
  H   H648      1.0  0.56122  0.89938  0.23452  1.0000
  C   C539      1.0  0.92812  0.49938  0.19678  1.0000
  H   H649      1.0  0.97251  0.61049  0.19797  1.0000
  H   H650      1.0  0.93574  0.56866  0.22251  1.0000
  C   C540      1.0  0.81238  0.54613  0.14225  1.0000
  C   C541      1.0  0.82645  0.57147  0.13670  1.0000
  H   H651      1.0  0.77668  0.53126  0.16346  1.0000
  C   C542      1.0  0.81658  0.59840  0.14549  1.0000
  C   C543      1.0  0.82359  0.52065  0.10789  1.0000
  C   C544      1.0  0.79260  0.60085  0.16018  1.0000
  N   N36       1.0  0.82041  0.97823  0.00632  1.0000
  C   C545      1.0  0.92557  0.66927  0.02104  1.0000
  H   H652      1.0  0.84549  0.57058  0.12573  1.0000
  S   S156      1.0  0.77907  0.56252  0.29443  1.0000
  H   H653      1.0  0.82809  0.61731  0.14142  1.0000
  C   C546      1.0  0.93917  0.64923  0.27520  1.0000
  H   H654      1.0  0.78561  0.62153  0.16759  1.0000
  H   H655      1.0  0.96755  0.51240  0.21013  1.0000
  C   C547      1.0  0.50061  0.96836  0.21181  1.0000
  C   C548      1.0  0.78822  0.54933  0.15756  1.0000
  H   H656      1.0  0.88691  0.89787  0.99205  1.0000
  H   H657      1.0  0.78794  0.87529  0.99230  1.0000
  C   C549      1.0  0.91164  0.57197  0.22527  1.0000
  H   H658      1.0  0.86167  0.59732  0.24389  1.0000
  C   C550      1.0  0.95809  0.49789  0.10698  1.0000
  H   H659      1.0  0.91097  0.65253  0.06404  1.0000
  H   H660      1.0  0.87068  0.76444  0.12712  1.0000
  H   H661      1.0  0.52436  0.91280  0.22870  1.0000
  H   H662      1.0  0.91275  0.58321  0.03374  1.0000
  H   H663      1.0  0.89935  0.69457  0.15853  1.0000
  C   C551      1.0  0.91077  0.62966  0.05905  1.0000
  C   C552      1.0  0.49701  0.96735  0.23513  1.0000
  C   C553      1.0  0.92313  0.62559  0.00029  1.0000
  H   H664      1.0  0.88853  0.62691  0.05304  1.0000
  H   H665      1.0  0.94842  0.66803  0.28134  1.0000
  C   C554      1.0  0.85053  0.96364  0.00541  1.0000
  C   C555      1.0  0.91745  0.78916  0.08837  1.0000
  C   C556      1.0  0.94776  0.48202  0.23228  1.0000
  H   H666      1.0  0.88031  0.75852  0.16390  1.0000
  H   H667      1.0  0.96110  0.73916  0.15856  1.0000
  C   C557      1.0  0.85574  0.93466  0.99812  1.0000
  C   C558      1.0  0.92730  0.63848  0.02102  1.0000
  C   C559      1.0  0.87187  0.57738  0.25236  1.0000
  H   H668      1.0  0.80302  0.48007  0.23609  1.0000
  S   S157      1.0  0.75877  0.50508  0.27131  1.0000
  H   H669      1.0  0.89361  0.63135  0.23571  1.0000
  N   N37       1.0  0.90411  0.57405  0.24937  1.0000
  C   C560      1.0  0.94377  0.77586  0.09628  1.0000
  C   C561      1.0  0.93418  0.58940  0.03925  1.0000
  H   H670      1.0  0.83917  0.53593  0.10139  1.0000
  H   H671      1.0  0.96527  0.74762  0.12014  1.0000
  H   H672      1.0  0.90956  0.69706  0.12948  1.0000
  C   C562      1.0  0.96241  0.62735  0.05011  1.0000
  N   N38       1.0  0.91739  0.73432  0.14788  1.0000
  H   H673      1.0  0.93940  0.54202  0.25852  1.0000
  H   H674      1.0  0.92983  0.51237  0.18156  1.0000
  C   C563      1.0  0.94696  0.62187  0.28470  1.0000
  H   H675      1.0  0.58115  0.85097  0.21893  1.0000
  H   H676      1.0  0.78209  0.49891  0.13354  1.0000
  H   H677      1.0  0.92398  0.60238  0.99855  1.0000
  H   H678      1.0  0.92858  0.68056  0.03609  1.0000
  H   H679      1.0  0.87692  0.71691  0.13990  1.0000
  C   C564      1.0  0.89138  0.78496  0.09977  1.0000
  C   C565      1.0  0.55811  0.84681  0.21605  1.0000
  C   C566      1.0  0.89153  0.76739  0.11912  1.0000
  C   C567      1.0  0.55308  0.88993  0.19269  1.0000
  N   N39       1.0  0.93353  0.62131  0.04185  1.0000
  C   C568      1.0  0.90363  0.75099  0.16676  1.0000
  C   C569      1.0  0.90850  0.62786  0.24939  1.0000
  C   C570      1.0  0.91796  0.75335  0.12762  1.0000
  H   H680      1.0  0.79672  0.93976  0.00900  1.0000
  S   S158      1.0  0.75100  0.92565  0.97867  1.0000
  C   C571      1.0  0.80034  0.95942  0.01832  1.0000
  H   H681      1.0  0.86537  0.57859  0.27034  1.0000
  H   H682      1.0  0.91380  0.67355  0.25024  1.0000
  C   C572      1.0  0.93566  0.59734  0.27666  1.0000
  H   H683      1.0  0.83553  0.85243  0.97775  1.0000
  H   H684      1.0  0.97889  0.61502  0.23865  1.0000
  C   C573      1.0  0.50931  0.86713  0.20702  1.0000
  H   H685      1.0  0.53168  0.88185  0.24680  1.0000
  H   H686      1.0  0.94325  0.57683  0.28459  1.0000
  C   C574      1.0  0.49242  0.85406  0.22398  1.0000
  H   H687      1.0  0.91394  0.61610  0.07456  1.0000
  H   H688      1.0  0.86901  0.52495  0.13437  1.0000
  N   N40       1.0  0.53936  0.87414  0.21150  1.0000
  C   C575      1.0  0.53916  0.89268  0.23124  1.0000
  H   H689      1.0  0.53986  0.91076  0.18847  1.0000
  H   H690      1.0  0.95172  0.58120  0.02729  1.0000
  H   H691      1.0  0.55043  0.83488  0.23108  1.0000
  H   H692      1.0  0.92966  0.92336  0.00222  1.0000
  H   H693      1.0  0.83804  0.92290  0.99294  1.0000
  S   S159      1.0  0.49196  0.94850  0.16992  1.0000
  C   C576      1.0  0.88387  0.92026  0.99722  1.0000
  H   H694      1.0  0.85398  0.50731  0.15853  1.0000
  N   N41       1.0  0.82322  0.51793  0.13255  1.0000
  H   H695      1.0  0.94572  0.70783  0.17023  1.0000
  Fe  Fe78      1.0  0.80173  0.48213  0.28132  1.0000
  H   H696      1.0  0.83049  0.49945  0.10010  1.0000
  H   H697      1.0  0.80874  0.95228  0.03498  1.0000
  C   C577      1.0  0.49633  0.87198  0.18583  1.0000
  H   H698      1.0  0.87091  0.79480  0.09318  1.0000
  H   H699      1.0  0.91880  0.70970  0.00220  1.0000
  C   C578      1.0  0.90781  0.93453  0.00293  1.0000
  C   C579      1.0  0.90363  0.96330  0.00950  1.0000
  H   H700      1.0  0.92237  0.97442  0.01373  1.0000
  H   H701      1.0  0.50076  0.84937  0.24045  1.0000
  C   C580      1.0  0.80504  0.49400  0.13892  1.0000
  Fe  Fe79      1.0  0.75685  0.52317  0.30572  1.0000
  H   H702      1.0  0.93856  0.57723  0.05533  1.0000
  H   H703      1.0  0.96852  0.61400  0.06528  1.0000
  H   H704      1.0  0.81502  0.48098  0.19590  1.0000
  H   H705      1.0  0.96264  0.61934  0.29797  1.0000
  H   H706      1.0  0.80504  0.48945  0.15719  1.0000
  H   H707      1.0  0.68345  0.48515  0.24014  1.0000
  H   H708      1.0  0.88841  0.48207  0.18768  1.0000
  C   C581      1.0  0.98496  0.59340  0.20725  1.0000
  C   C582      1.0  0.87547  0.97781  0.01070  1.0000
  H   H709      1.0  0.98398  0.71457  0.06208  1.0000
  C   C583      1.0  0.91769  0.64270  0.98094  1.0000
  C   C584      1.0  0.90485  0.48248  0.20025  1.0000
  Fe  Fe80      1.0  0.82024  0.53500  0.30304  1.0000
  H   H710      1.0  0.96539  0.48244  0.24369  1.0000
  Fe  Fe81      1.0  0.82291  0.53562  0.61781  1.0000
  H   H711      1.0  0.83149  0.51717  0.56397  1.0000
  S   S160      1.0  0.84877  0.56145  0.59358  1.0000
  Fe  Fe82      1.0  0.76773  0.50479  0.62074  1.0000
  C   C585      1.0  0.71474  0.50262  0.57619  1.0000
  C   C586      1.0  0.70621  0.48528  0.55917  1.0000
  Fe  Fe83      1.0  0.63617  0.51959  0.49229  1.0000
  H   H712      1.0  0.94331  0.52969  0.62798  1.0000
  S   S161      1.0  0.65640  0.54327  0.51998  1.0000
  Fe  Fe84      1.0  0.58962  0.52999  0.45652  1.0000
  H   H713      1.0  0.54879  0.61762  0.41470  1.0000
  S   S162      1.0  0.55058  0.55738  0.44188  1.0000
  H   H714      1.0  0.50494  0.67602  0.35138  1.0000
  H   H715      1.0  0.80655  0.59261  0.38559  1.0000
  C   C587      1.0  0.75228  0.54765  0.51925  1.0000
  S   S163      1.0  0.58815  0.51350  0.49191  1.0000
  S   S164      1.0  0.63663  0.53977  0.45767  1.0000
  H   H716      1.0  0.73489  0.56488  0.37733  1.0000
  H   H717      1.0  0.82612  0.51327  0.38523  1.0000
  S   S165      1.0  0.71418  0.52904  0.32583  1.0000
  H   H718      1.0  0.91677  0.56239  0.32429  1.0000
  C   C588      1.0  0.93079  0.58532  0.59012  1.0000
  C   C589      1.0  0.50397  0.63963  0.47234  1.0000
  C   C590      1.0  0.51888  0.71248  0.55255  1.0000
  C   C591      1.0  0.53948  0.64587  0.36234  1.0000
  C   C592      1.0  0.51328  0.64883  0.40466  1.0000
  H   H719      1.0  0.82883  0.50101  0.53754  1.0000
  C   C593      1.0  0.77495  0.54769  0.39450  1.0000
  C   C594      1.0  0.53303  0.63048  0.47774  1.0000
  N   N42       1.0  0.79623  0.55056  0.37579  1.0000
  C   C595      1.0  0.88358  0.49995  0.32229  1.0000
  H   H720      1.0  0.79678  0.50546  0.36797  1.0000
  H   H721      1.0  0.82737  0.52295  0.35649  1.0000
  C   C596      1.0  0.67368  0.51281  0.38525  1.0000
  C   C597      1.0  0.68012  0.52322  0.36358  1.0000
  C   C598      1.0  0.70726  0.51520  0.35308  1.0000
  C   C599      1.0  0.81769  0.57087  0.38164  1.0000
  H   H722      1.0  0.54975  0.64458  0.34591  1.0000
  H   H723      1.0  0.65278  0.51931  0.39321  1.0000
  H   H724      1.0  0.66399  0.53770  0.35496  1.0000
  H   H725      1.0  0.53895  0.72317  0.55585  1.0000
  H   H726      1.0  0.96055  0.52673  0.32683  1.0000
  C   C600      1.0  0.54712  0.60448  0.46946  1.0000
  C   C601      1.0  0.53237  0.58767  0.45539  1.0000
  H   H727      1.0  0.59437  0.52022  0.55174  1.0000
  H   H728      1.0  0.56973  0.59800  0.47329  1.0000
  H   H729      1.0  0.62758  0.50987  0.56608  1.0000
  C   C602      1.0  0.51824  0.96204  0.37113  1.0000
  C   C603      1.0  0.70594  0.53243  0.57536  1.0000
  C   C604      1.0  0.68848  0.54457  0.55785  1.0000
  C   C605      1.0  0.67946  0.52708  0.54110  1.0000
  H   H730      1.0  0.57195  0.61500  0.37720  1.0000
  S   S166      1.0  0.79794  0.49699  0.31667  1.0000
  H   H731      1.0  0.71205  0.54602  0.58846  1.0000
  C   C606      1.0  0.77825  0.54537  0.56521  1.0000
  H   H732      1.0  0.94206  0.60146  0.58087  1.0000
  H   H733      1.0  0.50541  0.71158  0.56818  1.0000
  C   C607      1.0  0.50308  0.59649  0.45038  1.0000
  C   C608      1.0  0.90126  0.54365  0.61383  1.0000
  C   C609      1.0  0.88606  0.56299  0.59881  1.0000
  C   C610      1.0  0.72500  0.55242  0.41049  1.0000
  C   C611      1.0  0.90821  0.47982  0.32461  1.0000
  H   H734      1.0  0.68152  0.56759  0.55749  1.0000
  C   C612      1.0  0.77306  0.52629  0.52860  1.0000
  H   H735      1.0  0.76652  0.54705  0.34899  1.0000
  C   C613      1.0  0.73209  0.54049  0.50381  1.0000
  H   H736      1.0  0.50943  0.52048  0.46041  1.0000
  C   C614      1.0  0.73181  0.51190  0.49734  1.0000
  C   C615      1.0  0.74449  0.55612  0.39260  1.0000
  H   H737      1.0  0.52897  0.70163  0.51076  1.0000
  H   H738      1.0  0.83369  0.57392  0.36765  1.0000
  H   H739      1.0  0.77105  0.58389  0.35655  1.0000
  C   C616      1.0  0.50464  0.96947  0.35095  1.0000
  C   C617      1.0  0.90092  0.58379  0.58705  1.0000
  H   H740      1.0  0.88931  0.59879  0.57547  1.0000
  C   C618      1.0  0.61206  0.50229  0.55415  1.0000
  S   S167      1.0  0.73477  0.48574  0.59875  1.0000
  H   H741      1.0  0.75096  0.56998  0.52423  1.0000
  H   H742      1.0  0.54495  0.64382  0.48801  1.0000
  C   C619      1.0  0.72140  0.48584  0.38598  1.0000
  H   H743      1.0  0.79897  0.56354  0.34106  1.0000
  C   C620      1.0  0.81100  0.55792  0.53530  1.0000
  C   C621      1.0  0.69433  0.49411  0.39659  1.0000
  H   H744      1.0  0.62408  0.49954  0.53792  1.0000
  H   H745      1.0  0.82197  0.55134  0.51927  1.0000
  C   C622      1.0  0.51357  0.66391  0.36576  1.0000
  C   C623      1.0  0.88661  0.52973  0.32241  1.0000
  H   H746      1.0  0.83078  0.56291  0.39625  1.0000
  H   H747      1.0  0.76715  0.52783  0.57390  1.0000
  C   C624      1.0  0.78244  0.56172  0.35476  1.0000
  H   H748      1.0  0.71570  0.55697  0.49753  1.0000
  C   C625      1.0  0.73501  0.54006  0.43059  1.0000
  H   H749      1.0  0.52603  0.68947  0.54854  1.0000
  H   H750      1.0  0.56522  0.49493  0.58188  1.0000
  C   C626      1.0  0.81223  0.52183  0.37123  1.0000
  S   S168      1.0  0.77605  0.55140  0.62571  1.0000
  N   N43       1.0  0.79420  0.53452  0.54492  1.0000
  C   C627      1.0  0.93144  0.54497  0.61675  1.0000
  N   N44       1.0  0.50210  0.72773  0.53416  1.0000
  C   C628      1.0  0.76473  0.53204  0.43315  1.0000
  H   H751      1.0  0.80734  0.52933  0.41823  1.0000
  C   C629      1.0  0.68852  0.49734  0.54180  1.0000
  H   H752      1.0  0.88995  0.52725  0.62269  1.0000
  H   H753      1.0  0.52632  0.97563  0.40412  1.0000
  C   C630      1.0  0.78451  0.53596  0.41547  1.0000
  C   C631      1.0  0.91433  0.53937  0.32428  1.0000
  C   C632      1.0  0.52063  0.72470  0.51357  1.0000
  H   H754      1.0  0.82827  0.56338  0.54675  1.0000
  S   S169      1.0  0.85591  0.55501  0.31974  1.0000
  C   C633      1.0  0.55209  0.62924  0.37992  1.0000
  H   H755      1.0  0.79327  0.55341  0.57729  1.0000
  Fe  Fe85      1.0  0.64769  0.49409  0.44628  1.0000
  H   H756      1.0  0.70174  0.55813  0.40850  1.0000
  H   H757      1.0  0.97052  0.61107  0.63921  1.0000
  C   C634      1.0  0.93911  0.51922  0.32565  1.0000
  H   H758      1.0  0.53975  0.73763  0.51430  1.0000
  C   C635      1.0  0.94620  0.56579  0.60474  1.0000
  C   C636      1.0  0.53904  0.63077  0.40105  1.0000
  H   H759      1.0  0.76135  0.56360  0.56162  1.0000
  H   H760      1.0  0.53080  0.94111  0.37328  1.0000
  H   H761      1.0  0.71952  0.53620  0.44403  1.0000
  C   C637      1.0  0.81570  0.51009  0.55195  1.0000
  H   H762      1.0  0.77236  0.52231  0.44883  1.0000
  C   C638      1.0  0.75171  0.49033  0.50629  1.0000
  S   S170      1.0  0.81435  0.48997  0.61118  1.0000
  H   H763      1.0  0.50400  0.64918  0.42131  1.0000
  C   C639      1.0  0.49956  0.66578  0.38714  1.0000
  H   H764      1.0  0.50840  0.73168  0.49831  1.0000
  H   H765      1.0  0.86228  0.49235  0.32077  1.0000
  H   H766      1.0  0.49157  0.58362  0.43944  1.0000
  C   C640      1.0  0.49334  0.75881  0.53827  1.0000
  H   H767      1.0  0.79702  0.57855  0.53229  1.0000
  H   H768      1.0  0.50606  0.75946  0.57330  1.0000
  C   C641      1.0  0.93600  0.48943  0.32615  1.0000
  C   C642      1.0  0.72790  0.49639  0.36435  1.0000
  H   H769      1.0  0.49277  0.71807  0.40538  1.0000
  S   S171      1.0  0.98388  0.56818  0.60742  1.0000
  C   C643      1.0  0.49679  0.77159  0.55916  1.0000
  H   H770      1.0  0.71547  0.50631  0.48592  1.0000
  C   C644      1.0  0.77204  0.49723  0.52175  1.0000
  S   S172      1.0  0.68766  0.48104  0.42411  1.0000
  H   H771      1.0  0.50714  0.95368  0.33796  1.0000
  H   H772      1.0  0.80475  0.49240  0.56072  1.0000
  H   H773      1.0  0.56002  0.48513  0.54423  1.0000
  S   S173      1.0  0.60064  0.48557  0.44213  1.0000
  C   C645      1.0  0.48876  0.62214  0.45911  1.0000
  H   H774      1.0  0.74884  0.49003  0.35649  1.0000
  H   H775      1.0  0.68194  0.48360  0.52897  1.0000
  C   C646      1.0  0.49492  0.50341  0.46235  1.0000
  H   H776      1.0  0.59871  0.48773  0.59598  1.0000
  H   H777      1.0  0.78633  0.47933  0.52835  1.0000
  H   H778      1.0  0.48919  0.80992  0.57893  1.0000
  C   C647      1.0  0.58492  0.47903  0.58335  1.0000
  H   H779      1.0  0.64138  0.94361  0.87263  1.0000
  H   H780      1.0  0.98006  0.50000  0.73467  1.0000
  H   H781      1.0  0.87946  0.55780  0.67523  1.0000
  H   H782      1.0  0.52837  0.93943  0.69178  1.0000
  H   H783      1.0  0.92414  0.76516  0.88691  1.0000
  C   C648      1.0  0.96311  0.61395  0.65627  1.0000
  H   H784      1.0  0.91583  0.48444  0.68244  1.0000
  C   C649      1.0  0.49344  0.92559  0.74097  1.0000
  H   H785      1.0  0.93382  0.54434  0.67723  1.0000
  H   H786      1.0  0.82674  0.48688  0.74671  1.0000
  C   C650      1.0  0.79735  0.92124  0.94811  1.0000
  C   C651      1.0  0.91434  0.74027  0.85854  1.0000
  S   S174      1.0  0.92517  0.66265  0.77073  1.0000
  Fe  Fe86      1.0  0.88391  0.60465  0.80157  1.0000
  S   S175      1.0  0.86131  0.64801  0.79111  1.0000
  S   S176      1.0  0.85892  0.56902  0.81623  1.0000
  Fe  Fe87      1.0  0.88704  0.64048  0.75915  1.0000
  S   S177      1.0  0.87059  0.64572  0.72393  1.0000
  Fe  Fe88      1.0  0.90137  0.66617  0.80407  1.0000
  S   S178      1.0  0.90310  0.70896  0.82201  1.0000
  S   S179      1.0  0.90702  0.59615  0.76888  1.0000
  H   H787      1.0  0.82853  0.52536  0.74674  1.0000
  C   C652      1.0  0.92267  0.61476  0.68277  1.0000
  H   H788      1.0  0.91208  0.68610  0.96658  1.0000
  C   C653      1.0  0.98240  0.62115  0.67285  1.0000
  S   S180      1.0  0.78014  0.55925  0.69427  1.0000
  S   S181      1.0  0.88555  0.78484  0.96604  1.0000
  C   C654      1.0  0.77101  0.58766  0.78533  1.0000
  C   C655      1.0  0.93008  0.53609  0.69458  1.0000
  S   S182      1.0  0.49441  0.93090  0.76983  1.0000
  S   S183      1.0  0.83474  0.52567  0.65303  1.0000
  H   H789      1.0  0.98329  0.63008  0.70859  1.0000
  Fe  Fe89      1.0  0.92427  0.76698  0.94541  1.0000
  H   H790      1.0  0.83440  0.51875  0.78716  1.0000
  S   S184      1.0  0.91902  0.72615  0.92595  1.0000
  Fe  Fe90      1.0  0.89799  0.82912  0.95584  1.0000
  C   C656      1.0  0.88977  0.49384  0.76516  1.0000
  S   S185      1.0  0.93434  0.81106  0.93308  1.0000
  C   C657      1.0  0.74208  0.57453  0.75503  1.0000
  C   C658      1.0  0.89880  0.50300  0.68033  1.0000
  H   H791      1.0  0.90187  0.55519  0.73590  1.0000
  H   H792      1.0  0.78670  0.94027  0.93972  1.0000
  C   C659      1.0  0.89108  0.48505  0.72565  1.0000
  C   C660      1.0  0.83828  0.88350  0.95057  1.0000
  C   C661      1.0  0.84545  0.62174  0.71573  1.0000
  C   C662      1.0  0.83252  0.60373  0.73136  1.0000
  C   C663      1.0  0.81245  0.58496  0.72453  1.0000
  C   C664      1.0  0.80575  0.58315  0.70202  1.0000
  C   C665      1.0  0.81928  0.60061  0.68626  1.0000
  C   C666      1.0  0.83865  0.62022  0.69315  1.0000
  H   H793      1.0  0.83745  0.60476  0.74881  1.0000
  H   H794      1.0  0.80211  0.57184  0.73680  1.0000
  H   H795      1.0  0.81418  0.59963  0.66885  1.0000
  H   H796      1.0  0.84832  0.63430  0.68095  1.0000
  C   C667      1.0  0.90736  0.71333  0.85098  1.0000
  C   C668      1.0  0.91800  0.74462  0.88140  1.0000
  C   C669      1.0  0.91426  0.72216  0.89699  1.0000
  C   C670      1.0  0.90729  0.69525  0.88943  1.0000
  C   C671      1.0  0.90393  0.69080  0.86657  1.0000
  H   H797      1.0  0.90447  0.67768  0.90134  1.0000
  H   H798      1.0  0.89840  0.67002  0.86104  1.0000
  Fe  Fe91      1.0  0.94286  0.61843  0.78291  1.0000
  C   C672      1.0  0.81332  0.50805  0.74811  1.0000
  H   H799      1.0  0.77395  0.86083  0.93698  1.0000
  N   N45       1.0  0.94848  0.91597  0.93637  1.0000
  H   H800      1.0  0.82882  0.48117  0.78676  1.0000
  C   C673      1.0  0.93374  0.61067  0.66122  1.0000
  C   C674      1.0  0.92993  0.51102  0.82415  1.0000
  C   C675      1.0  0.91209  0.53692  0.82014  1.0000
  C   C676      1.0  0.88166  0.53714  0.82191  1.0000
  C   C677      1.0  0.86915  0.51144  0.82757  1.0000
  H   H801      1.0  0.94767  0.51839  0.69817  1.0000
  C   C678      1.0  0.77943  0.53850  0.77061  1.0000
  H   H802      1.0  0.92188  0.55672  0.81587  1.0000
  H   H803      1.0  0.84571  0.51170  0.82954  1.0000
  H   H804      1.0  0.88719  0.48597  0.78221  1.0000
  H   H805      1.0  0.89548  0.53714  0.77439  1.0000
  H   H806      1.0  0.93208  0.62504  0.71625  1.0000
  S   S186      1.0  0.60371  0.96415  0.83702  1.0000
  H   H807      1.0  0.88002  0.56839  0.70344  1.0000
  C   C679      1.0  0.51224  0.93152  0.70316  1.0000
  C   C680      1.0  0.89688  0.51408  0.72048  1.0000
  H   H808      1.0  0.97074  0.66271  0.80737  1.0000
  H   H809      1.0  0.77689  0.60378  0.79672  1.0000
  Fe  Fe92      1.0  0.96258  0.81248  0.96301  1.0000
  H   H810      1.0  0.93295  0.55435  0.70564  1.0000
  S   S187      1.0  0.92177  0.62304  0.81700  1.0000
  C   C681      1.0  0.87818  0.54951  0.69279  1.0000
  H   H811      1.0  0.80571  0.50469  0.80427  1.0000
  H   H812      1.0  0.53087  0.94848  0.73217  1.0000
  N   N46       1.0  0.79627  0.50963  0.76938  1.0000
  H   H813      1.0  0.79912  0.51066  0.73331  1.0000
  C   C682      1.0  0.93495  0.96761  0.94950  1.0000
  C   C683      1.0  0.78425  0.90958  0.96716  1.0000
  H   H814      1.0  0.91461  0.63255  0.96526  1.0000
  H   H815      1.0  0.87708  0.49426  0.68098  1.0000
  C   C684      1.0  0.78599  0.55988  0.78575  1.0000
  H   H816      1.0  0.66970  0.96857  0.89970  1.0000
  C   C685      1.0  0.82431  0.90827  0.93990  1.0000
  S   S188      1.0  0.87209  0.86801  0.93964  1.0000
  C   C686      1.0  0.97972  0.94095  0.96203  1.0000
  H   H817      1.0  0.89975  0.61308  0.68647  1.0000
  C   C687      1.0  0.75688  0.54667  0.75530  1.0000
  Fe  Fe93      1.0  0.78754  0.53748  0.66102  1.0000
  C   C688      1.0  0.89828  0.53266  0.73868  1.0000
  H   H818      1.0  0.85588  0.54251  0.69588  1.0000
  Fe  Fe94      1.0  0.72973  0.97090  0.96987  1.0000
  N   N47       1.0  0.90087  0.52524  0.69739  1.0000
  H   H819      1.0  0.76104  0.48863  0.78509  1.0000
  H   H820      1.0  0.90192  0.92563  0.93227  1.0000
  H   H821      1.0  0.90195  0.51192  0.66312  1.0000
  H   H822      1.0  0.72577  0.58055  0.74257  1.0000
  C   C689      1.0  0.57209  0.96136  0.66061  1.0000
  C   C690      1.0  0.76551  0.86450  0.90204  1.0000
  N   N48       1.0  0.84217  0.80368  0.89308  1.0000
  C   C691      1.0  0.86452  0.81899  0.88049  1.0000
  C   C692      1.0  0.85545  0.79204  0.91415  1.0000
  C   C693      1.0  0.83513  0.77845  0.88021  1.0000
  C   C694      1.0  0.81562  0.82406  0.89656  1.0000
  C   C695      1.0  0.80574  0.83373  0.91797  1.0000
  C   C696      1.0  0.79932  0.83572  0.87807  1.0000
  C   C697      1.0  0.78099  0.85356  0.92053  1.0000
  C   C698      1.0  0.77463  0.85558  0.88084  1.0000
  H   H823      1.0  0.91478  0.97011  0.94055  1.0000
  H   H824      1.0  0.87001  0.83832  0.88962  1.0000
  H   H825      1.0  0.88513  0.80462  0.87789  1.0000
  H   H826      1.0  0.85703  0.82670  0.86373  1.0000
  H   H827      1.0  0.86325  0.80968  0.92392  1.0000
  H   H828      1.0  0.87490  0.77621  0.91113  1.0000
  H   H829      1.0  0.83975  0.78038  0.92462  1.0000
  H   H830      1.0  0.82858  0.78461  0.86294  1.0000
  H   H831      1.0  0.85427  0.76182  0.87857  1.0000
  H   H832      1.0  0.81703  0.76753  0.88850  1.0000
  H   H833      1.0  0.81694  0.82671  0.93304  1.0000
  H   H834      1.0  0.80576  0.82982  0.86127  1.0000
  H   H835      1.0  0.75161  0.53214  0.74257  1.0000
  H   H836      1.0  0.76265  0.48651  0.75522  1.0000
  C   C699      1.0  0.82505  0.87161  0.96945  1.0000
  H   H837      1.0  0.61180  0.95314  0.67891  1.0000
  H   H838      1.0  0.83425  0.91742  0.92513  1.0000
  H   H839      1.0  0.95345  0.51095  0.82316  1.0000
  Fe  Fe95      1.0  0.52046  0.96528  0.78346  1.0000
  C   C700      1.0  0.81715  0.50341  0.78774  1.0000
  C   C701      1.0  0.97453  0.67364  0.82314  1.0000
  H   H840      1.0  0.91730  0.75775  0.84658  1.0000
  C   C702      1.0  0.51371  0.93660  0.72605  1.0000
  C   C703      1.0  0.74917  0.59501  0.76998  1.0000
  H   H841      1.0  0.81107  0.96364  0.97379  1.0000
  H   H842      1.0  0.80303  0.55600  0.79781  1.0000
  C   C704      1.0  0.94356  0.89153  0.95201  1.0000
  H   H843      1.0  0.94035  0.87150  0.94299  1.0000
  C   C705      1.0  0.95423  0.94162  0.94915  1.0000
  H   H844      1.0  0.92464  0.93914  0.90982  1.0000
  Fe  Fe96      1.0  0.82149  0.48124  0.64768  1.0000
  H   H845      1.0  0.92377  0.89663  0.96267  1.0000
  C   C706      1.0  0.89467  0.52261  0.76068  1.0000
  H   H846      1.0  0.91897  0.90136  0.91262  1.0000
  C   C707      1.0  0.92242  0.92101  0.92214  1.0000
  H   H847      1.0  0.96949  0.58013  0.73886  1.0000
  C   C708      1.0  0.97046  0.62470  0.69478  1.0000
  H   H848      1.0  0.73810  0.61678  0.76939  1.0000
  H   H849      1.0  0.76257  0.86431  0.86648  1.0000
  C   C709      1.0  0.94098  0.62157  0.69953  1.0000
  C   C710      1.0  0.77609  0.48641  0.77031  1.0000
  C   C711      1.0  0.88693  0.48534  0.83073  1.0000
  H   H850      1.0  0.74653  0.88011  0.90418  1.0000
  C   C712      1.0  0.59121  0.96650  0.67734  1.0000
  C   C713      1.0  0.91733  0.48518  0.82922  1.0000
  C   C714      1.0  0.49011  0.91612  0.69502  1.0000
  S   S189      1.0  0.77439  0.49223  0.65708  1.0000
  S   S190      1.0  0.52319  0.96987  0.82044  1.0000
  H   H851      1.0  0.96230  0.88586  0.96309  1.0000
  H   H852      1.0  0.95442  0.67240  0.83363  1.0000
  H   H853      1.0  0.57782  0.94382  0.64927  1.0000
  H   H854      1.0  0.96476  0.66971  0.87112  1.0000
  C   C715      1.0  0.64040  0.96707  0.87220  1.0000
  H   H855      1.0  0.97596  0.62868  0.85185  1.0000
  H   H856      1.0  0.96968  0.88892  0.91078  1.0000
  C   C716      1.0  0.97405  0.90702  0.92165  1.0000
  H   H857      1.0  0.91945  0.60540  0.64814  1.0000
  H   H858      1.0  0.95209  0.49140  0.75420  1.0000
  H   H859      1.0  0.98017  0.92550  0.91081  1.0000
  C   C717      1.0  0.98605  0.96492  0.97397  1.0000
  H   H860      1.0  0.97267  0.69747  0.90390  1.0000
  S   S191      1.0  0.95587  0.76610  0.97363  1.0000
  H   H861      1.0  0.97618  0.69706  0.81902  1.0000
  C   C718      1.0  0.97362  0.48313  0.74685  1.0000
  H   H862      1.0  0.53127  0.97255  0.64572  1.0000
  C   C719      1.0  0.98498  0.67973  0.87185  1.0000
  H   H863      1.0  0.98014  0.51276  0.78422  1.0000
  S   S192      1.0  0.56689  0.97503  0.77683  1.0000
  H   H864      1.0  0.56350  0.97590  0.87593  1.0000
  C   C720      1.0  0.54525  0.97821  0.65874  1.0000
