data_image0
_chemical_formula_structural       CHFeS3HSHFeSHFeHSCSC8H5C6H4CH3CH2C2HCHSH2C2HCHCFeH2FeC2SH4C2FeH3C4HC2SHCH3CHCHFeSNC2HCH2CH2C4HCHCH2SHCHSHCHNH6NC2HCHCHCHC2SNC2H2CHCH2CSHCH2C2HFeHFeHCHFe2HCH3SCFeS2FeS2FeSCFeSFeS3C6H4C6H2C2HSCHSHCHC6Fe2HS2NC8H13CHSHCHFeHSHCH2CH4SC2HNHSHCH4CH4CHCH3CSH2CSH2FeSH2NSFeHC2H2CFeS2HNH2FeHC2SH3C2H4C8H4C2HC2H2NCH2C8H4SH2CH2SCHCFeHFeSHC3H8C2H3FeH2C2H2CH4C2HFeC3H3C2H2C5HSCHCHCSH3CH8C2HC3SCHNSFeSHFeSHFeSFeSHSHSCSHCSFeSHFeS2FeSFeS2CHC6H10CHC3HCH2C5FeCH2CHC6H4C5H3CH3CHC2HSNC8H13CHNHC2HSCNH3FeH4CHCSHNH4CSHC2H2SN2H2C2S2C2H4CH2C3HCHFeCHC4H3C2H4CHCHCHC2H2NHCHC3H2CH2CHCHC3HCH3C2HC2HCHC4H4CHNCHCHSHCH3CH5FeSFe2S2FeSFeS3CH2CSFeS2FeS2FeSHS2H4SCFeSHSC2HC7SCH2CH3SHC6H4CSCHFeSHCH2C6HCH2C6H6CH2CHCH4FeHC2NCHCHC2H2CHNC9H14CSCHCNC2HC4HC3HCH2CNH4NH5CHSHCFeCHCH2CHCSHC2H2CHFeS2FeSHFeHFeS3FeS2FeSCFeSFeCSC2SHCSH2C2HC5H2C6H3CH3NH2CH2C2HC3FeCH2C6H6C5H2NC9H13CNC5HCH7CH3C2HCN2CH4C2HCH3CH2S2C2HS3H3CH2C2HCSH4CHCH2CHSC2H5SCFeH3C2H3C3HCNCH3CH3CNCH2CHC3H3CHC3H4NHC5HCH4CH2C2H2C2HCHCHSHCH2CH3SHCHCH5CHFeS2FeSHFeSFeS3FeS4FeS2CSCH2CFeS2FeSCSH3C8H6CHNCH2C5H2CNC6HSH2C6H4NC9H18SH2CHCFeH2C5H3CH2CH3SHC2H3Fe2CSC4H3CHC2HFeHC2NHSCSH2C3HCH2NH3CH3CSC2H3CHCNH2C2H2CHCH4CHCFeH3C2H2CH3SH2CFeC2HSHC4H2SNHC8H2NC2HCH4CH3C2H2SHCHCH5CH2CHCFeC2SCH5SHC5H2SH2CHCHCHCSC2HFeH2SCHCFeSFeS2FeSCSFeS2FeS2FeSFeS3C6H4CH2FeHC8H2CH3S2HFeH2SC6H3NCSFeH2NC2HSC3H6SC2HSH2CHNC6HCH12CHCH3CSHCFeHFeC3NC6SH7CH5C2HSH5C5H2SHCHC2HCHC3H3CHCFeSHSFeSFeHC2HFeSCFeSCFeSCSCH2CSHFeSNHCHC2HNHSHSC3H2CH4C6H3SC7H3CSC3H3CH5SCHNHCH8CH3CH3SCHC2H5CHC2HSH2NH2NHC3H3CH3CHFeC4HC2HC4HCHCHC2H4SHCH2CHC2H3C2H6C
_chemical_formula_sum              "C720 H864 Fe96 S192 N48"
_cell_length_a       44.9897
_cell_length_b       42.9219
_cell_length_c       57.9486
_cell_angle_alpha    85.1819
_cell_angle_beta     90.1096
_cell_angle_gamma    89.5721

_space_group_name_H-M_alt    "P 1"
_space_group_IT_number       1

loop_
  _space_group_symop_operation_xyz
  'x, y, z'

loop_
  _atom_site_type_symbol
  _atom_site_label
  _atom_site_symmetry_multiplicity
  _atom_site_fract_x
  _atom_site_fract_y
  _atom_site_fract_z
  _atom_site_occupancy
  C   C1        1.0  0.37168  0.13506  0.28548  1.0000
  H   H1        1.0  0.50359  0.07229  0.15602  1.0000
  Fe  Fe1       1.0  0.38966  0.04897  0.20237  1.0000
  S   S1        1.0  0.37368  0.09842  0.20346  1.0000
  S   S2        1.0  0.39222  0.02674  0.16873  1.0000
  S   S3        1.0  0.03359  0.34814  0.23632  1.0000
  H   H2        1.0  0.34402  0.02319  0.07361  1.0000
  S   S4        1.0  0.04395  0.42183  0.21762  1.0000
  H   H3        1.0  0.08318  0.47917  0.16382  1.0000
  Fe  Fe2       1.0  0.06330  0.37515  0.21118  1.0000
  S   S5        1.0  0.11195  0.36416  0.20878  1.0000
  H   H4        1.0  0.11878  0.44983  0.18199  1.0000
  Fe  Fe3       1.0  0.19060  0.47690  0.28158  1.0000
  H   H5        1.0  0.05698  0.42823  0.29239  1.0000
  S   S6        1.0  0.20674  0.44941  0.25288  1.0000
  C   C2        1.0  0.04862  0.23371  0.18681  1.0000
  S   S7        1.0  0.44639  0.18514  0.26569  1.0000
  C   C3        1.0  0.05475  0.01051  0.13792  1.0000
  C   C4        1.0  0.03062  0.50296  0.31439  1.0000
  C   C5        1.0  0.13749  0.38798  0.22181  1.0000
  C   C6        1.0  0.12850  0.40942  0.23739  1.0000
  C   C7        1.0  0.14979  0.42763  0.24785  1.0000
  C   C8        1.0  0.17988  0.42508  0.24202  1.0000
  C   C9        1.0  0.18871  0.40372  0.22640  1.0000
  C   C10       1.0  0.16763  0.38500  0.21654  1.0000
  H   H6        1.0  0.10525  0.41172  0.24142  1.0000
  H   H7        1.0  0.14295  0.44404  0.26002  1.0000
  H   H8        1.0  0.21192  0.40170  0.22186  1.0000
  H   H9        1.0  0.17469  0.36841  0.20454  1.0000
  H   H10       1.0  0.09430  0.42894  0.28164  1.0000
  C   C11       1.0  0.42709  0.16010  0.24862  1.0000
  C   C12       1.0  0.40742  0.17326  0.23174  1.0000
  C   C13       1.0  0.39104  0.15407  0.21813  1.0000
  C   C14       1.0  0.39454  0.12160  0.22105  1.0000
  C   C15       1.0  0.41463  0.10836  0.23766  1.0000
  C   C16       1.0  0.43085  0.12759  0.25156  1.0000
  H   H11       1.0  0.40453  0.19837  0.22939  1.0000
  H   H12       1.0  0.37565  0.16444  0.20526  1.0000
  H   H13       1.0  0.41704  0.08334  0.24016  1.0000
  H   H14       1.0  0.44595  0.11733  0.26464  1.0000
  C   C17       1.0  0.13927  0.37402  0.30626  1.0000
  H   H15       1.0  0.03525  0.25411  0.18992  1.0000
  H   H16       1.0  0.02926  0.48770  0.19350  1.0000
  H   H17       1.0  0.12074  0.21066  0.18482  1.0000
  C   C18       1.0  0.35334  0.07809  0.27040  1.0000
  H   H18       1.0  0.08999  0.25693  0.19191  1.0000
  H   H19       1.0  0.08670  0.35131  0.26859  1.0000
  C   C19       1.0  0.37497  0.07765  0.28838  1.0000
  C   C20       1.0  0.07947  0.23533  0.18797  1.0000
  H   H20       1.0  0.05017  0.35780  0.29354  1.0000
  C   C21       1.0  0.01932  0.50279  0.17971  1.0000
  H   H21       1.0  0.43218  0.02622  0.29968  1.0000
  S   S8        1.0  0.36635  0.00869  0.22147  1.0000
  H   H22       1.0  0.35008  0.01959  0.29667  1.0000
  H   H23       1.0  0.34599  0.05714  0.26311  1.0000
  C   C22       1.0  0.04970  0.01066  0.11409  1.0000
  C   C23       1.0  0.10151  0.48730  0.21297  1.0000
  H   H24       1.0  0.27744  0.42756  0.27196  1.0000
  C   C24       1.0  0.06062  0.00864  0.02322  1.0000
  H   H25       1.0  0.16026  0.49361  0.22111  1.0000
  C   C25       1.0  0.16040  0.34190  0.27793  1.0000
  Fe  Fe4       1.0  0.01287  0.41282  0.18880  1.0000
  H   H26       1.0  0.47651  0.08130  0.23534  1.0000
  H   H27       1.0  0.47610  0.02561  0.25095  1.0000
  Fe  Fe5       1.0  0.13680  0.49184  0.31048  1.0000
  C   C26       1.0  0.10764  0.35326  0.27746  1.0000
  C   C27       1.0  0.25559  0.41929  0.30467  1.0000
  S   S9        1.0  0.47612  0.00848  0.15836  1.0000
  H   H28       1.0  0.25217  0.02379  0.17463  1.0000
  H   H29       1.0  0.04016  0.02794  0.16991  1.0000
  H   H30       1.0  0.09792  0.16211  0.17589  1.0000
  H   H31       1.0  0.02521  0.49141  0.29904  1.0000
  C   C28       1.0  0.09671  0.20922  0.18398  1.0000
  C   C29       1.0  0.01969  0.15604  0.15005  1.0000
  Fe  Fe6       1.0  0.46834  0.16364  0.29802  1.0000
  H   H32       1.0  0.34169  0.15642  0.25980  1.0000
  H   H33       1.0  0.37636  0.01706  0.27328  1.0000
  H   H34       1.0  0.02001  0.03317  0.02584  1.0000
  C   C30       1.0  0.16387  0.35953  0.29684  1.0000
  C   C31       1.0  0.02680  0.02944  0.10380  1.0000
  C   C32       1.0  0.50364  0.13088  0.19274  1.0000
  C   C33       1.0  0.05170  0.17890  0.17755  1.0000
  H   H35       1.0  0.49886  0.01151  0.20563  1.0000
  C   C34       1.0  0.02962  0.02591  0.98943  1.0000
  C   C35       1.0  0.34123  0.10625  0.26055  1.0000
  S   S10       1.0  0.49800  0.12151  0.29970  1.0000
  H   H36       1.0  0.07011  0.11696  0.18530  1.0000
  C   C36       1.0  0.46554  0.09404  0.16865  1.0000
  H   H37       1.0  0.03451  0.16496  0.13566  1.0000
  H   H38       1.0  0.15019  0.45192  0.20015  1.0000
  H   H39       1.0  0.12976  0.32553  0.25325  1.0000
  C   C37       1.0  0.13230  0.33848  0.26843  1.0000
  H   H40       1.0  0.32568  0.10612  0.24622  1.0000
  C   C38       1.0  0.03489  0.20604  0.18158  1.0000
  H   H41       1.0  0.49574  0.29166  0.30054  1.0000
  Fe  Fe7       1.0  0.01112  0.39420  0.23994  1.0000
  S   S11       1.0  0.17049  0.45273  0.31332  1.0000
  N   N1        1.0  0.38891  0.04842  0.29883  1.0000
  C   C39       1.0  0.42038  0.04718  0.29137  1.0000
  C   C40       1.0  0.38402  0.10707  0.29537  1.0000
  H   H42       1.0  0.40153  0.10875  0.30794  1.0000
  C   C41       1.0  0.11032  0.37153  0.29666  1.0000
  H   H43       1.0  0.02677  0.13675  0.20786  1.0000
  H   H44       1.0  0.36634  0.41765  0.30861  1.0000
  C   C42       1.0  0.34179  0.01129  0.12007  1.0000
  H   H45       1.0  0.32583  0.40788  0.28646  1.0000
  H   H46       1.0  0.18587  0.36256  0.30396  1.0000
  C   C43       1.0  0.00873  0.04766  0.11726  1.0000
  C   C44       1.0  0.09013  0.50330  0.16145  1.0000
  C   C45       1.0  0.01333  0.04698  0.14116  1.0000
  C   C46       1.0  0.47283  0.13461  0.19441  1.0000
  H   H47       1.0  0.46350  0.15160  0.20530  1.0000
  C   C47       1.0  0.08319  0.18134  0.17884  1.0000
  H   H48       1.0  0.11041  0.47289  0.22829  1.0000
  C   C48       1.0  0.35031  0.13464  0.26811  1.0000
  H   H49       1.0  0.42208  0.04602  0.27233  1.0000
  H   H50       1.0  0.30489  0.00884  0.18303  1.0000
  S   S12       1.0  0.08745  0.48342  0.30719  1.0000
  H   H51       1.0  0.06441  0.00704  0.04183  1.0000
  C   C49       1.0  0.07537  0.41324  0.28655  1.0000
  H   H52       1.0  0.43306  0.06796  0.29589  1.0000
  S   S13       1.0  0.43542  0.03399  0.21368  1.0000
  H   H53       1.0  0.17960  0.33139  0.27029  1.0000
  C   C50       1.0  0.49474  0.04034  0.25442  1.0000
  H   H54       1.0  0.37975  0.15725  0.29057  1.0000
  N   N2        1.0  0.03648  0.14993  0.17202  1.0000
  H   H55       1.0  0.35354  0.36468  0.29899  1.0000
  H   H56       1.0  0.01092  0.20615  0.18059  1.0000
  H   H57       1.0  0.02278  0.02958  0.08538  1.0000
  H   H58       1.0  0.06730  0.40323  0.27064  1.0000
  H   H59       1.0  0.43002  0.11956  0.18318  1.0000
  H   H60       1.0  0.45067  0.07929  0.15968  1.0000
  N   N3        1.0  0.08423  0.38872  0.30483  1.0000
  C   C51       1.0  0.05707  0.12325  0.16923  1.0000
  C   C52       1.0  0.05881  0.36725  0.30950  1.0000
  H   H61       1.0  0.00887  0.13444  0.14484  1.0000
  C   C53       1.0  0.28001  0.41888  0.29000  1.0000
  H   H62       1.0  0.23439  0.42836  0.29808  1.0000
  C   C54       1.0  0.13665  0.46583  0.18687  1.0000
  H   H63       1.0  0.28602  0.02091  0.12104  1.0000
  C   C55       1.0  0.03507  0.02360  0.01374  1.0000
  H   H64       1.0  0.08314  0.47396  0.20572  1.0000
  C   C56       1.0  0.37408  0.01969  0.29213  1.0000
  C   C57       1.0  0.30754  0.40763  0.29852  1.0000
  S   S14       1.0  0.03473  0.36786  0.18033  1.0000
  N   N4        1.0  0.12490  0.49514  0.19554  1.0000
  C   C58       1.0  0.01531  0.13994  0.19078  1.0000
  C   C59       1.0  0.45387  0.11645  0.18216  1.0000
  H   H65       1.0  0.04482  0.10176  0.16541  1.0000
  H   H66       1.0  0.07256  0.12831  0.15445  1.0000
  C   C60       1.0  0.03651  0.02856  0.15142  1.0000
  H   H67       1.0  0.33323  0.33894  0.31921  1.0000
  C   C61       1.0  0.35010  0.35784  0.31770  1.0000
  H   H68       1.0  0.15120  0.47097  0.17153  1.0000
  H   H69       1.0  0.23428  0.01788  0.11019  1.0000
  C   C62       1.0  0.49627  0.09026  0.16672  1.0000
  S   S15       1.0  0.50116  0.19333  0.31504  1.0000
  H   H70       1.0  0.03943  0.37956  0.31669  1.0000
  C   C63       1.0  0.49495  0.07158  0.24573  1.0000
  H   H71       1.0  0.33500  0.03574  0.11446  1.0000
  H   H72       1.0  0.36603  0.01162  0.12394  1.0000
  C   C64       1.0  0.28079  0.00619  0.10739  1.0000
  C   C65       1.0  0.00460  0.48965  0.16149  1.0000
  H   H73       1.0  0.00448  0.11736  0.18771  1.0000
  Fe  Fe8       1.0  0.43635  0.00789  0.18198  1.0000
  H   H74       1.0  0.14369  0.38756  0.32072  1.0000
  Fe  Fe9       1.0  0.45180  0.46163  0.61477  1.0000
  H   H75       1.0  0.46757  0.26071  0.40395  1.0000
  C   C66       1.0  0.46922  0.28098  0.65280  1.0000
  H   H76       1.0  0.42749  0.28942  0.50395  1.0000
  Fe  Fe10      1.0  0.19923  0.48486  0.33245  1.0000
  Fe  Fe11      1.0  0.40993  0.40665  0.62517  1.0000
  H   H77       1.0  0.26518  0.45123  0.62761  1.0000
  C   C67       1.0  0.28598  0.39735  0.33665  1.0000
  H   H78       1.0  0.48165  0.48263  0.48097  1.0000
  H   H79       1.0  0.33560  0.39307  0.36666  1.0000
  H   H80       1.0  0.37099  0.36957  0.49041  1.0000
  S   S16       1.0  0.37065  0.43387  0.61016  1.0000
  C   C68       1.0  0.03323  0.44352  0.63989  1.0000
  Fe  Fe12      1.0  0.40142  0.45133  0.58160  1.0000
  S   S17       1.0  0.38326  0.45675  0.54506  1.0000
  S   S18       1.0  0.43930  0.42066  0.59485  1.0000
  Fe  Fe13      1.0  0.43003  0.38356  0.37719  1.0000
  S   S19       1.0  0.39418  0.39600  0.40193  1.0000
  S   S20       1.0  0.42522  0.34640  0.35199  1.0000
  Fe  Fe14      1.0  0.46778  0.44105  0.38619  1.0000
  S   S21       1.0  0.43487  0.45834  0.41118  1.0000
  C   C69       1.0  0.31823  0.49490  0.65135  1.0000
  Fe  Fe15      1.0  0.43242  0.40783  0.42497  1.0000
  S   S22       1.0  0.44206  0.39135  0.46233  1.0000
  Fe  Fe16      1.0  0.39965  0.44522  0.38592  1.0000
  S   S23       1.0  0.36571  0.47954  0.36931  1.0000
  S   S24       1.0  0.46768  0.39127  0.40128  1.0000
  S   S25       1.0  0.43322  0.43201  0.35985  1.0000
  C   C70       1.0  0.40153  0.44042  0.52201  1.0000
  C   C71       1.0  0.42613  0.42056  0.52582  1.0000
  C   C72       1.0  0.43858  0.40583  0.50731  1.0000
  C   C73       1.0  0.42695  0.41150  0.48484  1.0000
  C   C74       1.0  0.40313  0.43231  0.48085  1.0000
  C   C75       1.0  0.39026  0.44647  0.49946  1.0000
  H   H81       1.0  0.43511  0.41603  0.54307  1.0000
  H   H82       1.0  0.45689  0.38956  0.51049  1.0000
  H   H83       1.0  0.39400  0.43674  0.46359  1.0000
  H   H84       1.0  0.37123  0.46185  0.49643  1.0000
  C   C76       1.0  0.26449  0.46690  0.36446  1.0000
  C   C77       1.0  0.28112  0.44804  0.38089  1.0000
  C   C78       1.0  0.31228  0.45094  0.38224  1.0000
  C   C79       1.0  0.32695  0.47316  0.36740  1.0000
  C   C80       1.0  0.42617  0.32895  0.64571  1.0000
  C   C81       1.0  0.27935  0.48861  0.34937  1.0000
  H   H85       1.0  0.26978  0.43133  0.39274  1.0000
  H   H86       1.0  0.32476  0.43671  0.39522  1.0000
  C   C82       1.0  0.09000  0.40420  0.32638  1.0000
  C   C83       1.0  0.39916  0.32894  0.49468  1.0000
  H   H87       1.0  0.46186  0.35722  0.63102  1.0000
  S   S26       1.0  0.42513  0.44509  0.64628  1.0000
  C   C84       1.0  0.41439  0.30817  0.51033  1.0000
  H   H88       1.0  0.10730  0.42252  0.32370  1.0000
  S   S27       1.0  0.50113  0.47222  0.61471  1.0000
  H   H89       1.0  0.36475  0.04977  0.33078  1.0000
  C   C85       1.0  0.34104  0.37368  0.35572  1.0000
  H   H90       1.0  0.45041  0.23977  0.33399  1.0000
  C   C86       1.0  0.46012  0.24652  0.36962  1.0000
  C   C87       1.0  0.45028  0.25612  0.34723  1.0000
  C   C88       1.0  0.43980  0.28688  0.34201  1.0000
  C   C89       1.0  0.43942  0.30831  0.35904  1.0000
  C   C90       1.0  0.44979  0.29888  0.38132  1.0000
  C   C91       1.0  0.45996  0.26801  0.38660  1.0000
  Fe  Fe17      1.0  0.38752  0.47339  0.62913  1.0000
  Fe  Fe18      1.0  0.47906  0.17596  0.34811  1.0000
  H   H91       1.0  0.44952  0.31519  0.39457  1.0000
  S   S28       1.0  0.39829  0.35783  0.64039  1.0000
  S   S29       1.0  0.22526  0.46315  0.36350  1.0000
  N   N5        1.0  0.39714  0.34081  0.56797  1.0000
  C   C92       1.0  0.42819  0.34456  0.57592  1.0000
  C   C93       1.0  0.37988  0.36855  0.57413  1.0000
  C   C94       1.0  0.38429  0.31291  0.58104  1.0000
  C   C95       1.0  0.39688  0.33668  0.54284  1.0000
  C   C96       1.0  0.41320  0.31181  0.53408  1.0000
  C   C97       1.0  0.38116  0.35714  0.52640  1.0000
  C   C98       1.0  0.48481  0.47194  0.46432  1.0000
  C   C99       1.0  0.38234  0.35311  0.50272  1.0000
  H   H92       1.0  0.40078  0.32669  0.47622  1.0000
  H   H93       1.0  0.43938  0.36398  0.56545  1.0000
  H   H94       1.0  0.42907  0.34986  0.59439  1.0000
  H   H95       1.0  0.44187  0.32309  0.57484  1.0000
  H   H96       1.0  0.38048  0.37098  0.59307  1.0000
  H   H97       1.0  0.35601  0.36694  0.56936  1.0000
  H   H98       1.0  0.38900  0.39063  0.56555  1.0000
  H   H99       1.0  0.39743  0.29130  0.57897  1.0000
  H   H100      1.0  0.38369  0.31565  0.60003  1.0000
  H   H101      1.0  0.36115  0.30880  0.57523  1.0000
  H   H102      1.0  0.42556  0.29524  0.54553  1.0000
  H   H103      1.0  0.36848  0.37706  0.53120  1.0000
  H   H104      1.0  0.49547  0.42039  0.44212  1.0000
  C   C100      1.0  0.27492  0.46728  0.63886  1.0000
  H   H105      1.0  0.23954  0.40932  0.33931  1.0000
  S   S30       1.0  0.47348  0.20814  0.37683  1.0000
  H   H106      1.0  0.31612  0.41453  0.64993  1.0000
  C   C101      1.0  0.36321  0.40970  0.32715  1.0000
  H   H107      1.0  0.39763  0.02525  0.33277  1.0000
  Fe  Fe19      1.0  0.47627  0.10908  0.33394  1.0000
  H   H108      1.0  0.09696  0.38704  0.34086  1.0000
  S   S31       1.0  0.46303  0.05857  0.34017  1.0000
  H   H109      1.0  0.32523  0.35417  0.35966  1.0000
  C   C102      1.0  0.30515  0.47483  0.63659  1.0000
  H   H110      1.0  0.46549  0.45628  0.46238  1.0000
  H   H111      1.0  0.37161  0.34746  0.32430  1.0000
  C   C103      1.0  0.31035  0.49187  0.35096  1.0000
  H   H112      1.0  0.48346  0.49104  0.45011  1.0000
  H   H113      1.0  0.31835  0.46490  0.62350  1.0000
  H   H114      1.0  0.36338  0.36462  0.36148  1.0000
  H   H115      1.0  0.43183  0.29401  0.32473  1.0000
  S   S32       1.0  0.44366  0.14935  0.33079  1.0000
  C   C104      1.0  0.45559  0.33453  0.63900  1.0000
  C   C105      1.0  0.25854  0.40843  0.32787  1.0000
  H   H116      1.0  0.06989  0.41677  0.33213  1.0000
  N   N6        1.0  0.34077  0.38461  0.33069  1.0000
  H   H117      1.0  0.28668  0.39011  0.35493  1.0000
  S   S33       1.0  0.41566  0.49336  0.59938  1.0000
  H   H118      1.0  0.26688  0.50352  0.33685  1.0000
  C   C106      1.0  0.38794  0.04743  0.32451  1.0000
  H   H119      1.0  0.35665  0.43052  0.33629  1.0000
  H   H120      1.0  0.38545  0.40162  0.33384  1.0000
  H   H121      1.0  0.06512  0.34721  0.32201  1.0000
  H   H122      1.0  0.45673  0.01980  0.64686  1.0000
  C   C107      1.0  0.31140  0.39651  0.32215  1.0000
  H   H123      1.0  0.49780  0.41201  0.48194  1.0000
  H   H124      1.0  0.42215  0.50024  0.35242  1.0000
  H   H125      1.0  0.17993  0.49386  0.62039  1.0000
  H   H126      1.0  0.40129  0.06618  0.33146  1.0000
  C   C108      1.0  0.49142  0.03287  0.35083  1.0000
  H   H127      1.0  0.45919  0.50274  0.36327  1.0000
  C   C109      1.0  0.06001  0.50252  0.32256  1.0000
  H   H128      1.0  0.49963  0.31484  0.63682  1.0000
  H   H129      1.0  0.34005  0.38097  0.65053  1.0000
  H   H130      1.0  0.04795  0.45019  0.62559  1.0000
  C   C110      1.0  0.47697  0.31052  0.64237  1.0000
  S   S34       1.0  0.35693  0.50214  0.65045  1.0000
  H   H131      1.0  0.41700  0.01502  0.65007  1.0000
  H   H132      1.0  0.16012  0.50300  0.59377  1.0000
  C   C111      1.0  0.44072  0.03014  0.69240  1.0000
  S   S35       1.0  0.17534  0.46127  0.71807  1.0000
  H   H133      1.0  0.06431  0.49871  0.74610  1.0000
  H   H134      1.0  0.01738  0.18148  0.88877  1.0000
  Fe  Fe20      1.0  0.12821  0.46040  0.70559  1.0000
  S   S36       1.0  0.09520  0.42153  0.71093  1.0000
  H   H135      1.0  0.08794  0.47459  0.82306  1.0000
  H   H136      1.0  0.50239  0.13508  0.78823  1.0000
  N   N7        1.0  0.30409  0.03537  0.81963  1.0000
  S   S37       1.0  0.06373  0.38651  0.81600  1.0000
  Fe  Fe21      1.0  0.01432  0.39106  0.81999  1.0000
  H   H137      1.0  0.04897  0.01356  0.95674  1.0000
  C   C112      1.0  0.36155  0.41614  0.68072  1.0000
  C   C113      1.0  0.29284  0.04428  0.79582  1.0000
  H   H138      1.0  0.34653  0.37314  0.71527  1.0000
  H   H139      1.0  0.35280  0.08065  0.87977  1.0000
  C   C114      1.0  0.29356  0.46134  0.71672  1.0000
  Fe  Fe22      1.0  0.47379  0.16502  0.72096  1.0000
  S   S38       1.0  0.45086  0.16323  0.75543  1.0000
  S   S39       1.0  0.45314  0.17210  0.68546  1.0000
  H   H140      1.0  0.36837  0.12130  0.81082  1.0000
  N   N8        1.0  0.33291  0.39928  0.68372  1.0000
  H   H141      1.0  0.26179  0.01277  0.82707  1.0000
  H   H142      1.0  0.43845  0.06969  0.71283  1.0000
  Fe  Fe23      1.0  0.44646  0.01141  0.84797  1.0000
  H   H143      1.0  0.49308  0.05534  0.76055  1.0000
  C   C115      1.0  0.07929  0.30135  0.85236  1.0000
  C   C116      1.0  0.05077  0.23769  0.85306  1.0000
  S   S40       1.0  0.13898  0.48016  0.66970  1.0000
  H   H144      1.0  0.08278  0.01237  0.84595  1.0000
  H   H145      1.0  0.01619  0.46435  0.86558  1.0000
  H   H146      1.0  0.37825  0.40259  0.67145  1.0000
  C   C117      1.0  0.05141  0.01261  0.97539  1.0000
  C   C118      1.0  0.04308  0.20790  0.86275  1.0000
  H   H147      1.0  0.06560  0.23905  0.83838  1.0000
  H   H148      1.0  0.34069  0.00971  0.80675  1.0000
  H   H149      1.0  0.05158  0.18722  0.85540  1.0000
  H   H150      1.0  0.02454  0.08522  0.97083  1.0000
  C   C119      1.0  0.34801  0.08170  0.86137  1.0000
  C   C120      1.0  0.02562  0.41915  0.67856  1.0000
  C   C121      1.0  0.43077  0.12862  0.76140  1.0000
  C   C122      1.0  0.41516  0.11531  0.74385  1.0000
  C   C123      1.0  0.39960  0.08732  0.74885  1.0000
  C   C124      1.0  0.40094  0.07176  0.77106  1.0000
  C   C125      1.0  0.41677  0.08499  0.78854  1.0000
  C   C126      1.0  0.43103  0.11377  0.78385  1.0000
  H   H151      1.0  0.41478  0.12681  0.72650  1.0000
  H   H152      1.0  0.38736  0.07716  0.73528  1.0000
  H   H153      1.0  0.41791  0.07319  0.80574  1.0000
  H   H154      1.0  0.44295  0.12410  0.79751  1.0000
  C   C127      1.0  0.31575  0.44565  0.70527  1.0000
  C   C128      1.0  0.00864  0.02214  0.90423  1.0000
  H   H155      1.0  0.44449  0.03777  0.75029  1.0000
  C   C129      1.0  0.32183  0.00636  0.81903  1.0000
  C   C130      1.0  0.28049  0.40521  0.69803  1.0000
  H   H156      1.0  0.35856  0.43896  0.67032  1.0000
  H   H157      1.0  0.27662  0.02701  0.79011  1.0000
  N   N9        1.0  0.04678  0.29639  0.85071  1.0000
  C   C131      1.0  0.03908  0.26516  0.86184  1.0000
  H   H158      1.0  0.03790  0.32325  0.87991  1.0000
  H   H159      1.0  0.48724  0.29639  0.70922  1.0000
  C   C132      1.0  0.03818  0.29849  0.82588  1.0000
  C   C133      1.0  0.02398  0.20458  0.88166  1.0000
  C   C134      1.0  0.08728  0.41141  0.74024  1.0000
  C   C135      1.0  0.06013  0.39727  0.74624  1.0000
  C   C136      1.0  0.05274  0.39001  0.76951  1.0000
  C   C137      1.0  0.07313  0.39550  0.78688  1.0000
  C   C138      1.0  0.10070  0.40886  0.78096  1.0000
  C   C139      1.0  0.10757  0.41734  0.75763  1.0000
  H   H160      1.0  0.04472  0.39205  0.73291  1.0000
  H   H161      1.0  0.03145  0.37966  0.77399  1.0000
  H   H162      1.0  0.11649  0.41322  0.79440  1.0000
  H   H163      1.0  0.12869  0.42805  0.75311  1.0000
  S   S41       1.0  0.47510  0.09399  0.65606  1.0000
  H   H164      1.0  0.09796  0.47705  0.77251  1.0000
  H   H165      1.0  0.03813  0.34563  0.85267  1.0000
  C   C140      1.0  0.44127  0.04454  0.71315  1.0000
  H   H166      1.0  0.03571  0.40739  0.69382  1.0000
  H   H167      1.0  0.02063  0.07068  0.89916  1.0000
  S   S42       1.0  0.48115  0.04467  0.85931  1.0000
  C   C141      1.0  0.33813  0.08245  0.81374  1.0000
  H   H168      1.0  0.43721  0.04539  0.67684  1.0000
  C   C142      1.0  0.32315  0.05968  0.82864  1.0000
  Fe  Fe24      1.0  0.49124  0.20511  0.67731  1.0000
  H   H169      1.0  0.49356  0.11187  0.76502  1.0000
  Fe  Fe25      1.0  0.40201  0.00850  0.80861  1.0000
  S   S43       1.0  0.21959  0.46902  0.65784  1.0000
  H   H170      1.0  0.48018  0.07030  0.79446  1.0000
  C   C143      1.0  0.25834  0.42144  0.70909  1.0000
  C   C144      1.0  0.07029  0.00978  0.90352  1.0000
  C   C145      1.0  0.01276  0.23100  0.89110  1.0000
  H   H171      1.0  0.37676  0.12084  0.85304  1.0000
  H   H172      1.0  0.00712  0.32101  0.85996  1.0000
  H   H173      1.0  0.39567  0.29500  0.66149  1.0000
  H   H174      1.0  0.07495  0.05982  0.89870  1.0000
  H   H175      1.0  0.02295  0.48546  0.68228  1.0000
  H   H176      1.0  0.43376  0.25287  0.66797  1.0000
  H   H177      1.0  0.29839  0.48347  0.72362  1.0000
  H   H178      1.0  0.00938  0.28023  0.88904  1.0000
  C   C146      1.0  0.35684  0.10448  0.82257  1.0000
  C   C147      1.0  0.04433  0.42696  0.65978  1.0000
  H   H179      1.0  0.33655  0.08312  0.79512  1.0000
  H   H180      1.0  0.28392  0.01615  0.85172  1.0000
  H   H181      1.0  0.33712  0.45696  0.70383  1.0000
  Fe  Fe26      1.0  0.18554  0.48546  0.68299  1.0000
  H   H182      1.0  0.05100  0.28209  0.81582  1.0000
  H   H183      1.0  0.35667  0.35544  0.68926  1.0000
  C   C148      1.0  0.26489  0.44941  0.71846  1.0000
  C   C149      1.0  0.02873  0.04686  0.90153  1.0000
  H   H184      1.0  0.06402  0.45546  0.80383  1.0000
  H   H185      1.0  0.24756  0.46214  0.72676  1.0000
  C   C150      1.0  0.01595  0.48952  0.86224  1.0000
  H   H186      1.0  0.04881  0.48075  0.82372  1.0000
  H   H187      1.0  0.28166  0.06757  0.79479  1.0000
  H   H188      1.0  0.09230  0.28419  0.84312  1.0000
  H   H189      1.0  0.08676  0.29940  0.87076  1.0000
  C   C151      1.0  0.00742  0.01428  0.84758  1.0000
  C   C152      1.0  0.01989  0.26091  0.88133  1.0000
  H   H190      1.0  0.04076  0.05000  0.84437  1.0000
  Fe  Fe27      1.0  0.48533  0.13398  0.67737  1.0000
  C   C153      1.0  0.27782  0.02865  0.83477  1.0000
  C   C154      1.0  0.26985  0.50159  0.66964  1.0000
  C   C155      1.0  0.30985  0.41698  0.69551  1.0000
  H   H191      1.0  0.48628  0.27901  0.75108  1.0000
  H   H192      1.0  0.02515  0.05998  0.94763  1.0000
  H   H193      1.0  0.32084  0.04150  0.86507  1.0000
  C   C156      1.0  0.36167  0.10421  0.84633  1.0000
  C   C157      1.0  0.43992  0.27559  0.65996  1.0000
  H   H194      1.0  0.26578  0.05056  0.83810  1.0000
  H   H195      1.0  0.31099  0.04479  0.78272  1.0000
  C   C158      1.0  0.06775  0.47771  0.81192  1.0000
  C   C159      1.0  0.41841  0.29948  0.65625  1.0000
  C   C160      1.0  0.50055  0.07472  0.80443  1.0000
  C   C161      1.0  0.03649  0.02511  0.84569  1.0000
  C   C162      1.0  0.03175  0.32255  0.86136  1.0000
  H   H196      1.0  0.37189  0.42037  0.69762  1.0000
  S   S44       1.0  0.38414  0.03506  0.77633  1.0000
  C   C163      1.0  0.05949  0.04066  0.90124  1.0000
  H   H197      1.0  0.07482  0.50219  0.67701  1.0000
  C   C164      1.0  0.32930  0.05952  0.85272  1.0000
  H   H198      1.0  0.49299  0.08934  0.81836  1.0000
  C   C165      1.0  0.33898  0.36918  0.69744  1.0000
  S   S45       1.0  0.39932  0.02812  0.84301  1.0000
  H   H199      1.0  0.04217  0.32229  0.81724  1.0000
  H   H200      1.0  0.27430  0.38348  0.69127  1.0000
  H   H201      1.0  0.01049  0.43604  0.72187  1.0000
  C   C166      1.0  0.01151  0.06762  0.96209  1.0000
  H   H202      1.0  0.23583  0.41257  0.71014  1.0000
  H   H203      1.0  0.06779  0.42090  0.66106  1.0000
  H   H204      1.0  0.31896  0.35414  0.69910  1.0000
  H   H205      1.0  0.08567  0.32502  0.84451  1.0000
  H   H206      1.0  0.11837  0.49782  0.79257  1.0000
  H   H207      1.0  0.50073  0.05495  0.69474  1.0000
  H   H208      1.0  0.01418  0.29319  0.82387  1.0000
  H   H209      1.0  0.06145  0.49504  0.87322  1.0000
  C   C167      1.0  0.50249  0.06445  0.65765  1.0000
  C   C168      1.0  0.09846  0.49930  0.78102  1.0000
  H   H210      1.0  0.30301  0.37687  0.66086  1.0000
  C   C169      1.0  0.44511  0.02674  0.73419  1.0000
  C   C170      1.0  0.32248  0.39261  0.66033  1.0000
  C   C171      1.0  0.25727  0.48017  0.65563  1.0000
  S   S46       1.0  0.49672  0.25140  0.65584  1.0000
  C   C172      1.0  0.04412  0.50346  0.75517  1.0000
  H   H211      1.0  0.01916  0.50395  0.72342  1.0000
  N   N10       1.0  0.07067  0.50433  0.79405  1.0000
  S   S47       1.0  0.50305  0.12457  0.71335  1.0000
  Fe  Fe28      1.0  0.11276  0.96180  0.10941  1.0000
  S   S48       1.0  0.12131  0.91506  0.09553  1.0000
  H   H212      1.0  0.17965  0.96169  0.00457  1.0000
  Fe  Fe29      1.0  0.17472  0.96284  0.13227  1.0000
  S   S49       1.0  0.18765  0.91661  0.11986  1.0000
  H   H213      1.0  0.05483  0.88366  0.10228  1.0000
  Fe  Fe30      1.0  0.16635  0.93454  0.08613  1.0000
  S   S50       1.0  0.19004  0.93835  0.05167  1.0000
  Fe  Fe31      1.0  0.14141  0.90154  0.13061  1.0000
  S   S51       1.0  0.13517  0.85793  0.15522  1.0000
  H   H214      1.0  0.25490  0.95217  0.06095  1.0000
  S   S52       1.0  0.12974  0.94707  0.14524  1.0000
  H   H215      1.0  0.08300  0.64678  0.28883  1.0000
  S   S53       1.0  0.15646  0.98196  0.09786  1.0000
  C   C173      1.0  0.29255  0.96892  0.07951  1.0000
  S   S54       1.0  0.33913  0.95323  0.17322  1.0000
  H   H216      1.0  0.34497  0.94100  0.09750  1.0000
  C   C174      1.0  0.03832  0.90269  0.10433  1.0000
  S   S55       1.0  0.41698  0.96390  0.19916  1.0000
  Fe  Fe32      1.0  0.03673  0.62808  0.17732  1.0000
  S   S56       1.0  0.06517  0.61656  0.20856  1.0000
  H   H217      1.0  0.01798  0.87715  0.15894  1.0000
  Fe  Fe33      1.0  0.05825  0.69627  0.17063  1.0000
  S   S57       1.0  0.08872  0.68994  0.20142  1.0000
  S   S58       1.0  0.05043  0.74152  0.14817  1.0000
  Fe  Fe34      1.0  0.10002  0.64378  0.18810  1.0000
  S   S59       1.0  0.14627  0.62440  0.18699  1.0000
  Fe  Fe35      1.0  0.05083  0.66350  0.21885  1.0000
  S   S60       1.0  0.07268  0.65188  0.15570  1.0000
  S   S61       1.0  0.01943  0.67328  0.18908  1.0000
  C   C175      1.0  0.03847  0.74356  0.22670  1.0000
  H   H218      1.0  0.19184  0.77253  0.21040  1.0000
  C   C176      1.0  0.15944  0.61676  0.21539  1.0000
  C   C177      1.0  0.15351  0.63780  0.23199  1.0000
  C   C178      1.0  0.16330  0.63112  0.25487  1.0000
  C   C179      1.0  0.17750  0.60262  0.26148  1.0000
  C   C180      1.0  0.18363  0.58168  0.24483  1.0000
  C   C181      1.0  0.17523  0.58913  0.22167  1.0000
  H   H219      1.0  0.14179  0.65943  0.22715  1.0000
  H   H220      1.0  0.15934  0.64775  0.26756  1.0000
  H   H221      1.0  0.19531  0.56000  0.24974  1.0000
  H   H222      1.0  0.18052  0.57323  0.20874  1.0000
  H   H223      1.0  0.01396  0.92771  0.17039  1.0000
  H   H224      1.0  0.05872  0.75211  0.21725  1.0000
  H   H225      1.0  0.09876  0.54956  0.30596  1.0000
  H   H226      1.0  0.14209  0.53046  0.21644  1.0000
  H   H227      1.0  0.46272  0.95636  0.30529  1.0000
  H   H228      1.0  0.06921  0.93690  0.13351  1.0000
  C   C182      1.0  0.29042  0.99302  0.17482  1.0000
  H   H229      1.0  0.03232  0.54577  0.19397  1.0000
  C   C183      1.0  0.46185  0.96036  0.26802  1.0000
  C   C184      1.0  0.47780  0.95602  0.24784  1.0000
  C   C185      1.0  0.47191  0.83441  0.29102  1.0000
  H   H230      1.0  0.04129  0.60896  0.28516  1.0000
  C   C186      1.0  0.47499  0.95279  0.28969  1.0000
  H   H231      1.0  0.46796  0.96221  0.23105  1.0000
  H   H232      1.0  0.04457  0.74046  0.24535  1.0000
  C   C187      1.0  0.42656  0.85249  0.25830  1.0000
  C   C188      1.0  0.30141  0.96418  0.16890  1.0000
  C   C189      1.0  0.28240  0.94395  0.15820  1.0000
  C   C190      1.0  0.25269  0.95248  0.15329  1.0000
  C   C191      1.0  0.00664  0.55519  0.16264  1.0000
  Fe  Fe36      1.0  0.18372  0.54090  0.29924  1.0000
  C   C192      1.0  0.10659  0.57139  0.29637  1.0000
  H   H233      1.0  0.29070  0.92160  0.15357  1.0000
  H   H234      1.0  0.23839  0.93672  0.14497  1.0000
  C   C193      1.0  0.09757  0.62623  0.28648  1.0000
  H   H235      1.0  0.30778  0.95433  0.07079  1.0000
  C   C194      1.0  0.11071  0.82646  0.15278  1.0000
  C   C195      1.0  0.09268  0.82414  0.13333  1.0000
  C   C196      1.0  0.07389  0.79819  0.13222  1.0000
  C   C197      1.0  0.07365  0.77413  0.15024  1.0000
  C   C198      1.0  0.09182  0.77643  0.16956  1.0000
  C   C199      1.0  0.10983  0.80275  0.17098  1.0000
  H   H236      1.0  0.09351  0.84209  0.11909  1.0000
  H   H237      1.0  0.06001  0.79638  0.11712  1.0000
  H   H238      1.0  0.09207  0.75799  0.18343  1.0000
  H   H239      1.0  0.12360  0.80454  0.18614  1.0000
  C   C200      1.0  0.30271  0.98848  0.09644  1.0000
  C   C201      1.0  0.16181  0.87326  0.01017  1.0000
  C   C202      1.0  0.16845  0.88850  0.03008  1.0000
  C   C203      1.0  0.17535  0.92031  0.02805  1.0000
  C   C204      1.0  0.17416  0.93710  0.00622  1.0000
  H   H240      1.0  0.02548  0.79352  0.24928  1.0000
  H   H241      1.0  0.01785  0.89647  0.09500  1.0000
  H   H242      1.0  0.16974  0.87533  0.04681  1.0000
  C   C205      1.0  0.02084  0.53567  0.18005  1.0000
  H   H243      1.0  0.07238  0.99616  0.14599  1.0000
  H   H244      1.0  0.11994  0.63153  0.29329  1.0000
  H   H245      1.0  0.09154  0.50885  0.21926  1.0000
  C   C206      1.0  0.14978  0.50999  0.20741  1.0000
  H   H246      1.0  0.12884  0.57631  0.30331  1.0000
  C   C207      1.0  0.24160  0.98127  0.15917  1.0000
  C   C208      1.0  0.50384  0.94023  0.29118  1.0000
  H   H247      1.0  0.07855  0.89590  0.13663  1.0000
  S   S62       1.0  0.07021  0.98641  0.09674  1.0000
  N   N11       1.0  0.15700  0.71589  0.13507  1.0000
  C   C209      1.0  0.12710  0.72772  0.12784  1.0000
  C   C210      1.0  0.17824  0.72357  0.11590  1.0000
  C   C211      1.0  0.15525  0.68126  0.13867  1.0000
  C   C212      1.0  0.16648  0.73085  0.15599  1.0000
  C   C213      1.0  0.17134  0.71377  0.17783  1.0000
  C   C214      1.0  0.17082  0.76369  0.15494  1.0000
  C   C215      1.0  0.18042  0.72876  0.19715  1.0000
  C   C216      1.0  0.18009  0.77839  0.17432  1.0000
  H   H248      1.0  0.48256  0.77875  0.31809  1.0000
  H   H249      1.0  0.12660  0.75349  0.12364  1.0000
  H   H250      1.0  0.11886  0.71697  0.11223  1.0000
  H   H251      1.0  0.11066  0.72227  0.14189  1.0000
  H   H252      1.0  0.17833  0.74894  0.11015  1.0000
  H   H253      1.0  0.17266  0.71134  0.10026  1.0000
  H   H254      1.0  0.20133  0.71669  0.12125  1.0000
  H   H255      1.0  0.13816  0.67386  0.15181  1.0000
  H   H256      1.0  0.14869  0.67057  0.12258  1.0000
  H   H257      1.0  0.17696  0.67057  0.14440  1.0000
  H   H258      1.0  0.16829  0.68879  0.18053  1.0000
  H   H259      1.0  0.16664  0.77849  0.13922  1.0000
  H   H260      1.0  0.05935  0.51267  0.13311  1.0000
  C   C217      1.0  0.35197  0.99987  0.08117  1.0000
  H   H261      1.0  0.04711  0.56803  0.29462  1.0000
  N   N12       1.0  0.01269  0.76486  0.22197  1.0000
  H   H262      1.0  0.33076  0.00413  0.13680  1.0000
  C   C218      1.0  0.08143  0.99574  0.00891  1.0000
  C   C219      1.0  0.07620  0.52234  0.14382  1.0000
  H   H263      1.0  0.06227  0.58479  0.26778  1.0000
  S   S63       1.0  0.18622  0.59289  0.29073  1.0000
  C   C220      1.0  0.26057  0.00147  0.17002  1.0000
  N   N13       1.0  0.08514  0.59739  0.29844  1.0000
  H   H264      1.0  0.15771  0.84837  0.01168  1.0000
  H   H265      1.0  0.13380  0.55926  0.18282  1.0000
  H   H266      1.0  0.11024  0.56662  0.27800  1.0000
  Fe  Fe37      1.0  0.37241  0.98490  0.18873  1.0000
  H   H267      1.0  0.33063  0.94800  0.12534  1.0000
  H   H268      1.0  0.10121  0.98419  0.01635  1.0000
  H   H269      1.0  0.07127  0.56891  0.12740  1.0000
  H   H270      1.0  0.47358  0.88451  0.29492  1.0000
  C   C221      1.0  0.06108  0.91343  0.14013  1.0000
  H   H271      1.0  0.40937  0.85953  0.24572  1.0000
  C   C222      1.0  0.05764  0.58939  0.28605  1.0000
  S   S64       1.0  0.20445  0.99299  0.15281  1.0000
  H   H272      1.0  0.04793  0.92426  0.09531  1.0000
  N   N14       1.0  0.33477  0.98952  0.10222  1.0000
  H   H273      1.0  0.03912  0.80671  0.22131  1.0000
  H   H274      1.0  0.18291  0.80361  0.17304  1.0000
  H   H275      1.0  0.05968  0.91322  0.15926  1.0000
  H   H276      1.0  0.01110  0.65269  0.29979  1.0000
  C   C223      1.0  0.18487  0.76097  0.19539  1.0000
  S   S65       1.0  0.42527  0.97440  0.26642  1.0000
  H   H277      1.0  0.16771  0.51753  0.19501  1.0000
  C   C224      1.0  0.08283  0.55404  0.14062  1.0000
  C   C225      1.0  0.11162  0.51542  0.17624  1.0000
  H   H278      1.0  0.38440  0.99816  0.30091  1.0000
  H   H279      1.0  0.18403  0.71521  0.21360  1.0000
  S   S66       1.0  0.03920  0.66891  0.25602  1.0000
  N   N15       1.0  0.03229  0.90684  0.12911  1.0000
  N   N16       1.0  0.49615  0.82599  0.30780  1.0000
  H   H280      1.0  0.03605  0.85698  0.13717  1.0000
  H   H281      1.0  0.10002  0.62434  0.26752  1.0000
  C   C226      1.0  0.01085  0.93241  0.13263  1.0000
  C   C227      1.0  0.10386  0.56666  0.15476  1.0000
  S   S67       1.0  0.22163  0.50651  0.30052  1.0000
  S   S68       1.0  0.15505  0.51333  0.27697  1.0000
  C   C228      1.0  0.26243  0.96746  0.07374  1.0000
  C   C229      1.0  0.34514  0.95782  0.11104  1.0000
  H   H282      1.0  0.35013  0.98338  0.06747  1.0000
  H   H283      1.0  0.36818  0.95801  0.11813  1.0000
  H   H284      1.0  0.46203  0.78733  0.28093  1.0000
  H   H285      1.0  0.10900  0.59135  0.15230  1.0000
  C   C230      1.0  0.01970  0.79558  0.23054  1.0000
  H   H286      1.0  0.02957  0.77946  0.18783  1.0000
  H   H287      1.0  0.21830  0.98398  0.08017  1.0000
  C   C231      1.0  0.50238  0.79186  0.31131  1.0000
  C   C232      1.0  0.46309  0.86615  0.28631  1.0000
  C   C233      1.0  0.11808  0.54779  0.17235  1.0000
  H   H288      1.0  0.03346  0.71994  0.22132  1.0000
  C   C234      1.0  0.44079  0.87497  0.27019  1.0000
  H   H289      1.0  0.43463  0.89947  0.26680  1.0000
  Fe  Fe38      1.0  0.41263  0.99157  0.23008  1.0000
  C   C235      1.0  0.24163  0.98536  0.08459  1.0000
  H   H290      1.0  0.42336  0.80371  0.25314  1.0000
  C   C236      1.0  0.02070  0.87683  0.13991  1.0000
  C   C237      1.0  0.45688  0.81199  0.27862  1.0000
  C   C238      1.0  0.00913  0.76966  0.19640  1.0000
  C   C239      1.0  0.43452  0.82108  0.26252  1.0000
  H   H291      1.0  0.37613  0.00178  0.08507  1.0000
  H   H292      1.0  0.00499  0.74717  0.18864  1.0000
  H   H293      1.0  0.00588  0.74890  0.26866  1.0000
  C   C240      1.0  0.25076  0.00463  0.10136  1.0000
  C   C241      1.0  0.16123  0.88992  0.98828  1.0000
  H   H294      1.0  0.14239  0.55825  0.58392  1.0000
  H   H295      1.0  0.19181  0.57506  0.63382  1.0000
  H   H296      1.0  0.40481  0.52441  0.38484  1.0000
  H   H297      1.0  0.47463  0.99418  0.33349  1.0000
  C   C242      1.0  0.49561  0.53398  0.62456  1.0000
  H   H298      1.0  0.40381  0.58383  0.34999  1.0000
  C   C243      1.0  0.48357  0.61697  0.36927  1.0000
  H   H299      1.0  0.03404  0.67562  0.64723  1.0000
  C   C244      1.0  0.05136  0.60426  0.33294  1.0000
  H   H300      1.0  0.23095  0.58244  0.54578  1.0000
  C   C245      1.0  0.46139  0.56749  0.35967  1.0000
  C   C246      1.0  0.15003  0.56415  0.60129  1.0000
  H   H301      1.0  0.42011  0.56546  0.32628  1.0000
  H   H302      1.0  0.27538  0.55167  0.55920  1.0000
  N   N17       1.0  0.43525  0.54666  0.35985  1.0000
  H   H303      1.0  0.06892  0.61784  0.38832  1.0000
  C   C247      1.0  0.08021  0.60256  0.32309  1.0000
  H   H304      1.0  0.48630  0.86264  0.33029  1.0000
  C   C248      1.0  0.48846  0.83680  0.33074  1.0000
  C   C249      1.0  0.16393  0.51069  0.61139  1.0000
  C   C250      1.0  0.04414  0.53192  0.35440  1.0000
  H   H305      1.0  0.04941  0.54287  0.37003  1.0000
  H   H306      1.0  0.49416  0.53641  0.34484  1.0000
  C   C251      1.0  0.00815  0.51837  0.32593  1.0000
  H   H307      1.0  0.50308  0.55619  0.41960  1.0000
  H   H308      1.0  0.02531  0.61015  0.36345  1.0000
  C   C252      1.0  0.41180  0.56113  0.34435  1.0000
  H   H309      1.0  0.43814  0.98939  0.63351  1.0000
  C   C253      1.0  0.07208  0.61404  0.37023  1.0000
  H   H310      1.0  0.19739  0.53452  0.64321  1.0000
  C   C254      1.0  0.10062  0.61302  0.36104  1.0000
  C   C255      1.0  0.45892  0.59746  0.36822  1.0000
  C   C256      1.0  0.18169  0.55146  0.63400  1.0000
  H   H311      1.0  0.15655  0.58919  0.60039  1.0000
  C   C257      1.0  0.06678  0.51710  0.34257  1.0000
  H   H312      1.0  0.11972  0.61631  0.37198  1.0000
  H   H313      1.0  0.16133  0.55154  0.64490  1.0000
  H   H314      1.0  0.48149  0.63931  0.37660  1.0000
  C   C258      1.0  0.43859  0.00228  0.64939  1.0000
  C   C259      1.0  0.48979  0.55883  0.35139  1.0000
  H   H315      1.0  0.41342  0.56349  0.38984  1.0000
  C   C260      1.0  0.44216  0.51535  0.35199  1.0000
  C   C261      1.0  0.20376  0.56554  0.57478  1.0000
  H   H316      1.0  0.27350  0.51719  0.59560  1.0000
  C   C262      1.0  0.42309  0.54182  0.38369  1.0000
  H   H317      1.0  0.49230  0.58222  0.63212  1.0000
  C   C263      1.0  0.22999  0.56742  0.56177  1.0000
  C   C264      1.0  0.22785  0.52847  0.60271  1.0000
  C   C265      1.0  0.20200  0.54601  0.59582  1.0000
  C   C266      1.0  0.04753  0.60992  0.35617  1.0000
  H   H318      1.0  0.13020  0.56192  0.61288  1.0000
  H   H319      1.0  0.43800  0.60582  0.37453  1.0000
  H   H320      1.0  0.18524  0.57960  0.56799  1.0000
  H   H321      1.0  0.47182  0.53042  0.62463  1.0000
  C   C267      1.0  0.25506  0.55010  0.56926  1.0000
  H   H322      1.0  0.03129  0.60058  0.32332  1.0000
  N   N18       1.0  0.17479  0.54333  0.61020  1.0000
  C   C268      1.0  0.01483  0.53301  0.34595  1.0000
  H   H323      1.0  0.44060  0.53320  0.39623  1.0000
  C   C269      1.0  0.10471  0.60763  0.33779  1.0000
  H   H324      1.0  0.39190  0.54575  0.34394  1.0000
  S   S69       1.0  0.16317  0.52189  0.33283  1.0000
  H   H325      1.0  0.46707  0.82663  0.33722  1.0000
  C   C270      1.0  0.25398  0.53066  0.58971  1.0000
  H   H326      1.0  0.22806  0.51288  0.61831  1.0000
  H   H327      1.0  0.47151  0.95099  0.65153  1.0000
  H   H328      1.0  0.12729  0.60757  0.33140  1.0000
  C   C271      1.0  0.49171  0.00191  0.34481  1.0000
  H   H329      1.0  0.32144  0.50923  0.33949  1.0000
  H   H330      1.0  0.45015  0.51691  0.33378  1.0000
  H   H331      1.0  0.08934  0.51669  0.34910  1.0000
  H   H332      1.0  0.48491  0.50628  0.40598  1.0000
  H   H333      1.0  0.14265  0.50806  0.62114  1.0000
  Fe  Fe39      1.0  0.12681  0.95344  0.90042  1.0000
  S   S70       1.0  0.10412  0.90991  0.91538  1.0000
  Fe  Fe40      1.0  0.13020  0.52673  0.68280  1.0000
  Fe  Fe41      1.0  0.18069  0.91775  0.88345  1.0000
  S   S71       1.0  0.16209  0.87141  0.89714  1.0000
  S   S72       1.0  0.22292  0.91574  0.86212  1.0000
  Fe  Fe42      1.0  0.11847  0.88907  0.88280  1.0000
  S   S73       1.0  0.08861  0.86150  0.86061  1.0000
  Fe  Fe43      1.0  0.14968  0.89592  0.92861  1.0000
  S   S74       1.0  0.03500  0.64502  0.86254  1.0000
  S   S75       1.0  0.13759  0.93391  0.86660  1.0000
  S   S76       1.0  0.17176  0.94097  0.91610  1.0000
  C   C272      1.0  0.01224  0.64665  0.67399  1.0000
  H   H334      1.0  0.45279  0.95521  0.71498  1.0000
  H   H335      1.0  0.42293  0.93899  0.68640  1.0000
  C   C273      1.0  0.16644  0.92211  0.98644  1.0000
  S   S77       1.0  0.17755  0.53423  0.69344  1.0000
  Fe  Fe44      1.0  0.07054  0.68070  0.85371  1.0000
  S   S78       1.0  0.05432  0.69314  0.81734  1.0000
  S   S79       1.0  0.08764  0.71366  0.87912  1.0000
  Fe  Fe45      1.0  0.06671  0.61030  0.84918  1.0000
  S   S80       1.0  0.05062  0.61696  0.81254  1.0000
  S   S81       1.0  0.07388  0.56103  0.86479  1.0000
  Fe  Fe46      1.0  0.08488  0.65440  0.80818  1.0000
  S   S82       1.0  0.11437  0.65762  0.77690  1.0000
  H   H336      1.0  0.21040  0.91183  0.95482  1.0000
  S   S83       1.0  0.10368  0.64473  0.84377  1.0000
  S   S84       1.0  0.46535  0.89248  0.71288  1.0000
  H   H337      1.0  0.29317  0.91321  0.96960  1.0000
  H   H338      1.0  0.06335  0.61175  0.76216  1.0000
  H   H339      1.0  0.23566  0.93400  0.93608  1.0000
  H   H340      1.0  0.39753  0.96960  0.67623  1.0000
  S   S85       1.0  0.38533  0.96095  0.82153  1.0000
  C   C274      1.0  0.01560  0.62752  0.69458  1.0000
  Fe  Fe47      1.0  0.43352  0.95005  0.82861  1.0000
  S   S86       1.0  0.45806  0.90672  0.82033  1.0000
  H   H341      1.0  0.26064  0.84180  0.96278  1.0000
  S   S87       1.0  0.43301  0.96478  0.86496  1.0000
  C   C275      1.0  0.05918  0.62468  0.74500  1.0000
  C   C276      1.0  0.02749  0.50938  0.67628  1.0000
  H   H342      1.0  0.26027  0.87356  0.98112  1.0000
  C   C277      1.0  0.04001  0.57112  0.66075  1.0000
  C   C278      1.0  0.06853  0.63709  0.69366  1.0000
  C   C279      1.0  0.46290  0.89585  0.74280  1.0000
  C   C280      1.0  0.43805  0.91024  0.75200  1.0000
  C   C281      1.0  0.43676  0.91436  0.77576  1.0000
  C   C282      1.0  0.45964  0.90269  0.79050  1.0000
  C   C283      1.0  0.02018  0.58939  0.73723  1.0000
  S   S88       1.0  0.15663  0.86931  0.96349  1.0000
  C   C284      1.0  0.23095  0.87269  0.92724  1.0000
  H   H343      1.0  0.41771  0.92581  0.78277  1.0000
  H   H344      1.0  0.09219  0.58725  0.72002  1.0000
  C   C285      1.0  0.47184  0.96381  0.66744  1.0000
  H   H345      1.0  0.47673  0.94611  0.68205  1.0000
  H   H346      1.0  0.05841  0.96139  0.90897  1.0000
  H   H347      1.0  0.08044  0.63593  0.73956  1.0000
  S   S89       1.0  0.34750  0.97726  0.88247  1.0000
  H   H348      1.0  0.30829  0.98657  0.81370  1.0000
  C   C286      1.0  0.15492  0.56187  0.76649  1.0000
  C   C287      1.0  0.14529  0.56880  0.78846  1.0000
  C   C288      1.0  0.13229  0.59794  0.79160  1.0000
  C   C289      1.0  0.13001  0.62077  0.77297  1.0000
  C   C290      1.0  0.13980  0.61393  0.75100  1.0000
  C   C291      1.0  0.15166  0.58428  0.74766  1.0000
  H   H349      1.0  0.14783  0.55157  0.80308  1.0000
  H   H350      1.0  0.12473  0.60293  0.80860  1.0000
  H   H351      1.0  0.13812  0.63151  0.73654  1.0000
  H   H352      1.0  0.15914  0.57909  0.73067  1.0000
  C   C292      1.0  0.01809  0.50592  0.74190  1.0000
  S   S90       1.0  0.10886  0.00279  0.90148  1.0000
  C   C293      1.0  0.03480  0.91303  0.87665  1.0000
  H   H353      1.0  0.05837  0.91310  0.83433  1.0000
  Fe  Fe48      1.0  0.38570  0.97978  0.85660  1.0000
  S   S91       1.0  0.11565  0.50671  0.71763  1.0000
  H   H354      1.0  0.24396  0.92550  0.96630  1.0000
  C   C294      1.0  0.41898  0.95802  0.67241  1.0000
  H   H355      1.0  0.24023  0.84997  0.92258  1.0000
  H   H356      1.0  0.01519  0.57979  0.84987  1.0000
  C   C295      1.0  0.25699  0.93391  0.86784  1.0000
  C   C296      1.0  0.26030  0.95290  0.88612  1.0000
  C   C297      1.0  0.28817  0.96605  0.89045  1.0000
  C   C298      1.0  0.31277  0.96066  0.87636  1.0000
  C   C299      1.0  0.30929  0.94203  0.85789  1.0000
  C   C300      1.0  0.28154  0.92871  0.85369  1.0000
  H   H357      1.0  0.24143  0.95743  0.89689  1.0000
  C   C301      1.0  0.32899  0.91532  0.94563  1.0000
  H   H358      1.0  0.32812  0.93735  0.84710  1.0000
  H   H359      1.0  0.27916  0.91398  0.83954  1.0000
  C   C302      1.0  0.08717  0.82053  0.86649  1.0000
  C   C303      1.0  0.10188  0.80557  0.88564  1.0000
  C   C304      1.0  0.10110  0.77282  0.88960  1.0000
  C   C305      1.0  0.08577  0.75477  0.87440  1.0000
  C   C306      1.0  0.07069  0.76975  0.85540  1.0000
  C   C307      1.0  0.07141  0.80256  0.85147  1.0000
  H   H360      1.0  0.11390  0.81917  0.89742  1.0000
  H   H361      1.0  0.11273  0.76139  0.90437  1.0000
  H   H362      1.0  0.05863  0.75607  0.84369  1.0000
  H   H363      1.0  0.05993  0.81400  0.83665  1.0000
  H   H364      1.0  0.22894  0.88894  0.91125  1.0000
  H   H365      1.0  0.09400  0.53235  0.81750  1.0000
  C   C308      1.0  0.04131  0.53948  0.86207  1.0000
  H   H366      1.0  0.31018  0.52476  0.67883  1.0000
  H   H367      1.0  0.07343  0.56406  0.74211  1.0000
  C   C309      1.0  0.04386  0.62247  0.70525  1.0000
  H   H368      1.0  0.05916  0.91707  0.87663  1.0000
  C   C310      1.0  0.07686  0.99778  0.98504  1.0000
  H   H369      1.0  0.04311  0.64391  0.74760  1.0000
  H   H370      1.0  0.02437  0.91973  0.81833  1.0000
  H   H371      1.0  0.07742  0.55409  0.79285  1.0000
  H   H372      1.0  0.06243  0.56268  0.71232  1.0000
  Fe  Fe49      1.0  0.02156  0.65439  0.82524  1.0000
  H   H373      1.0  0.05503  0.53875  0.81655  1.0000
  C   C311      1.0  0.01557  0.55468  0.85347  1.0000
  C   C312      1.0  0.48613  0.88495  0.75747  1.0000
  N   N19       1.0  0.04796  0.60396  0.72779  1.0000
  C   C313      1.0  0.01533  0.51158  0.78939  1.0000
  H   H374      1.0  0.29071  0.98040  0.90480  1.0000
  C   C314      1.0  0.07437  0.53358  0.80566  1.0000
  H   H375      1.0  0.01304  0.51354  0.80776  1.0000
  C   C315      1.0  0.48413  0.88766  0.78136  1.0000
  C   C316      1.0  0.01949  0.99132  0.90715  1.0000
  H   H376      1.0  0.03202  0.88722  0.87970  1.0000
  H   H377      1.0  0.09076  0.63428  0.70066  1.0000
  C   C317      1.0  0.05021  0.98515  0.90687  1.0000
  H   H378      1.0  0.50164  0.87819  0.79274  1.0000
  N   N20       1.0  0.15856  0.72955  0.82395  1.0000
  C   C318      1.0  0.12718  0.72977  0.81595  1.0000
  C   C319      1.0  0.17595  0.71071  0.80824  1.0000
  C   C320      1.0  0.16026  0.71341  0.84758  1.0000
  C   C321      1.0  0.16925  0.76204  0.82464  1.0000
  C   C322      1.0  0.19547  0.77326  0.81314  1.0000
  C   C323      1.0  0.15368  0.78335  0.83774  1.0000
  C   C324      1.0  0.20520  0.80395  0.81481  1.0000
  C   C325      1.0  0.16348  0.81394  0.83923  1.0000
  C   C326      1.0  0.18926  0.82422  0.82784  1.0000
  H   H379      1.0  0.12434  0.74433  0.79926  1.0000
  H   H380      1.0  0.11934  0.70583  0.81318  1.0000
  H   H381      1.0  0.11161  0.73875  0.82872  1.0000
  H   H382      1.0  0.19945  0.70758  0.81402  1.0000
  H   H383      1.0  0.17528  0.72148  0.79008  1.0000
  H   H384      1.0  0.16672  0.68668  0.80773  1.0000
  H   H385      1.0  0.14595  0.72482  0.86011  1.0000
  H   H386      1.0  0.15266  0.68877  0.84793  1.0000
  H   H387      1.0  0.18337  0.71322  0.85447  1.0000
  H   H388      1.0  0.20890  0.75882  0.80284  1.0000
  H   H389      1.0  0.13384  0.77639  0.84714  1.0000
  H   H390      1.0  0.22528  0.81210  0.80600  1.0000
  H   H391      1.0  0.15100  0.82972  0.84936  1.0000
  H   H392      1.0  0.19689  0.84794  0.82922  1.0000
  C   C327      1.0  0.05474  0.97178  0.84922  1.0000
  S   S92       1.0  0.17082  0.52510  0.76293  1.0000
  C   C328      1.0  0.44930  0.99458  0.73454  1.0000
  H   H393      1.0  0.41622  0.94624  0.65615  1.0000
  C   C329      1.0  0.06992  0.57843  0.72545  1.0000
  N   N21       1.0  0.24922  0.88639  0.94517  1.0000
  C   C330      1.0  0.02541  0.95987  0.85131  1.0000
  C   C331      1.0  0.23431  0.91573  0.95083  1.0000
  H   H394      1.0  0.07389  0.95636  0.85033  1.0000
  C   C332      1.0  0.28016  0.89311  0.93774  1.0000
  C   C333      1.0  0.29130  0.88639  0.91571  1.0000
  C   C334      1.0  0.30006  0.90744  0.95262  1.0000
  C   C335      1.0  0.32040  0.89397  0.90907  1.0000
  H   H395      1.0  0.34357  0.92707  0.95696  1.0000
  C   C336      1.0  0.33907  0.90875  0.92385  1.0000
  C   C337      1.0  0.03385  0.91020  0.83523  1.0000
  C   C338      1.0  0.05704  0.51895  0.67339  1.0000
  H   H396      1.0  0.03026  0.88443  0.83707  1.0000
  C   C339      1.0  0.06500  0.65587  0.67291  1.0000
  H   H397      1.0  0.22599  0.85816  0.97185  1.0000
  H   H398      1.0  0.20792  0.86776  0.93345  1.0000
  C   C340      1.0  0.24915  0.86402  0.96613  1.0000
  N   N22       1.0  0.02049  0.92570  0.85473  1.0000
  H   H399      1.0  0.02408  0.57554  0.75409  1.0000
  H   H400      1.0  0.27779  0.87614  0.90294  1.0000
  H   H401      1.0  0.02538  0.92396  0.89177  1.0000
  H   H402      1.0  0.32822  0.88948  0.89196  1.0000
  N   N23       1.0  0.44359  0.98093  0.67062  1.0000
  H   H403      1.0  0.36118  0.91574  0.91815  1.0000
  H   H404      1.0  0.50172  0.65941  0.68525  1.0000
  H   H405      1.0  0.41997  0.91861  0.74075  1.0000
  H   H406      1.0  0.09315  0.98781  0.97391  1.0000
  H   H407      1.0  0.45188  0.98067  0.75096  1.0000
  C   C341      1.0  0.44492  0.99731  0.69211  1.0000
  H   H408      1.0  0.01059  0.57329  0.72512  1.0000
  S   S93       1.0  0.45017  0.99573  0.81221  1.0000
  H   H409      1.0  0.49090  0.98003  0.66595  1.0000
  C   C342      1.0  0.03684  0.66084  0.66318  1.0000
  Fe  Fe50      1.0  0.16346  0.50969  0.72741  1.0000
  C   C343      1.0  0.44955  0.98013  0.71383  1.0000
  H   H410      1.0  0.00908  0.67752  0.77655  1.0000
  C   C344      1.0  0.04146  0.50688  0.86667  1.0000
  H   H411      1.0  0.08419  0.66670  0.66441  1.0000
  H   H412      1.0  0.25635  0.51201  0.68241  1.0000
  C   C345      1.0  0.30032  0.50884  0.66754  1.0000
  H   H413      1.0  0.16555  0.93527  0.96971  1.0000
  C   C346      1.0  0.04359  0.50659  0.77939  1.0000
  S   S94       1.0  0.10067  0.56220  0.66314  1.0000
  H   H414      1.0  0.10274  0.51893  0.76771  1.0000
  C   C347      1.0  0.06344  0.54987  0.66563  1.0000
  C   C348      1.0  0.01031  0.56170  0.66429  1.0000
  H   H415      1.0  0.33167  0.99910  0.83624  1.0000
  H   H416      1.0  0.48670  0.68151  0.66014  1.0000
  C   C349      1.0  0.06011  0.00390  0.84650  1.0000
  H   H417      1.0  0.04484  0.59497  0.65452  1.0000
  Fe  Fe51      1.0  0.91448  0.11777  0.10050  1.0000
  S   S95       1.0  0.90800  0.08585  0.13293  1.0000
  S   S96       1.0  0.89491  0.10452  0.06682  1.0000
  Fe  Fe52      1.0  0.94385  0.16855  0.12613  1.0000
  S   S97       1.0  0.93985  0.14085  0.16042  1.0000
  H   H418      1.0  0.93268  0.26497  0.05324  1.0000
  Fe  Fe53      1.0  0.95459  0.09982  0.14150  1.0000
  H   H419      1.0  0.95735  0.35189  0.27371  1.0000
  Fe  Fe54      1.0  0.89370  0.12949  0.14880  1.0000
  S   S98       1.0  0.85526  0.13571  0.17318  1.0000
  S   S99       1.0  0.96217  0.12837  0.10787  1.0000
  S   S100      1.0  0.89669  0.16053  0.11570  1.0000
  Fe  Fe55      1.0  0.69659  0.06555  0.19055  1.0000
  S   S101      1.0  0.69410  0.09725  0.21947  1.0000
  S   S102      1.0  0.73385  0.06296  0.16440  1.0000
  Fe  Fe56      1.0  0.63853  0.03251  0.20470  1.0000
  S   S103      1.0  0.63191  0.06067  0.23494  1.0000
  C   C350      1.0  0.98841  0.28552  0.15992  1.0000
  Fe  Fe57      1.0  0.64560  0.10119  0.21056  1.0000
  S   S104      1.0  0.61651  0.14376  0.21149  1.0000
  Fe  Fe58      1.0  0.68060  0.05404  0.24138  1.0000
  C   C351      1.0  0.88990  0.18634  0.00583  1.0000
  S   S105      1.0  0.64875  0.07342  0.17946  1.0000
  C   C352      1.0  0.94495  0.24584  0.06343  1.0000
  C   C353      1.0  0.94302  0.46785  0.30197  1.0000
  S   S106      1.0  0.97941  0.29781  0.20563  1.0000
  H   H420      1.0  0.55262  0.14781  0.15405  1.0000
  C   C354      1.0  0.55862  0.08430  0.15931  1.0000
  S   S107      1.0  0.97821  0.38858  0.21161  1.0000
  H   H421      1.0  0.98216  0.14114  0.02177  1.0000
  H   H422      1.0  0.88445  0.28398  0.23300  1.0000
  C   C355      1.0  0.97034  0.43278  0.27869  1.0000
  C   C356      1.0  0.96809  0.44919  0.29851  1.0000
  H   H423      1.0  0.85525  0.36717  0.24233  1.0000
  C   C357      1.0  0.91971  0.46943  0.28592  1.0000
  C   C358      1.0  0.92206  0.45332  0.26595  1.0000
  C   C359      1.0  0.94755  0.43537  0.26218  1.0000
  C   C360      1.0  0.94671  0.12756  0.99985  1.0000
  C   C361      1.0  0.51880  0.09043  0.25067  1.0000
  H   H424      1.0  0.90412  0.45462  0.25344  1.0000
  H   H425      1.0  0.94896  0.42255  0.24698  1.0000
  C   C362      1.0  0.98241  0.24008  0.03473  1.0000
  C   C363      1.0  0.61672  0.13621  0.28135  1.0000
  C   C364      1.0  0.62516  0.13495  0.25821  1.0000
  C   C365      1.0  0.60613  0.14657  0.24038  1.0000
  C   C366      1.0  0.57841  0.15920  0.24574  1.0000
  C   C367      1.0  0.56957  0.15961  0.26896  1.0000
  H   H426      1.0  0.64668  0.12540  0.25417  1.0000
  H   H427      1.0  0.56362  0.16817  0.23198  1.0000
  H   H428      1.0  0.54795  0.16887  0.27309  1.0000
  C   C368      1.0  0.88705  0.18472  0.02983  1.0000
  H   H429      1.0  0.99494  0.22404  0.02406  1.0000
  H   H430      1.0  0.86979  0.39081  0.27716  1.0000
  H   H431      1.0  0.99602  0.27385  0.12488  1.0000
  N   N24       1.0  0.54902  0.10568  0.17677  1.0000
  H   H432      1.0  0.92037  0.38309  0.29338  1.0000
  H   H433      1.0  0.55108  0.06012  0.16408  1.0000
  C   C369      1.0  0.95411  0.48126  0.20701  1.0000
  H   H434      1.0  0.97350  0.26008  0.02321  1.0000
  H   H435      1.0  0.93343  0.34034  0.19947  1.0000
  C   C370      1.0  0.96881  0.23915  0.14358  1.0000
  C   C371      1.0  0.91822  0.11488  0.99919  1.0000
  H   H436      1.0  0.98189  0.17965  0.05179  1.0000
  C   C372      1.0  0.97509  0.27637  0.18117  1.0000
  C   C373      1.0  0.95833  0.24883  0.18345  1.0000
  C   C374      1.0  0.95509  0.23035  0.16472  1.0000
  Fe  Fe59      1.0  0.00321  0.34422  0.20594  1.0000
  C   C375      1.0  0.91404  0.37190  0.27801  1.0000
  H   H437      1.0  0.94803  0.24154  0.19986  1.0000
  H   H438      1.0  0.94206  0.20924  0.16671  1.0000
  C   C376      1.0  0.82255  0.11326  0.17216  1.0000
  C   C377      1.0  0.82019  0.08903  0.15759  1.0000
  C   C378      1.0  0.79313  0.07307  0.15597  1.0000
  C   C379      1.0  0.76833  0.08106  0.16899  1.0000
  C   C380      1.0  0.77102  0.10455  0.18417  1.0000
  C   C381      1.0  0.79804  0.12060  0.18572  1.0000
  H   H439      1.0  0.83914  0.08291  0.14745  1.0000
  H   H440      1.0  0.79118  0.05467  0.14444  1.0000
  H   H441      1.0  0.75210  0.11096  0.19425  1.0000
  H   H442      1.0  0.79976  0.13918  0.19714  1.0000
  H   H443      1.0  0.54992  0.09208  0.14176  1.0000
  H   H444      1.0  0.99908  0.24980  0.04639  1.0000
  C   C382      1.0  0.90274  0.10721  0.01990  1.0000
  C   C383      1.0  0.91567  0.11224  0.04130  1.0000
  C   C384      1.0  0.94447  0.12413  0.04195  1.0000
  C   C385      1.0  0.95995  0.13177  0.02125  1.0000
  C   C386      1.0  0.96170  0.50180  0.22353  1.0000
  H   H445      1.0  0.88050  0.09791  0.01928  1.0000
  H   H446      1.0  0.95473  0.12756  0.05835  1.0000
  N   N25       1.0  0.80551  0.09610  0.08429  1.0000
  C   C387      1.0  0.81678  0.11532  0.06371  1.0000
  C   C388      1.0  0.83067  0.07805  0.09546  1.0000
  C   C389      1.0  0.78421  0.07323  0.07593  1.0000
  C   C390      1.0  0.79233  0.11670  0.10089  1.0000
  C   C391      1.0  0.80972  0.14037  0.10993  1.0000
  C   C392      1.0  0.76255  0.11364  0.10897  1.0000
  C   C393      1.0  0.79820  0.15947  0.12618  1.0000
  C   C394      1.0  0.75123  0.13300  0.12516  1.0000
  C   C395      1.0  0.76903  0.15574  0.13382  1.0000
  H   H447      1.0  0.79875  0.13006  0.05523  1.0000
  H   H448      1.0  0.83502  0.13106  0.06816  1.0000
  H   H449      1.0  0.82638  0.10054  0.05061  1.0000
  H   H450      1.0  0.84823  0.09341  0.10168  1.0000
  H   H451      1.0  0.84186  0.06304  0.08326  1.0000
  H   H452      1.0  0.82309  0.06269  0.11068  1.0000
  H   H453      1.0  0.76482  0.08523  0.06702  1.0000
  H   H454      1.0  0.79475  0.05841  0.06329  1.0000
  H   H455      1.0  0.77596  0.05690  0.09046  1.0000
  H   H456      1.0  0.83274  0.14355  0.10514  1.0000
  H   H457      1.0  0.74778  0.09578  0.10381  1.0000
  H   H458      1.0  0.81242  0.17624  0.13372  1.0000
  H   H459      1.0  0.51746  0.14520  0.20279  1.0000
  C   C396      1.0  0.88557  0.37625  0.26878  1.0000
  N   N26       1.0  0.89088  0.32962  0.21532  1.0000
  C   C397      1.0  0.85923  0.33366  0.20822  1.0000
  C   C398      1.0  0.89714  0.29548  0.21821  1.0000
  C   C399      1.0  0.89823  0.34407  0.23696  1.0000
  C   C400      1.0  0.92718  0.34058  0.24672  1.0000
  C   C401      1.0  0.87759  0.36258  0.24857  1.0000
  H   H460      1.0  0.92102  0.29009  0.22151  1.0000
  C   C402      1.0  0.59089  0.05502  0.29299  1.0000
  H   H461      1.0  0.90644  0.19395  0.06197  1.0000
  H   H462      1.0  0.85334  0.35876  0.20413  1.0000
  H   H463      1.0  0.85437  0.32181  0.19225  1.0000
  H   H464      1.0  0.84406  0.32336  0.22193  1.0000
  H   H465      1.0  0.95633  0.22163  0.99934  1.0000
  H   H466      1.0  0.89144  0.28374  0.20236  1.0000
  H   H467      1.0  0.54241  0.03774  0.31904  1.0000
  C   C403      1.0  0.56412  0.23706  0.31204  1.0000
  H   H468      1.0  0.60914  0.04366  0.30372  1.0000
  H   H469      1.0  0.96216  0.25662  0.07405  1.0000
  H   H470      1.0  0.92931  0.23437  0.07628  1.0000
  C   C404      1.0  0.52938  0.26413  0.28530  1.0000
  C   C405      1.0  0.56269  0.13655  0.17024  1.0000
  H   H471      1.0  0.52092  0.26902  0.26783  1.0000
  C   C406      1.0  0.93486  0.35428  0.26691  1.0000
  N   N27       1.0  0.56741  0.03236  0.28801  1.0000
  N   N28       1.0  0.95823  0.22350  0.04805  1.0000
  C   C407      1.0  0.91497  0.19993  0.99531  1.0000
  H   H472      1.0  0.99683  0.15699  0.19226  1.0000
  H   H473      1.0  0.99265  0.07242  0.00502  1.0000
  H   H474      1.0  0.86811  0.17298  0.03803  1.0000
  H   H475      1.0  0.95953  0.45664  0.20996  1.0000
  C   C408      1.0  0.51633  0.10900  0.17844  1.0000
  C   C409      1.0  0.94049  0.49239  0.18634  1.0000
  H   H476      1.0  0.55813  0.10990  0.21297  1.0000
  C   C410      1.0  0.97194  0.19719  0.06261  1.0000
  H   H477      1.0  0.58229  0.22044  0.31438  1.0000
  H   H478      1.0  0.98978  0.20532  0.07399  1.0000
  H   H479      1.0  0.56035  0.15300  0.18395  1.0000
  C   C411      1.0  0.56089  0.09308  0.19957  1.0000
  H   H480      1.0  0.94438  0.32764  0.23859  1.0000
  H   H481      1.0  0.58946  0.01494  0.25872  1.0000
  S   S108      1.0  0.57816  0.14772  0.31585  1.0000
  S   S109      1.0  0.88723  0.49062  0.29104  1.0000
  C   C412      1.0  0.51838  0.02780  0.26785  1.0000
  C   C413      1.0  0.55381  0.24431  0.28943  1.0000
  H   H482      1.0  0.00145  0.30667  0.15801  1.0000
  S   S110      1.0  0.00040  0.44899  0.16004  1.0000
  S   S111      1.0  0.00091  0.40775  0.27573  1.0000
  S   S112      1.0  0.68650  0.02187  0.21326  1.0000
  H   H483      1.0  0.58329  0.08279  0.15802  1.0000
  H   H484      1.0  0.58175  0.07442  0.30258  1.0000
  H   H485      1.0  0.94135  0.48021  0.31745  1.0000
  C   C414      1.0  0.54299  0.04630  0.27330  1.0000
  H   H486      1.0  0.98566  0.44727  0.31136  1.0000
  H   H487      1.0  0.54954  0.07102  0.20583  1.0000
  C   C415      1.0  0.55528  0.01953  0.31061  1.0000
  C   C416      1.0  0.90933  0.34395  0.19613  1.0000
  H   H488      1.0  0.90472  0.33369  0.17947  1.0000
  C   C417      1.0  0.58882  0.14815  0.28676  1.0000
  S   S113      1.0  0.69968  0.04451  0.27719  1.0000
  H   H489      1.0  0.58711  0.13443  0.16745  1.0000
  H   H490      1.0  0.63183  0.12760  0.29499  1.0000
  H   H491      1.0  0.90557  0.36968  0.19353  1.0000
  H   H492      1.0  0.87316  0.17606  0.99539  1.0000
  C   C418      1.0  0.51523  0.27688  0.30374  1.0000
  H   H493      1.0  0.93568  0.47645  0.17328  1.0000
  C   C419      1.0  0.54265  0.07809  0.26412  1.0000
  H   H494      1.0  0.58512  0.08792  0.19875  1.0000
  H   H495      1.0  0.95549  0.18486  0.07431  1.0000
  C   C420      1.0  0.90921  0.19681  0.04339  1.0000
  H   H496      1.0  0.76054  0.16967  0.14714  1.0000
  S   S114      1.0  0.96620  0.21563  0.12007  1.0000
  C   C421      1.0  0.93490  0.21124  0.03323  1.0000
  C   C422      1.0  0.93725  0.21221  0.00869  1.0000
  H   H497      1.0  0.56023  0.09409  0.26743  1.0000
  H   H498      1.0  0.60153  0.06541  0.27692  1.0000
  H   H499      1.0  0.72895  0.12923  0.13194  1.0000
  H   H500      1.0  0.97230  0.49146  0.23908  1.0000
  H   H501      1.0  0.00171  0.17369  0.15139  1.0000
  S   S115      1.0  0.98996  0.06812  0.15873  1.0000
  C   C423      1.0  0.51731  0.00803  0.19418  1.0000
  Fe  Fe60      1.0  0.52865  0.14973  0.31985  1.0000
  H   H502      1.0  0.51848  0.11500  0.24452  1.0000
  H   H503      1.0  0.97367  0.03512  0.00841  1.0000
  H   H504      1.0  0.56426  0.23366  0.27514  1.0000
  C   C424      1.0  0.98532  0.26688  0.14119  1.0000
  C   C425      1.0  0.98200  0.05381  0.99564  1.0000
  H   H505      1.0  0.98032  0.49945  0.12965  1.0000
  H   H506      1.0  0.99086  0.06164  0.10920  1.0000
  H   H507      1.0  0.55037  0.00703  0.22138  1.0000
  C   C426      1.0  0.54655  0.00584  0.20304  1.0000
  C   C427      1.0  0.58158  0.00659  0.27635  1.0000
  C   C428      1.0  0.69486  0.00636  0.28984  1.0000
  H   H508      1.0  0.73530  0.00706  0.30970  1.0000
  C   C429      1.0  0.53520  0.02156  0.37471  1.0000
  N   N29       1.0  0.51341  0.45468  0.46356  1.0000
  C   C430      1.0  0.62772  0.07870  0.34068  1.0000
  H   H509      1.0  0.81188  0.50094  0.32748  1.0000
  H   H510      1.0  0.59825  0.27240  0.35066  1.0000
  H   H511      1.0  0.76675  0.48155  0.33968  1.0000
  C   C431      1.0  0.51359  0.43793  0.44212  1.0000
  H   H512      1.0  0.56053  0.49516  0.61712  1.0000
  H   H513      1.0  0.61057  0.10594  0.64668  1.0000
  H   H514      1.0  0.50984  0.45411  0.42639  1.0000
  C   C432      1.0  0.54609  0.25824  0.37299  1.0000
  N   N30       1.0  0.82137  0.47695  0.36119  1.0000
  C   C433      1.0  0.82903  0.49945  0.34134  1.0000
  H   H515      1.0  0.56376  0.19960  0.37897  1.0000
  H   H516      1.0  0.53252  0.20136  0.35975  1.0000
  C   C434      1.0  0.60942  0.06210  0.35661  1.0000
  H   H517      1.0  0.51008  0.44025  0.50030  1.0000
  C   C435      1.0  0.66574  0.03871  0.34704  1.0000
  C   C436      1.0  0.51340  0.04274  0.36561  1.0000
  C   C437      1.0  0.64848  0.02226  0.36458  1.0000
  H   H518      1.0  0.60209  0.24300  0.37461  1.0000
  H   H519      1.0  0.62001  0.10055  0.33193  1.0000
  H   H520      1.0  0.86774  0.46905  0.36998  1.0000
  C   C438      1.0  0.51496  0.05547  0.63713  1.0000
  H   H521      1.0  0.51286  0.28000  0.33984  1.0000
  C   C439      1.0  0.78970  0.49439  0.39434  1.0000
  C   C440      1.0  0.52451  0.49777  0.38680  1.0000
  C   C441      1.0  0.53546  0.03070  0.63769  1.0000
  H   H522      1.0  0.53485  0.42502  0.44014  1.0000
  H   H523      1.0  0.51297  0.06639  0.37070  1.0000
  H   H524      1.0  0.58729  0.07097  0.35990  1.0000
  H   H525      1.0  0.52848  0.48850  0.50005  1.0000
  N   N31       1.0  0.56128  0.24105  0.35509  1.0000
  H   H526      1.0  0.70242  0.01125  0.38404  1.0000
  C   C442      1.0  0.52543  0.26992  0.32642  1.0000
  C   C443      1.0  0.61940  0.03405  0.36817  1.0000
  C   C444      1.0  0.55773  0.48474  0.44595  1.0000
  C   C445      1.0  0.55035  0.24976  0.33126  1.0000
  C   C446      1.0  0.84652  0.47631  0.37792  1.0000
  H   H527      1.0  0.55515  0.25175  0.39064  1.0000
  C   C447      1.0  0.79258  0.48599  0.37120  1.0000
  H   H528      1.0  0.85025  0.49301  0.33301  1.0000
  H   H529      1.0  0.54540  0.02430  0.62174  1.0000
  H   H530      1.0  0.81199  0.42788  0.36704  1.0000
  H   H531      1.0  0.53693  0.41889  0.48468  1.0000
  C   C448      1.0  0.55649  0.20719  0.36101  1.0000
  H   H532      1.0  0.55144  0.02908  0.38679  1.0000
  H   H533      1.0  0.56866  0.19243  0.34924  1.0000
  C   C449      1.0  0.73878  0.49504  0.36664  1.0000
  C   C450      1.0  0.54289  0.49253  0.48522  1.0000
  H   H534      1.0  0.52203  0.25251  0.37405  1.0000
  H   H535      1.0  0.60396  0.02160  0.37974  1.0000
  C   C451      1.0  0.76624  0.48674  0.35759  1.0000
  C   C452      1.0  0.59356  0.24756  0.35658  1.0000
  H   H536      1.0  0.85057  0.49996  0.38392  1.0000
  C   C453      1.0  0.81914  0.44529  0.35284  1.0000
  H   H537      1.0  0.80853  0.49587  0.40575  1.0000
  C   C454      1.0  0.53823  0.47698  0.46483  1.0000
  H   H538      1.0  0.68716  0.03035  0.34175  1.0000
  S   S116      1.0  0.50939  0.13412  0.35440  1.0000
  H   H539      1.0  0.56699  0.49552  0.36986  1.0000
  C   C455      1.0  0.65550  0.06663  0.33545  1.0000
  H   H540      1.0  0.54837  0.28399  0.36942  1.0000
  H   H541      1.0  0.84248  0.45955  0.39328  1.0000
  C   C456      1.0  0.76205  0.50233  0.40326  1.0000
  H   H542      1.0  0.80302  0.44457  0.33835  1.0000
  H   H543      1.0  0.60709  0.23254  0.34585  1.0000
  H   H544      1.0  0.84084  0.43727  0.34609  1.0000
  S   S117      1.0  0.51166  0.46334  0.37565  1.0000
  H   H545      1.0  0.55561  0.47482  0.42951  1.0000
  C   C457      1.0  0.73667  0.50263  0.38946  1.0000
  H   H546      1.0  0.71909  0.49662  0.35575  1.0000
  C   C458      1.0  0.51474  0.43055  0.48349  1.0000
  H   H547      1.0  0.50888  0.06786  0.62073  1.0000
  H   H548      1.0  0.66913  0.07878  0.32214  1.0000
  H   H549      1.0  0.65403  0.01157  0.41042  1.0000
  H   H550      1.0  0.57311  0.01077  0.32290  1.0000
  H   H551      1.0  0.63924  0.05400  0.65354  1.0000
  C   C459      1.0  0.00335  0.45227  0.63873  1.0000
  H   H552      1.0  0.99494  0.46604  0.62354  1.0000
  Fe  Fe61      1.0  0.94042  0.14534  0.88936  1.0000
  S   S118      1.0  0.91700  0.10093  0.88215  1.0000
  S   S119      1.0  0.95014  0.18094  0.85920  1.0000
  Fe  Fe62      1.0  0.94507  0.12618  0.94096  1.0000
  S   S120      1.0  0.92109  0.08120  0.93812  1.0000
  H   H553      1.0  0.56442  0.21688  0.68831  1.0000
  Fe  Fe63      1.0  0.95004  0.07675  0.90698  1.0000
  S   S121      1.0  0.96985  0.02861  0.90376  1.0000
  Fe  Fe64      1.0  0.89014  0.10917  0.91371  1.0000
  S   S122      1.0  0.83978  0.10813  0.91641  1.0000
  S   S123      1.0  0.97598  0.12028  0.91120  1.0000
  S   S124      1.0  0.91173  0.15507  0.91954  1.0000
  Fe  Fe65      1.0  0.95428  0.39795  0.79627  1.0000
  S   S125      1.0  0.93035  0.40339  0.82958  1.0000
  S   S126      1.0  0.92902  0.40454  0.76260  1.0000
  S   S127      1.0  0.52132  0.16736  0.66591  1.0000
  S   S128      1.0  0.95837  0.48405  0.84661  1.0000
  Fe  Fe66      1.0  0.96001  0.36425  0.84442  1.0000
  S   S129      1.0  0.94422  0.32668  0.87140  1.0000
  S   S130      1.0  0.66329  0.02382  0.75767  1.0000
  C   C460      1.0  0.88647  0.50202  0.75738  1.0000
  S   S131      1.0  0.58539  0.15525  0.70829  1.0000
  C   C461      1.0  0.67334  0.13607  0.69258  1.0000
  H   H554      1.0  0.57459  0.24339  0.74773  1.0000
  H   H555      1.0  0.58874  0.08803  0.70856  1.0000
  C   C462      1.0  0.88108  0.48176  0.74015  1.0000
  Fe  Fe67      1.0  0.70907  0.05779  0.83260  1.0000
  S   S132      1.0  0.69330  0.08285  0.79907  1.0000
  S   S133      1.0  0.75937  0.05671  0.83759  1.0000
  Fe  Fe68      1.0  0.65331  0.09616  0.81914  1.0000
  S   S134      1.0  0.62795  0.14150  0.81246  1.0000
  C   C463      1.0  0.68489  0.08640  0.71333  1.0000
  S   S135      1.0  0.67082  0.07512  0.85348  1.0000
  H   H556      1.0  0.93535  0.41583  0.68032  1.0000
  H   H557      1.0  0.53114  0.28797  0.68615  1.0000
  H   H558      1.0  0.58811  0.11881  0.67006  1.0000
  C   C464      1.0  0.55643  0.25543  0.73852  1.0000
  C   C465      1.0  0.52972  0.02219  0.67923  1.0000
  C   C466      1.0  0.59588  0.15097  0.73749  1.0000
  C   C467      1.0  0.58214  0.16854  0.75380  1.0000
  C   C468      1.0  0.59267  0.16648  0.77674  1.0000
  C   C469      1.0  0.61599  0.14580  0.78353  1.0000
  C   C470      1.0  0.62888  0.12760  0.76730  1.0000
  C   C471      1.0  0.61923  0.13061  0.74428  1.0000
  H   H559      1.0  0.56386  0.18411  0.74866  1.0000
  H   H560      1.0  0.58239  0.18031  0.78936  1.0000
  H   H561      1.0  0.64658  0.11137  0.77236  1.0000
  H   H562      1.0  0.62978  0.11683  0.73184  1.0000
  H   H563      1.0  0.60426  0.04935  0.71075  1.0000
  H   H564      1.0  0.61700  0.25571  0.72675  1.0000
  C   C472      1.0  0.64109  0.09109  0.68780  1.0000
  H   H565      1.0  0.98425  0.46580  0.71175  1.0000
  N   N32       1.0  0.97633  0.42124  0.69888  1.0000
  C   C473      1.0  0.50617  0.27557  0.74104  1.0000
  H   H566      1.0  0.65574  0.04889  0.70861  1.0000
  H   H567      1.0  0.55794  0.25098  0.66904  1.0000
  C   C474      1.0  0.89344  0.45149  0.74205  1.0000
  C   C475      1.0  0.91197  0.44174  0.76080  1.0000
  C   C476      1.0  0.91727  0.46211  0.77794  1.0000
  C   C477      1.0  0.66024  0.07314  0.70334  1.0000
  C   C478      1.0  0.55758  0.26479  0.71437  1.0000
  H   H568      1.0  0.88840  0.43563  0.72909  1.0000
  H   H569      1.0  0.93129  0.45496  0.79256  1.0000
  C   C479      1.0  0.98672  0.44047  0.71734  1.0000
  N   N33       1.0  0.58363  0.25865  0.69976  1.0000
  C   C480      1.0  0.81744  0.09282  0.89492  1.0000
  C   C481      1.0  0.83004  0.07703  0.87715  1.0000
  C   C482      1.0  0.81182  0.06603  0.85987  1.0000
  C   C483      1.0  0.78085  0.07056  0.86017  1.0000
  C   C484      1.0  0.76819  0.08630  0.87796  1.0000
  C   C485      1.0  0.78645  0.09734  0.89529  1.0000
  H   H570      1.0  0.85379  0.07310  0.87677  1.0000
  S   S136      1.0  0.96629  0.13850  0.97426  1.0000
  H   H571      1.0  0.74437  0.08987  0.87839  1.0000
  H   H572      1.0  0.77651  0.10945  0.90901  1.0000
  C   C486      1.0  0.94600  0.28633  0.86754  1.0000
  C   C487      1.0  0.95525  0.27533  0.84666  1.0000
  C   C488      1.0  0.95656  0.24295  0.84434  1.0000
  C   C489      1.0  0.94854  0.22140  0.86283  1.0000
  C   C490      1.0  0.93893  0.23245  0.88359  1.0000
  C   C491      1.0  0.93774  0.26479  0.88593  1.0000
  H   H573      1.0  0.96100  0.29174  0.83224  1.0000
  H   H574      1.0  0.96375  0.23456  0.82815  1.0000
  H   H575      1.0  0.93255  0.21616  0.89790  1.0000
  H   H576      1.0  0.93035  0.27316  0.90208  1.0000
  N   N34       1.0  0.84349  0.17476  0.85072  1.0000
  C   C492      1.0  0.86127  0.16155  0.87077  1.0000
  C   C493      1.0  0.81368  0.15997  0.85225  1.0000
  C   C494      1.0  0.85778  0.16568  0.82917  1.0000
  C   C495      1.0  0.84255  0.20924  0.85085  1.0000
  C   C496      1.0  0.86909  0.22683  0.84804  1.0000
  C   C497      1.0  0.81592  0.22620  0.85455  1.0000
  C   C498      1.0  0.86899  0.25932  0.84864  1.0000
  C   C499      1.0  0.81608  0.25875  0.85510  1.0000
  C   C500      1.0  0.84255  0.27526  0.85216  1.0000
  H   H577      1.0  0.85165  0.16812  0.88741  1.0000
  H   H578      1.0  0.86197  0.13559  0.87165  1.0000
  H   H579      1.0  0.88471  0.16961  0.87002  1.0000
  H   H580      1.0  0.80275  0.16305  0.86916  1.0000
  H   H581      1.0  0.81509  0.13422  0.85113  1.0000
  H   H582      1.0  0.79885  0.16924  0.83786  1.0000
  H   H583      1.0  0.88167  0.17216  0.82811  1.0000
  H   H584      1.0  0.85730  0.13987  0.82809  1.0000
  H   H585      1.0  0.84629  0.17692  0.81357  1.0000
  H   H586      1.0  0.89029  0.21551  0.84571  1.0000
  H   H587      1.0  0.79473  0.21485  0.85728  1.0000
  H   H588      1.0  0.88961  0.27219  0.84663  1.0000
  H   H589      1.0  0.79557  0.27125  0.85802  1.0000
  H   H590      1.0  0.84271  0.30044  0.85279  1.0000
  H   H591      1.0  0.98915  0.03091  0.84787  1.0000
  H   H592      1.0  0.60119  0.21864  0.72052  1.0000
  H   H593      1.0  0.53553  0.07868  0.85720  1.0000
  H   H594      1.0  0.67815  0.16067  0.68885  1.0000
  S   S137      1.0  0.99015  0.43212  0.80251  1.0000
  H   H595      1.0  0.60157  0.03868  0.75393  1.0000
  H   H596      1.0  0.00102  0.38080  0.71377  1.0000
  C   C501      1.0  0.55805  0.02446  0.74365  1.0000
  H   H597      1.0  0.63474  0.13878  0.67156  1.0000
  C   C502      1.0  0.51848  0.03183  0.86159  1.0000
  Fe  Fe69      1.0  0.53639  0.16134  0.70268  1.0000
  H   H598      1.0  0.99753  0.22825  0.90560  1.0000
  H   H599      1.0  0.69844  0.07234  0.72584  1.0000
  C   C503      1.0  0.97847  0.38768  0.70745  1.0000
  C   C504      1.0  0.59409  0.06768  0.69853  1.0000
  C   C505      1.0  0.54251  0.01368  0.65863  1.0000
  C   C506      1.0  0.90444  0.49204  0.77630  1.0000
  C   C507      1.0  0.54726  0.10061  0.80611  1.0000
  H   H600      1.0  0.96193  0.45339  0.65574  1.0000
  H   H601      1.0  0.97241  0.37241  0.69360  1.0000
  H   H602      1.0  0.61570  0.28517  0.67871  1.0000
  C   C508      1.0  0.56722  0.06415  0.77008  1.0000
  H   H603      1.0  0.60256  0.03879  0.65842  1.0000
  H   H604      1.0  0.60104  0.30467  0.70264  1.0000
  C   C509      1.0  0.98444  0.44461  0.65747  1.0000
  H   H605      1.0  0.82175  0.05374  0.84622  1.0000
  H   H606      1.0  0.56415  0.11570  0.79702  1.0000
  H   H607      1.0  0.63074  0.02923  0.67925  1.0000
  S   S138      1.0  0.62727  0.05422  0.81133  1.0000
  H   H608      1.0  0.71022  0.12812  0.71617  1.0000
  C   C510      1.0  0.57780  0.04206  0.75567  1.0000
  C   C511      1.0  0.53629  0.06845  0.77360  1.0000
  H   H609      1.0  0.53751  0.11494  0.81940  1.0000
  H   H610      1.0  0.58372  0.07763  0.77829  1.0000
  H   H611      1.0  0.55897  0.08041  0.81552  1.0000
  Fe  Fe70      1.0  0.64724  0.03188  0.84390  1.0000
  Fe  Fe71      1.0  0.66836  0.03906  0.79378  1.0000
  C   C512      1.0  0.51029  0.04812  0.67881  1.0000
  S   S139      1.0  0.50912  0.20105  0.71365  1.0000
  C   C513      1.0  0.69142  0.11782  0.70799  1.0000
  C   C514      1.0  0.60835  0.24199  0.71275  1.0000
  C   C515      1.0  0.57118  0.04475  0.86042  1.0000
  C   C516      1.0  0.53099  0.26079  0.75153  1.0000
  H   H612      1.0  0.58853  0.06212  0.85863  1.0000
  H   H613      1.0  0.93083  0.42168  0.71032  1.0000
  H   H614      1.0  0.57902  0.30118  0.67714  1.0000
  C   C517      1.0  0.54117  0.05409  0.85953  1.0000
  H   H615      1.0  0.96344  0.38198  0.72250  1.0000
  C   C518      1.0  0.59536  0.28871  0.68912  1.0000
  C   C519      1.0  0.51185  0.11805  0.77667  1.0000
  H   H616      1.0  0.52905  0.13040  0.76565  1.0000
  Fe  Fe72      1.0  0.96787  0.43537  0.83670  1.0000
  H   H617      1.0  0.59373  0.23279  0.67021  1.0000
  C   C520      1.0  0.62209  0.04857  0.66706  1.0000
  C   C521      1.0  0.53208  0.28035  0.70440  1.0000
  N   N35       1.0  0.52440  0.09009  0.78998  1.0000
  H   H618      1.0  0.90782  0.11160  0.98274  1.0000
  S   S140      1.0  0.98086  0.35581  0.81026  1.0000
  C   C522      1.0  0.51679  0.05154  0.76004  1.0000
  S   S141      1.0  0.68662  0.01254  0.82568  1.0000
  H   H619      1.0  0.96545  0.02882  0.95775  1.0000
  H   H620      1.0  0.56644  0.00718  0.73263  1.0000
  C   C523      1.0  0.57457  0.23911  0.68103  1.0000
  C   C524      1.0  0.64845  0.12307  0.68261  1.0000
  C   C525      1.0  0.59685  0.09801  0.66197  1.0000
  H   H621      1.0  0.62746  0.23744  0.70130  1.0000
  C   C526      1.0  0.94435  0.42856  0.69471  1.0000
  H   H622      1.0  0.86707  0.48922  0.72553  1.0000
  H   H623      1.0  0.57273  0.05836  0.69263  1.0000
  N   N36       1.0  0.61399  0.07686  0.67883  1.0000
  H   H624      1.0  0.53030  0.25286  0.76980  1.0000
  H   H625      1.0  0.97369  0.43587  0.73359  1.0000
  H   H626      1.0  0.51222  0.01675  0.73548  1.0000
  C   C527      1.0  0.98594  0.01825  0.96608  1.0000
  H   H627      1.0  0.53524  0.00913  0.69544  1.0000
  H   H628      1.0  0.50839  0.05200  0.81307  1.0000
  H   H629      1.0  0.94041  0.45415  0.69077  1.0000
  C   C528      1.0  0.52757  0.02965  0.74547  1.0000
  S   S142      1.0  0.99532  0.39718  0.85505  1.0000
  C   C529      1.0  0.99508  0.42777  0.67807  1.0000
  C   C530      1.0  0.57872  0.01311  0.86455  1.0000
  H   H630      1.0  0.99905  0.00926  0.95183  1.0000
  H   H631      1.0  0.91766  0.19996  0.97669  1.0000
  H   H632      1.0  0.99176  0.07996  0.95401  1.0000
  C   C531      1.0  0.99028  0.50486  0.85341  1.0000
  H   H633      1.0  0.96202  0.06491  0.98688  1.0000
  C   C532      1.0  0.50675  0.28541  0.71753  1.0000
  N   N37       1.0  0.00271  0.04116  0.97872  1.0000
  H   H634      1.0  0.78668  0.50269  0.72045  1.0000
  H   H635      1.0  0.57690  0.08624  0.65535  1.0000
  C   C533      1.0  0.96135  0.73292  0.27040  1.0000
  C   C534      1.0  0.98605  0.75161  0.23407  1.0000
  H   H636      1.0  0.72786  0.95499  0.24986  1.0000
  H   H637      1.0  0.59331  0.88870  0.23332  1.0000
  C   C535      1.0  0.99427  0.65313  0.28640  1.0000
  H   H638      1.0  0.95641  0.00154  0.14353  1.0000
  C   C536      1.0  0.96478  0.64580  0.29234  1.0000
  H   H639      1.0  0.64740  0.94145  0.20530  1.0000
  H   H640      1.0  0.51383  0.93448  0.30794  1.0000
  H   H641      1.0  0.91649  0.71668  0.26760  1.0000
  H   H642      1.0  0.56603  0.98697  0.27424  1.0000
  C   C537      1.0  0.94275  0.64736  0.27522  1.0000
  H   H643      1.0  0.96691  0.98876  0.10358  1.0000
  C   C538      1.0  0.95038  0.65525  0.25210  1.0000
  Fe  Fe73      1.0  0.57117  0.90597  0.30862  1.0000
  H   H644      1.0  0.93337  0.65642  0.23882  1.0000
  H   H645      1.0  0.98440  0.56001  0.27004  1.0000
  H   H646      1.0  0.99074  0.78633  0.19136  1.0000
  C   C539      1.0  0.95936  0.74494  0.22227  1.0000
  C   C540      1.0  0.97083  0.98189  0.14054  1.0000
  H   H647      1.0  0.52202  0.86729  0.29832  1.0000
  H   H648      1.0  0.91453  0.72740  0.22508  1.0000
  C   C541      1.0  0.66520  0.95957  0.29677  1.0000
  H   H649      1.0  0.96231  0.72722  0.28899  1.0000
  H   H650      1.0  0.96527  0.52426  0.26737  1.0000
  H   H651      1.0  0.92482  0.53293  0.16552  1.0000
  S   S143      1.0  0.55399  0.91602  0.27254  1.0000
  H   H652      1.0  0.64591  0.94617  0.29311  1.0000
  H   H653      1.0  0.00041  0.81194  0.22811  1.0000
  C   C542      1.0  0.93548  0.72698  0.25837  1.0000
  Fe  Fe74      1.0  0.90444  0.59931  0.30988  1.0000
  C   C543      1.0  0.94201  0.54498  0.19832  1.0000
  C   C544      1.0  0.56521  0.99805  0.16480  1.0000
  H   H654      1.0  0.95895  0.63963  0.31026  1.0000
  S   S144      1.0  0.86407  0.56921  0.31428  1.0000
  H   H655      1.0  0.98118  0.55663  0.13110  1.0000
  C   C545      1.0  0.51207  0.00519  0.17059  1.0000
  C   C546      1.0  0.97997  0.66179  0.24611  1.0000
  C   C547      1.0  0.52396  0.84141  0.29946  1.0000
  C   C548      1.0  0.51920  0.93449  0.27100  1.0000
  H   H656      1.0  0.74579  0.68574  0.31955  1.0000
  H   H657      1.0  0.65383  0.99861  0.27219  1.0000
  S   S145      1.0  0.90569  0.63923  0.28244  1.0000
  N   N38       1.0  0.63378  0.91465  0.23691  1.0000
  H   H658      1.0  0.98562  0.51849  0.31951  1.0000
  C   C549      1.0  0.63681  0.91892  0.21131  1.0000
  C   C550      1.0  0.95587  0.53444  0.21963  1.0000
  C   C551      1.0  0.66346  0.91264  0.24805  1.0000
  C   C552      1.0  0.68474  0.93643  0.24274  1.0000
  C   C553      1.0  0.67157  0.88844  0.26523  1.0000
  C   C554      1.0  0.71242  0.93596  0.25374  1.0000
  C   C555      1.0  0.69937  0.88816  0.27612  1.0000
  C   C556      1.0  0.71972  0.91186  0.27041  1.0000
  H   H659      1.0  0.61342  0.93885  0.26382  1.0000
  H   H660      1.0  0.60096  0.99641  0.28635  1.0000
  N   N39       1.0  0.96290  0.55689  0.23688  1.0000
  C   C557      1.0  0.61744  0.94183  0.24488  1.0000
  C   C558      1.0  0.97897  0.54245  0.25759  1.0000
  H   H661      1.0  0.65027  0.89976  0.20469  1.0000
  C   C559      1.0  0.66980  0.98902  0.28486  1.0000
  H   H662      1.0  0.51842  0.93894  0.23366  1.0000
  H   H663      1.0  0.00206  0.57293  0.21839  1.0000
  H   H664      1.0  0.67977  0.95621  0.23056  1.0000
  H   H665      1.0  0.65663  0.86989  0.27106  1.0000
  C   C560      1.0  0.00384  0.94013  0.15537  1.0000
  H   H666      1.0  0.70470  0.87019  0.28982  1.0000
  H   H667      1.0  0.74078  0.91212  0.27950  1.0000
  H   H668      1.0  0.99868  0.87147  0.13245  1.0000
  C   C561      1.0  0.71579  0.99373  0.30598  1.0000
  C   C562      1.0  0.93481  0.57063  0.24490  1.0000
  H   H669      1.0  0.61473  0.91969  0.20249  1.0000
  H   H670      1.0  0.52993  0.83493  0.28185  1.0000
  S   S146      1.0  0.93602  0.55979  0.30583  1.0000
  H   H671      1.0  0.62642  0.86503  0.23705  1.0000
  C   C563      1.0  0.97680  0.97465  0.11804  1.0000
  H   H672      1.0  0.59527  0.94498  0.23631  1.0000
  C   C564      1.0  0.98626  0.74513  0.25852  1.0000
  H   H673      1.0  0.93894  0.58754  0.25805  1.0000
  H   H674      1.0  0.93724  0.56948  0.19396  1.0000
  H   H675      1.0  0.98904  0.59860  0.23918  1.0000
  H   H676      1.0  0.91982  0.55214  0.25285  1.0000
  H   H677      1.0  0.98006  0.97095  0.17661  1.0000
  C   C565      1.0  0.61524  0.88649  0.24236  1.0000
  H   H678      1.0  0.00037  0.53161  0.25272  1.0000
  H   H679      1.0  0.62970  0.96405  0.24115  1.0000
  C   C566      1.0  0.93451  0.73288  0.23437  1.0000
  H   H680      1.0  0.60980  0.88321  0.26112  1.0000
  C   C567      1.0  0.78890  0.66612  0.31576  1.0000
  Fe  Fe75      1.0  0.89659  0.52948  0.31352  1.0000
  C   C568      1.0  0.71162  0.96392  0.31727  1.0000
  C   C569      1.0  0.68594  0.94713  0.31312  1.0000
  S   S147      1.0  0.60659  0.99343  0.19945  1.0000
  C   C570      1.0  0.50640  0.94289  0.24934  1.0000
  H   H681      1.0  0.78823  0.66949  0.29702  1.0000
  H   H682      1.0  0.83254  0.64500  0.31657  1.0000
  H   H683      1.0  0.98546  0.66823  0.22832  1.0000
  H   H684      1.0  0.92232  0.58374  0.23059  1.0000
  H   H685      1.0  0.97015  0.59721  0.21232  1.0000
  S   S148      1.0  0.60521  0.86795  0.31484  1.0000
  H   H686      1.0  0.95715  0.74841  0.20368  1.0000
  C   C571      1.0  0.99663  0.95044  0.11399  1.0000
  C   C572      1.0  0.98179  0.58244  0.22626  1.0000
  C   C573      1.0  0.00198  0.66080  0.26322  1.0000
  C   C574      1.0  0.98430  0.96467  0.15917  1.0000
  C   C575      1.0  0.93450  0.52420  0.18198  1.0000
  H   H687      1.0  0.54014  0.99951  0.30889  1.0000
  H   H688      1.0  0.54306  0.83494  0.31123  1.0000
  S   S149      1.0  0.00279  0.59601  0.16371  1.0000
  H   H689      1.0  0.51713  0.00345  0.27409  1.0000
  H   H690      1.0  0.50994  0.78232  0.29502  1.0000
  C   C576      1.0  0.99230  0.54181  0.14453  1.0000
  H   H691      1.0  0.00115  0.94707  0.09608  1.0000
  C   C577      1.0  0.99172  0.50936  0.14375  1.0000
  H   H692      1.0  0.53224  0.99795  0.13778  1.0000
  C   C578      1.0  0.57060  0.00113  0.18827  1.0000
  H   H693      1.0  0.58350  0.99341  0.15344  1.0000
  C   C579      1.0  0.53614  0.00034  0.15598  1.0000
  S   S150      1.0  0.56370  0.96484  0.37975  1.0000
  C   C580      1.0  0.58445  0.74879  0.37519  1.0000
  C   C581      1.0  0.71214  0.66372  0.36020  1.0000
  H   H694      1.0  0.71453  0.72321  0.37217  1.0000
  Fe  Fe76      1.0  0.63004  0.90301  0.33370  1.0000
  H   H695      1.0  0.71501  0.66716  0.50691  1.0000
  H   H696      1.0  0.55287  0.59048  0.46320  1.0000
  S   S151      1.0  0.91289  0.60081  0.34788  1.0000
  C   C582      1.0  0.64714  0.96631  0.36564  1.0000
  H   H697      1.0  0.56076  0.71245  0.63973  1.0000
  C   C583      1.0  0.74990  0.59672  0.51379  1.0000
  Fe  Fe77      1.0  0.66783  0.60591  0.63884  1.0000
  S   S152      1.0  0.67904  0.65567  0.62734  1.0000
  Fe  Fe78      1.0  0.60084  0.61656  0.63189  1.0000
  S   S153      1.0  0.60755  0.66700  0.61981  1.0000
  S   S154      1.0  0.67897  0.91190  0.32987  1.0000
  Fe  Fe79      1.0  0.64546  0.64976  0.59929  1.0000
  S   S155      1.0  0.65039  0.67005  0.56242  1.0000
  C   C584      1.0  0.76487  0.67096  0.35341  1.0000
  S   S156      1.0  0.63660  0.59915  0.60913  1.0000
  Fe  Fe80      1.0  0.64917  0.65731  0.40889  1.0000
  S   S157      1.0  0.68793  0.62606  0.41999  1.0000
  S   S158      1.0  0.66117  0.70824  0.40086  1.0000
  Fe  Fe81      1.0  0.60608  0.60244  0.41048  1.0000
  S   S159      1.0  0.64174  0.56707  0.42042  1.0000
  S   S160      1.0  0.55721  0.59004  0.41162  1.0000
  Fe  Fe82      1.0  0.65627  0.60161  0.44511  1.0000
  S   S161      1.0  0.66743  0.58157  0.48135  1.0000
  Fe  Fe83      1.0  0.67033  0.59467  0.39436  1.0000
  S   S162      1.0  0.70046  0.57488  0.36773  1.0000
  S   S163      1.0  0.61916  0.63572  0.43667  1.0000
  S   S164      1.0  0.63300  0.62711  0.38177  1.0000
  C   C585      1.0  0.65382  0.64481  0.54015  1.0000
  C   C586      1.0  0.65122  0.65717  0.51706  1.0000
  C   C587      1.0  0.65494  0.63784  0.49887  1.0000
  C   C588      1.0  0.66161  0.60611  0.50373  1.0000
  C   C589      1.0  0.66388  0.59365  0.52684  1.0000
  C   C590      1.0  0.65969  0.61290  0.54502  1.0000
  H   H698      1.0  0.64663  0.68185  0.51319  1.0000
  H   H699      1.0  0.65326  0.64767  0.48110  1.0000
  H   H700      1.0  0.66903  0.56909  0.53064  1.0000
  H   H701      1.0  0.66155  0.60309  0.56271  1.0000
  C   C591      1.0  0.54565  0.55372  0.40286  1.0000
  H   H702      1.0  0.65915  0.96975  0.41201  1.0000
  H   H703      1.0  0.74806  0.57025  0.33519  1.0000
  Fe  Fe84      1.0  0.87478  0.56702  0.35219  1.0000
  H   H704      1.0  0.56722  0.63837  0.57795  1.0000
  C   C592      1.0  0.53813  0.56808  0.62896  1.0000
  C   C593      1.0  0.80198  0.57446  0.37620  1.0000
  C   C594      1.0  0.78907  0.57214  0.35443  1.0000
  C   C595      1.0  0.75793  0.57294  0.35194  1.0000
  C   C596      1.0  0.73950  0.57678  0.37104  1.0000
  C   C597      1.0  0.75245  0.58058  0.39257  1.0000
  C   C598      1.0  0.78355  0.57916  0.39515  1.0000
  C   C599      1.0  0.80169  0.59545  0.65073  1.0000
  H   H705      1.0  0.54438  0.67672  0.63260  1.0000
  H   H706      1.0  0.73850  0.58324  0.40745  1.0000
  C   C600      1.0  0.56377  0.53633  0.38908  1.0000
  H   H707      1.0  0.70129  0.98640  0.36032  1.0000
  H   H708      1.0  0.75335  0.72867  0.36564  1.0000
  H   H709      1.0  0.52164  0.71103  0.63233  1.0000
  S   S165      1.0  0.84081  0.57060  0.38082  1.0000
  S   S166      1.0  0.60936  0.88900  0.36824  1.0000
  H   H710      1.0  0.56177  0.74188  0.37231  1.0000
  Fe  Fe85      1.0  0.57524  0.92602  0.35743  1.0000
  H   H711      1.0  0.62133  0.73454  0.63116  1.0000
  H   H712      1.0  0.52057  0.78656  0.32424  1.0000
  S   S167      1.0  0.55170  0.60563  0.63337  1.0000
  C   C601      1.0  0.55338  0.59249  0.48176  1.0000
  C   C602      1.0  0.59289  0.77996  0.36959  1.0000
  C   C603      1.0  0.60518  0.72650  0.38469  1.0000
  C   C604      1.0  0.63448  0.73532  0.38873  1.0000
  C   C605      1.0  0.64294  0.76645  0.38301  1.0000
  C   C606      1.0  0.62225  0.78869  0.37344  1.0000
  H   H713      1.0  0.59843  0.70260  0.38908  1.0000
  H   H714      1.0  0.66553  0.77346  0.38615  1.0000
  H   H715      1.0  0.62899  0.81263  0.36923  1.0000
  N   N40       1.0  0.65910  0.99284  0.37727  1.0000
  C   C607      1.0  0.74084  0.57986  0.65035  1.0000
  S   S168      1.0  0.56628  0.80742  0.35782  1.0000
  Fe  Fe86      1.0  0.63994  0.66787  0.64900  1.0000
  H   H716      1.0  0.51421  0.95715  0.34857  1.0000
  H   H717      1.0  0.69988  0.96936  0.38897  1.0000
  N   N41       1.0  0.73892  0.68089  0.36680  1.0000
  C   C608      1.0  0.74277  0.67499  0.39227  1.0000
  C   C609      1.0  0.73337  0.71491  0.36170  1.0000
  H   H718      1.0  0.55270  0.65253  0.54997  1.0000
  S   S169      1.0  0.57318  0.83235  0.64826  1.0000
  C   C610      1.0  0.55310  0.50856  0.38092  1.0000
  C   C611      1.0  0.59946  0.77730  0.63898  1.0000
  C   C612      1.0  0.73586  0.62287  0.50271  1.0000
  H   H719      1.0  0.79270  0.65146  0.38252  1.0000
  H   H720      1.0  0.72301  0.68302  0.40182  1.0000
  H   H721      1.0  0.59496  0.51225  0.43291  1.0000
  H   H722      1.0  0.65588  0.94340  0.37336  1.0000
  H   H723      1.0  0.73113  0.62379  0.48430  1.0000
  H   H724      1.0  0.69237  0.66953  0.37060  1.0000
  S   S170      1.0  0.98727  0.55339  0.36044  1.0000
  C   C613      1.0  0.54561  0.51421  0.62032  1.0000
  C   C614      1.0  0.58492  0.52069  0.46805  1.0000
  H   H725      1.0  0.59021  0.63839  0.55311  1.0000
  S   S171      1.0  0.70307  0.56921  0.64894  1.0000
  H   H726      1.0  0.60148  0.60937  0.52363  1.0000
  H   H727      1.0  0.62255  0.96553  0.36667  1.0000
  C   C615      1.0  0.51413  0.98098  0.35329  1.0000
  H   H728      1.0  0.79335  0.58110  0.41203  1.0000
  N   N42       1.0  0.74927  0.61731  0.57680  1.0000
  C   C616      1.0  0.71970  0.61169  0.58743  1.0000
  C   C617      1.0  0.76958  0.59168  0.58596  1.0000
  C   C618      1.0  0.76126  0.64698  0.58441  1.0000
  C   C619      1.0  0.74587  0.61933  0.55129  1.0000
  C   C620      1.0  0.73118  0.64540  0.53944  1.0000
  C   C621      1.0  0.75498  0.59484  0.53771  1.0000
  H   H729      1.0  0.72721  0.72109  0.34331  1.0000
  C   C622      1.0  0.51417  0.57873  0.35226  1.0000
  H   H730      1.0  0.57070  0.55484  0.56403  1.0000
  H   H731      1.0  0.70991  0.58957  0.58225  1.0000
  H   H732      1.0  0.72096  0.60974  0.60664  1.0000
  H   H733      1.0  0.70370  0.63092  0.58219  1.0000
  H   H734      1.0  0.76030  0.56819  0.58364  1.0000
  H   H735      1.0  0.77323  0.59198  0.60495  1.0000
  H   H736      1.0  0.79189  0.59380  0.57771  1.0000
  H   H737      1.0  0.76643  0.64507  0.60329  1.0000
  H   H738      1.0  0.78215  0.65364  0.57503  1.0000
  H   H739      1.0  0.74524  0.66679  0.58177  1.0000
  H   H740      1.0  0.72189  0.66406  0.54865  1.0000
  H   H741      1.0  0.76556  0.57372  0.54519  1.0000
  C   C623      1.0  0.53578  0.99072  0.36843  1.0000
  H   H742      1.0  0.50777  0.58553  0.52807  1.0000
  C   C624      1.0  0.79064  0.65659  0.36402  1.0000
  H   H743      1.0  0.58109  0.54684  0.62487  1.0000
  H   H744      1.0  0.75630  0.57751  0.50380  1.0000
  H   H745      1.0  0.74552  0.64956  0.39751  1.0000
  C   C625      1.0  0.81474  0.64765  0.35077  1.0000
  S   S172      1.0  0.54506  0.89305  0.34084  1.0000
  H   H746      1.0  0.80293  0.56943  0.33953  1.0000
  C   C626      1.0  0.55730  0.54345  0.62470  1.0000
  Fe  Fe87      1.0  0.94159  0.55831  0.34418  1.0000
  H   H747      1.0  0.59530  0.78498  0.62099  1.0000
  Fe  Fe88      1.0  0.58129  0.85707  0.34847  1.0000
  C   C627      1.0  0.61411  0.74869  0.64472  1.0000
  C   C628      1.0  0.57756  0.57917  0.56665  1.0000
  C   C629      1.0  0.57977  0.60011  0.49244  1.0000
  N   N43       1.0  0.55640  0.60237  0.55539  1.0000
  C   C630      1.0  0.52735  0.59806  0.56739  1.0000
  C   C631      1.0  0.51117  0.60751  0.36146  1.0000
  C   C632      1.0  0.56703  0.63424  0.55921  1.0000
  C   C633      1.0  0.55486  0.59851  0.53024  1.0000
  C   C634      1.0  0.58054  0.60316  0.51625  1.0000
  C   C635      1.0  0.52837  0.59000  0.51891  1.0000
  S   S173      1.0  0.83918  0.60603  0.64652  1.0000
  H   H748      1.0  0.73280  0.62946  0.64939  1.0000
  H   H749      1.0  0.51900  0.57374  0.56690  1.0000
  H   H750      1.0  0.62444  0.98579  0.40328  1.0000
  H   H751      1.0  0.52911  0.60212  0.58606  1.0000
  H   H752      1.0  0.51030  0.61490  0.55987  1.0000
  H   H753      1.0  0.57884  0.58112  0.58567  1.0000
  H   H754      1.0  0.76219  0.68778  0.39857  1.0000
  C   C636      1.0  0.77975  0.61891  0.64990  1.0000
  H   H755      1.0  0.59980  0.60383  0.48221  1.0000
  H   H756      1.0  0.60057  0.58235  0.55991  1.0000
  H   H757      1.0  0.71580  0.63808  0.36298  1.0000
  H   H758      1.0  0.58569  0.54471  0.38420  1.0000
  H   H759      1.0  0.72785  0.95429  0.32975  1.0000
  C   C637      1.0  0.72676  0.64726  0.51548  1.0000
  C   C638      1.0  0.51717  0.54273  0.40898  1.0000
  H   H760      1.0  0.53050  0.62217  0.36304  1.0000
  S   S174      1.0  0.59796  0.94207  0.32436  1.0000
  H   H761      1.0  0.65289  0.96837  0.34696  1.0000
  H   H762      1.0  0.70580  0.66908  0.34177  1.0000
  H   H763      1.0  0.83403  0.63638  0.35924  1.0000
  H   H764      1.0  0.53588  0.57123  0.34664  1.0000
  H   H765      1.0  0.60273  0.53745  0.46919  1.0000
  C   C639      1.0  0.51476  0.50932  0.62031  1.0000
  C   C640      1.0  0.54020  0.69817  0.64172  1.0000
  C   C641      1.0  0.50728  0.56327  0.62885  1.0000
  C   C642      1.0  0.74944  0.61116  0.64986  1.0000
  C   C643      1.0  0.64878  0.99010  0.40175  1.0000
  H   H766      1.0  0.83170  0.52331  0.34711  1.0000
  H   H767      1.0  0.53479  0.75476  0.65099  1.0000
  S   S175      1.0  0.90441  0.52443  0.35189  1.0000
  H   H768      1.0  0.71549  0.51009  0.39614  1.0000
  C   C644      1.0  0.76474  0.67536  0.32884  1.0000
  H   H769      1.0  0.56938  0.52528  0.50257  1.0000
  C   C645      1.0  0.52779  0.58724  0.49498  1.0000
  C   C646      1.0  0.69208  0.99010  0.37768  1.0000
  H   H770      1.0  0.76042  0.50948  0.42072  1.0000
  C   C647      1.0  0.81387  0.65233  0.32672  1.0000
  H   H771      1.0  0.78625  0.64321  0.64895  1.0000
  C   C648      1.0  0.56609  0.51379  0.48681  1.0000
  C   C649      1.0  0.50675  0.51465  0.40117  1.0000
  C   C650      1.0  0.58063  0.50631  0.44765  1.0000
  H   H772      1.0  0.50735  0.58113  0.48656  1.0000
  H   H773      1.0  0.50590  0.83001  0.34399  1.0000
  H   H774      1.0  0.75629  0.53212  0.65173  1.0000
  C   C651      1.0  0.79310  0.56410  0.65167  1.0000
  H   H775      1.0  0.80988  0.54590  0.65164  1.0000
  C   C652      1.0  0.76278  0.55636  0.65155  1.0000
  Fe  Fe89      1.0  0.93283  0.55380  0.68364  1.0000
  S   S176      1.0  0.93713  0.57214  0.71844  1.0000
  H   H776      1.0  0.71110  0.82937  0.70137  1.0000
  S   S177      1.0  0.87518  0.61161  0.70677  1.0000
  Fe  Fe90      1.0  0.92381  0.61815  0.70029  1.0000
  S   S178      1.0  0.94946  0.66055  0.70795  1.0000
  Fe  Fe91      1.0  0.88836  0.56347  0.72148  1.0000
  H   H777      1.0  0.64632  0.88962  0.84591  1.0000
  C   C653      1.0  0.52634  0.94201  0.81787  1.0000
  C   C654      1.0  0.67132  0.89893  0.68692  1.0000
  H   H778      1.0  0.58851  0.80037  0.69302  1.0000
  Fe  Fe92      1.0  0.56216  0.86665  0.67450  1.0000
  S   S179      1.0  0.54619  0.85506  0.71087  1.0000
  C   C655      1.0  0.75693  0.63706  0.71603  1.0000
  Fe  Fe93      1.0  0.55818  0.93733  0.67825  1.0000
  S   S180      1.0  0.54171  0.93200  0.71473  1.0000
  C   C656      1.0  0.77144  0.52293  0.71613  1.0000
  Fe  Fe94      1.0  0.57610  0.89403  0.71970  1.0000
  S   S181      1.0  0.60510  0.89142  0.75123  1.0000
  C   C657      1.0  0.58084  0.90131  0.81683  1.0000
  S   S182      1.0  0.59513  0.90227  0.68406  1.0000
  C   C658      1.0  0.67848  0.93009  0.68966  1.0000
  H   H779      1.0  0.97924  0.99773  0.97787  1.0000
  H   H780      1.0  0.82726  0.53507  0.71678  1.0000
  C   C659      1.0  0.72879  0.63418  0.70639  1.0000
  S   S183      1.0  0.87157  0.54012  0.75500  1.0000
  H   H781      1.0  0.67686  0.94751  0.67504  1.0000
  Fe  Fe95      1.0  0.87500  0.59029  0.67264  1.0000
  S   S184      1.0  0.63096  0.61836  0.66271  1.0000
  N   N44       1.0  0.53288  0.69038  0.66651  1.0000
  H   H782      1.0  0.56175  0.96635  0.87073  1.0000
  C   C660      1.0  0.62719  0.93447  0.83507  1.0000
  H   H783      1.0  0.76858  0.52514  0.69696  1.0000
  C   C661      1.0  0.71803  0.60470  0.70265  1.0000
  C   C662      1.0  0.52782  0.74936  0.66869  1.0000
  H   H784      1.0  0.55693  0.99433  0.81970  1.0000
  N   N45       1.0  0.66506  0.84248  0.70380  1.0000
  H   H785      1.0  0.50854  0.98283  0.86731  1.0000
  S   S185      1.0  0.88451  0.54132  0.68794  1.0000
  H   H786      1.0  0.69603  0.82348  0.73008  1.0000
  S   S186      1.0  0.52656  0.90259  0.66533  1.0000
  C   C663      1.0  0.62154  0.92805  0.75314  1.0000
  C   C664      1.0  0.63689  0.93448  0.77319  1.0000
  C   C665      1.0  0.64921  0.96415  0.77501  1.0000
  H   H787      1.0  0.96284  0.58304  0.90584  1.0000
  H   H788      1.0  0.53524  0.99692  0.79391  1.0000
  C   C666      1.0  0.61885  0.95121  0.73476  1.0000
  H   H789      1.0  0.63917  0.91656  0.78734  1.0000
  H   H790      1.0  0.66097  0.96906  0.79058  1.0000
  H   H791      1.0  0.98582  0.89109  0.85838  1.0000
  H   H792      1.0  0.60725  0.94644  0.71914  1.0000
  C   C667      1.0  0.76437  0.58008  0.71793  1.0000
  C   C668      1.0  0.62788  0.90193  0.83712  1.0000
  C   C669      1.0  0.68717  0.93901  0.71121  1.0000
  C   C670      1.0  0.77442  0.61047  0.72191  1.0000
  C   C671      1.0  0.55869  0.67324  0.67748  1.0000
  C   C672      1.0  0.52612  0.71821  0.67915  1.0000
  H   H793      1.0  0.55413  0.66385  0.69555  1.0000
  H   H794      1.0  0.56331  0.88741  0.81024  1.0000
  H   H795      1.0  0.87227  0.53289  0.81222  1.0000
  S   S187      1.0  0.63947  0.70374  0.67543  1.0000
  C   C673      1.0  0.95614  0.65925  0.73778  1.0000
  C   C674      1.0  0.81353  0.55681  0.71454  1.0000
  C   C675      1.0  0.93498  0.55145  0.88878  1.0000
  C   C676      1.0  0.96708  0.65610  0.78561  1.0000
  C   C677      1.0  0.94028  0.64513  0.77717  1.0000
  C   C678      1.0  0.93513  0.64596  0.75329  1.0000
  C   C679      1.0  0.92989  0.59929  0.85333  1.0000
  H   H796      1.0  0.65308  0.81023  0.67858  1.0000
  H   H797      1.0  0.92346  0.63603  0.78908  1.0000
  H   H798      1.0  0.91452  0.63712  0.74687  1.0000
  C   C680      1.0  0.61092  0.75769  0.68530  1.0000
  S   S188      1.0  0.56887  0.98332  0.65861  1.0000
  C   C681      1.0  0.59595  0.78620  0.67956  1.0000
  C   C682      1.0  0.63923  0.83351  0.71872  1.0000
  C   C683      1.0  0.88418  0.53547  0.82883  1.0000
  H   H799      1.0  0.60543  0.86003  0.82939  1.0000
  H   H800      1.0  0.93806  0.54513  0.81225  1.0000
  H   H801      1.0  0.64499  0.94746  0.84243  1.0000
  C   C684      1.0  0.94919  0.57982  0.89081  1.0000
  H   H802      1.0  0.79600  0.61396  0.72946  1.0000
  H   H803      1.0  0.80032  0.52721  0.75552  1.0000
  H   H804      1.0  0.86564  0.58692  0.80645  1.0000
  H   H805      1.0  0.52171  0.91658  0.81851  1.0000
  H   H806      1.0  0.68155  0.86982  0.74315  1.0000
  S   S189      1.0  0.96719  0.51754  0.67604  1.0000
  C   C685      1.0  0.68110  0.88578  0.72770  1.0000
  H   H807      1.0  0.88927  0.61411  0.81858  1.0000
  N   N46       1.0  0.78329  0.55226  0.72439  1.0000
  H   H808      1.0  0.69219  0.96326  0.71344  1.0000
  C   C686      1.0  0.60345  0.95063  0.82386  1.0000
  H   H809      1.0  0.64345  0.83650  0.73731  1.0000
  H   H810      1.0  0.86739  0.53357  0.84293  1.0000
  H   H811      1.0  0.63692  0.84814  0.67335  1.0000
  H   H812      1.0  0.86253  0.59318  0.83678  1.0000
  H   H813      1.0  0.97877  0.97563  0.85247  1.0000
  H   H814      1.0  0.68655  0.79723  0.70906  1.0000
  H   H815      1.0  0.81267  0.56450  0.69577  1.0000
  H   H816      1.0  0.97746  0.92659  0.87108  1.0000
  C   C687      1.0  0.78594  0.54780  0.74996  1.0000
  H   H817      1.0  0.89965  0.51501  0.83129  1.0000
  H   H818      1.0  0.57831  0.68877  0.67802  1.0000
  H   H819      1.0  0.97093  0.54948  0.84209  1.0000
  C   C688      1.0  0.94656  0.60374  0.87314  1.0000
  H   H820      1.0  0.93783  0.53253  0.90224  1.0000
  H   H821      1.0  0.63303  0.80863  0.71760  1.0000
  H   H822      1.0  0.76533  0.66006  0.71881  1.0000
  S   S190      1.0  0.61629  0.00107  0.86615  1.0000
  C   C689      1.0  0.92283  0.56567  0.80953  1.0000
  H   H823      1.0  0.67598  0.84166  0.66754  1.0000
  C   C690      1.0  0.73542  0.57797  0.70825  1.0000
  C   C691      1.0  0.99025  0.53742  0.84919  1.0000
  H   H824      1.0  0.99558  0.61713  0.70183  1.0000
  H   H825      1.0  0.93703  0.58685  0.80866  1.0000
  H   H826      1.0  0.56787  0.94810  0.76889  1.0000
  H   H827      1.0  0.61521  0.75002  0.70327  1.0000
  H   H828      1.0  0.91225  0.56478  0.79219  1.0000
  C   C692      1.0  0.98861  0.91695  0.85604  1.0000
  H   H829      1.0  0.52910  0.94782  0.83610  1.0000
  C   C693      1.0  0.67243  0.87573  0.70595  1.0000
  C   C694      1.0  0.91553  0.57053  0.85044  1.0000
  H   H830      1.0  0.61941  0.84818  0.71366  1.0000
  S   S191      1.0  0.97322  0.65385  0.81559  1.0000
  H   H831      1.0  0.99023  0.65059  0.66654  1.0000
  H   H832      1.0  0.97650  0.92529  0.83989  1.0000
  N   N47       1.0  0.90042  0.56556  0.82830  1.0000
  H   H833      1.0  0.50530  0.87368  0.75049  1.0000
  H   H834      1.0  0.92945  0.61825  0.83986  1.0000
  N   N48       1.0  0.55295  0.95080  0.80385  1.0000
  H   H835      1.0  0.69444  0.92416  0.74707  1.0000
  C   C695      1.0  0.54840  0.94157  0.77998  1.0000
  C   C696      1.0  0.55602  0.99083  0.86733  1.0000
  C   C697      1.0  0.57933  0.93450  0.81456  1.0000
  H   H836      1.0  0.90918  0.52364  0.86815  1.0000
  H   H837      1.0  0.69634  0.60256  0.69470  1.0000
  H   H838      1.0  0.54525  0.91601  0.77942  1.0000
  C   C698      1.0  0.98272  0.67089  0.74615  1.0000
  H   H839      1.0  0.60453  0.97580  0.82297  1.0000
  H   H840      1.0  0.52830  0.95294  0.77170  1.0000
  H   H841      1.0  0.82632  0.57448  0.72322  1.0000
  C   C699      1.0  0.87852  0.59104  0.82235  1.0000
  H   H842      1.0  0.74976  0.51645  0.72434  1.0000
  Fe  Fe96      1.0  0.51328  0.89393  0.70256  1.0000
  C   C700      1.0  0.98848  0.66872  0.77008  1.0000
  C   C701      1.0  0.52594  0.00010  0.86532  1.0000
  C   C702      1.0  0.91834  0.54670  0.86896  1.0000
  C   C703      1.0  0.63191  0.98047  0.73628  1.0000
  H   H843      1.0  0.72582  0.55609  0.70422  1.0000
  C   C704      1.0  0.55521  0.98543  0.80227  1.0000
  C   C705      1.0  0.68853  0.91690  0.73017  1.0000
  H   H844      1.0  0.71535  0.65482  0.70160  1.0000
  C   C706      1.0  0.64698  0.98705  0.75644  1.0000
  C   C707      1.0  0.51097  0.74044  0.71513  1.0000
  C   C708      1.0  0.69080  0.82233  0.71142  1.0000
  C   C709      1.0  0.00178  0.98218  0.85040  1.0000
  H   H845      1.0  0.95825  0.62558  0.87439  1.0000
  C   C710      1.0  0.62015  0.73897  0.66787  1.0000
  H   H846      1.0  0.76377  0.54430  0.75821  1.0000
  C   C711      1.0  0.60483  0.88536  0.82788  1.0000
  H   H847      1.0  0.90913  0.50754  0.78948  1.0000
  C   C712      1.0  0.65748  0.83555  0.67977  1.0000
  C   C713      1.0  0.52093  0.77501  0.68113  1.0000
  H   H848      1.0  0.66435  0.89380  0.66981  1.0000
  H   H849      1.0  0.79636  0.56828  0.75724  1.0000
  H   H850      1.0  0.56533  0.65288  0.66784  1.0000
  H   H851      1.0  0.99894  0.68125  0.73412  1.0000
  S   S192      1.0  0.92328  0.60073  0.66490  1.0000
  H   H852      1.0  0.96800  0.51609  0.78429  1.0000
  C   C714      1.0  0.51771  0.71459  0.70284  1.0000
  H   H853      1.0  0.57496  0.99356  0.79199  1.0000
  H   H854      1.0  0.51644  0.69170  0.71207  1.0000
  C   C715      1.0  0.98934  0.51323  0.77606  1.0000
  H   H855      1.0  0.97047  0.51175  0.74203  1.0000
  C   C716      1.0  0.99071  0.51054  0.75232  1.0000
  C   C717      1.0  0.59064  0.79626  0.65634  1.0000
  H   H856      1.0  0.52258  0.79857  0.67281  1.0000
  H   H857      1.0  0.99234  0.57830  0.66070  1.0000
  H   H858      1.0  0.63029  0.99798  0.72181  1.0000
  C   C718      1.0  0.50693  0.66914  0.66737  1.0000
  C   C719      1.0  0.51250  0.77059  0.70427  1.0000
  H   H859      1.0  0.50591  0.95414  0.81085  1.0000
  H   H860      1.0  0.50731  0.79063  0.71380  1.0000
  H   H861      1.0  0.00402  0.97215  0.90940  1.0000
  H   H862      1.0  0.51100  0.64851  0.65726  1.0000
  H   H863      1.0  0.50459  0.73713  0.73320  1.0000
  H   H864      1.0  0.00308  0.60737  0.74061  1.0000
  C   C720      1.0  0.00400  0.53068  0.67196  1.0000
