data_image0
_chemical_formula_structural       H2C2SCH2C2HSH2CSH2C3H4CHC2HC4HCH2CHC2H3FeHFeS2HSFeSHSH4C2HFeS2FeS2FeSFeS3H3CSNH2FeSHCFeS2FeS2FeSFeS3FeS2CHFeHCSHCH3SC2HC2H3C6H5C2H2C6H4C6H4C6H4C3HCH4CH9C6H8CHCSC2H2CHCHNC3H6SNSH2C8HC2HFeH5CH2FeNC6HCFeH7CHCHCH2CHCSH3C4H9NC5H3CHNC3HC2H2NCNH2CH3CHC4H3C3H2CHCHCHCHC5HC5H4CNC2HC4HSCHNH3C2H5CHCH3CHCHCHCHCSH3CHSCH5C2H5C3HFeHC2H2FeS2FeS2FeSFeS3HCH3FeC2SFe2C3SH2SHFeSFeSHSH2CH3SH2C5HC6H3C3H2CHCH2C2HCSHC2H2CH4FeNH2CH2C3H2C6H2CH2C3H2C7H4CFeH4C2HCNSHC3NHSHC6HCHCHNH9C2H2CH2C3H6CHCSH3C3H2SCSC2H2SHCHC2HCSCHCH2C2HNH2CH4CH2CHC2H4CHCH2CH3CSHC3H3NHFeSHFeS2FeCH2S2FeHSNCHS2H3C7H4CHCH2FeSCH2C2H2CHC2H4CHCH2CHCHC2H4C3H2CHCHNCHCHCH3CH3CHCH2SCHC3HCHCHCHC2NH2C4NH2CHSH2CHC4H2CFeC2HCH2C2H2CH5FeSH2CHCH4C2H2CSHSHFeS2FeSFeS3FeSHFeSHFeSFeHSC8H3CFeC2H3C2H2C6H8NC4SHCNH6C7H3NCH4C2HCHCSCH2CHSHCSHFeHCH3CH2C5NH4CHC2HSH2CH3CHCH2C3HSH3CSCH2CHCHCH2C2H2SHCH2FeSCFeH2C2H3C3HCHCH5SHFeCSH2CH3SHFeS2FeSFe2S3CH5FeH2CFeH4FeHC2NHCH3C6H5CHCHCH3CHNC3HC3SH2C2H2C2H2SCSCHCHSHC2HC2H2CSC2H4C3HC6HC2HCHNCFeCHSH3C2FeC2H2SCHSH2SCH2CH2C2HCH2CSC2H2C2SHFeHNH2SCH6SH4S2C4HCHCHCH2C6HFeS2FeSFeSFeHS2HCHFeS2FeS2FeSFeS3HCHSCH2FeSCH2SC2HSHFeSFeSHCHCHSC2HCHC3HSCHC3FeC2H9CHC3H2SHC2H2CNC2HCHCHC2HNC3H2C4HCH4C6H5C3H2C7H4C6H6CH3CH2CH4CH3CHCH3C2H4C2HCHSCH5CH2CNC9H13CSCSC2H3C3H2CHNCH2CH2C2HSHCSH2CHCH2CHCHCHCH3C2HNCHCHC2HSHFeH2C2HFeC2H3CH3SFeHCH2C2H4SH3C2HNSHNFeHC5S3CSCNHCH3CHC4HCH4FeCH2CFeHC2HCHCSH2C2HFeHC2NCH2SH3CH2C2NHCH2CH3CH3CNCH4CH2C2SC2H5CHSCHCFeCH4FeS2FeS2FeHFeHS3HCSC6H9FeCSHC6H4SC2SHCH2CH2CFeH2CHCHNCS2FeHC2H2C2SHCH3CH2CHSHC2FeHNHC4HC2H3CHS2HCSH2C2H2CSH2C2HCSH5CH2C2HCHSHFeH2CH2FeSCFeSCFeSFeS3H3NHCHCHCHFe2S2FeSHFeSFeCS3HS2C5HCNH3C2SC2SNC3FeCH2CHCHCH2CNC6H4C6H2FeHC6HCH2SCH3C3H2CH3CH4FeHCFeHSFeHC3H2SHSH3C2H6CHC2H2C2HC3H3CSHCH3SHSH2NC6H6CH4CFeSFeSC2HNH2SC3HC3H2C2H2SHNHFeSHCHSHCSHFeC2SHNC9HSHCH2FeH7SC2HSC2SCSHCHCH3C2NH2SH2C2H4CH2CHSH9CHFeS2FeHSFeSHCS2HCHCH3CSH3NHNHNH2CH3SC7H4CHC4H6CHCH2CHSC3HCH2CHC3HC3HSCH2C2HC4HFeH5CHCHC2HSC4H2C2FeH3C2H2CH2CH2CHCHC3HFeH2C2HCH3C2H3CSHC2NH2CHCSC2HSHSC2H2CH2CHC2H3C2HCSHCHSHCSC2SCFeCHFeS2FeS2FeSFeS3CFeHSH2S2FeS2FeS2FeSFeS3CSFeHSFeCSFeH3S2CSC4H6C6HCH2C6HC2HC6H4C6H4CHCH3CHC5H5SHSHSNCH2CHC5H7CHC2HCHC2H2SHC3HSH3CHSCFeHCHNHC2H2C2HSC2H2C2NC6NCH4C2NH6CH7CFeN2HCHCSNC5H8CH2C2H3CHFeHCH3C2H6CH2NH14C4FeHC2H2CHCHFeSCH2CHCSCHCH3CHFeHSHSC2HCSFe2H3FeC3H2C4HCSCH2C2NH3CHCH2FeH3CH2CH2CH3SCFeSH2SH2SC3H2C2SFeHSFeCS2FeHCH2C2HC4HCFeHC3HCNC2H2FeCNCH2FeHC2H3SH3NH3C2SHC6H3CHC4HCH2CSHNC2SH4SCFeHCFeHCSH2FeSHCH3SCH5CH2FeCHCNH3CSCHC4H2SHCH4C4SCH2SH5C2HCH3C2H3CNH2C2HCFeHSHSC3H2FeHC2HSHCFeSH2FeHFeS2NSC2H2C6H5C2HCH3CHC7H2CH3SCHNHCH3C2SHSHC2HC2H4CHCH3SCHCHCH2CHNHCH3C2SFeCSH4C2NC2FeCHCH3C3H2CSHFeS2FeS2FeSFeS5FeS2FeS2FeSFeS3FeS2FeS2FeSFeS3FeS2HSFeSCSH2NFeC2HC2H3C6H4C6H4C6H4C6H4C6H4C6H4C6H4C6H4C4HC2HC4H2NC7HCH6SH2CHSH3C2H5NHC4H7CHNC2HC7HC2HCHSHFeH3CH2CH2C3H2C2HCHCHCHCH2C3HC2HNC9H12NHC8NHCH11NC7H12CHFeHC2H2CH4CHCHCH3C3H3CH6CH2SFeCSC5H2CNHCNC4H3CH2S2HN2CHFeSHCS2C3SH2SH2SCH13FeC2HC2HSH2CFeSH2CH4C2FeC2H4NH3CH2SC2S2C2H2CH3CH2C2FeCH5C2H5FeHCH8C2H2CHCH2CH4SC4FeSFeHFeSC2HSHCH2C2HCSCH8S2HCH2CFe2H2SCFeHCHNSHCH2C4HC4H2CNFeC2H3FeSC2SCH2C2SHCH2C2SNCHCH3CH3CHC3HCH3SH2C2HSNH2CHCHCH3FeSFeS2FeSFeS3FeS2FeS2FeCFeS4CH14NC6HCH2CHCHCHCH2C3HCHCHCSHC6H4CHC4H4CH2C2H6C4SCH3C2HCH3C4H3C2H3C2H3C2NH2C2HSC5HNC9H13C2H2CHCSCNHSH2CH2CH3CHCH5C3HC2H4C2H2C4HNH2CHCH2FeH2SHC3HC4HC2H2CNH2CH3CHCH2C4NHCH5CH2C4H3SCFeS2FeS2FeSFeS4CFeCFeSNHC2H3C2H4C6H5C2HC7H5C5H4CHS2C2H3CHCH4C2FeHCHNC8H9C2H2FeH4CHC2HCHC2SH2Fe2SH3CH4CH3CHCHSHCHC2H2C3H2C2HC3NHCH2NHCS2H2NC3HSC3HC2HSH5NCH3C2H5C4H3C2H2CSC2NC3H3CHCHCFeCHCHFeHSFeHSFeH3S2CNFeS2FeS2CFeSHSHFeS2FeS2FeSFeS2CHCFeHSCHC3H4CH3FeSC2HCH2CH3C2H3C7H4CH2NC2HCHCNC3H3C6H4C4H5SH2C2HC2SCHCSC8H8SH2CHCHC2H2SHC3HC3HSH2CH2CHCNCHCH2CHCH3C2HCH2SC2HCHNH2CHC2H6CFeCHCH2CS2CSCH3C2FeS2FeS2FeSFeHS2H2SFeS2FeS2Fe2S6NSC2HC2H2S2H2C4HCH2C3H2C6H4C6H4C6H5C8H4CHC2H2CHC2H2C3H3C2H2FeHSH2C7H2FeNC9H14C2HCHCSH2CHCH5C4H7C3FeCNH3C2HCH2NC2NHCHCH2CHSH2C2H2CNH3CHCH6FeHC2FeCNCHFeCH2CH3CHFeHSH5C3HSCHNC2H3C2HC2HC2H2CH2C3SHSHCSC2NH2NH3FeH4FeC2H4CFeH2CNHC2SHCHCFeHC2H3CSNCS3HCH4SH2C2H3SHCHC4HC5SCSCH3FeCH4CHCH2C3FeSCFeHSHC2HCHSC2HNH2SFeS2FeCSCH3S3C6H4C3NCHCFeHCS2H3Fe2C2H4C2H2SC6HCH2NCHCHCHCSCHCHCH4SCH2CHCHSCHC3H3C2FeC2NC6HCNH7FeCSH3CNC6H2CH12CHCFeHCH2SHC3HCHC2H2SH2C2HFeSHCH3CH2C3HSH2CH3CH4CHC2HSHC4HSC3FeSFeH2CH2FeSC4HSFeSCFeSHSHFeSHSFeHCH2CNHC4HNCH3SH5CHC2FeCS2HC5H4C2HCH2C2H2NHFeSCFeH2CHCSHCH2FeH6CSC4NHC3HCNC2H2CH2CFeHC2FeCHSHSHCHCHSH2C4HCHSCHCH11SHCH2C2H3FeHCH3C2HCHCSC2FeC2H2NH2SH2CHFeC2HCHCHC2HCH2C2SCHCSHC2SCH2CFeSHCH2CH5SH5C4NHFeCSFeHC2NSHCH4SC3SHSFeCHNHCHC5FeHSH3CH6C2HC2HCHCSHSH2SH3C2H2SHCH4CHC3H2CSH3NHFeSCHCFeS2FeS2FeSFeS3CH3CH3C3H2SFe2SH4SFeCSFeCSCH3S2H2CHCHCSH6NH3C2HCHCH2C6HCH5S2HCH2CHC6H4C6H2SHC4H3C3H6CHC2HCHC6H4FeCH3C3NHSHFeSH4CH2CH2SH7C2HC5H2C2H4CH3C2H2NH2CHC3NC11SHCHFeCHC2H3CFeHFeC2H2SHC4H3CHCNCSCHC3HCH5NHCH3C3HCFeSFeHSC2FeHS2HFeC2SHCSHCSCH6C
_chemical_formula_sum              "H2592 C2160 S576 Fe288 N144"
_cell_length_a       76.8984
_cell_length_b       77.7656
_cell_length_c       77.2991
_cell_angle_alpha    74.4762
_cell_angle_beta     74.1924
_cell_angle_gamma    74.0888

_space_group_name_H-M_alt    "P 1"
_space_group_IT_number       1

loop_
  _space_group_symop_operation_xyz
  'x, y, z'

loop_
  _atom_site_type_symbol
  _atom_site_label
  _atom_site_symmetry_multiplicity
  _atom_site_fract_x
  _atom_site_fract_y
  _atom_site_fract_z
  _atom_site_occupancy
  H   H1        1.0  0.49664  0.12535  0.31391  1.0000
  H   H2        1.0  0.47144  0.15392  0.24141  1.0000
  C   C1        1.0  0.48100  0.05576  0.30293  1.0000
  C   C2        1.0  0.49517  0.08266  0.15906  1.0000
  S   S1        1.0  0.47271  0.11560  0.26554  1.0000
  C   C3        1.0  0.48445  0.03704  0.30393  1.0000
  H   H3        1.0  0.47005  0.18699  0.23673  1.0000
  H   H4        1.0  0.48033  0.08228  0.16469  1.0000
  C   C4        1.0  0.49348  0.18088  0.19328  1.0000
  C   C5        1.0  0.46040  0.10617  0.30274  1.0000
  H   H5        1.0  0.45001  0.10120  0.29961  1.0000
  S   S2        1.0  0.48360  0.23589  0.13440  1.0000
  H   H6        1.0  0.46823  0.06451  0.29949  1.0000
  H   H7        1.0  0.47436  0.03117  0.30136  1.0000
  C   C6        1.0  0.39982  0.99023  0.31145  1.0000
  S   S3        1.0  0.49179  0.09224  0.22558  1.0000
  H   H8        1.0  0.48598  0.20996  0.02575  1.0000
  H   H9        1.0  0.48409  0.01279  0.23082  1.0000
  C   C7        1.0  0.48867  0.04443  0.17434  1.0000
  C   C8        1.0  0.48667  0.11977  0.31085  1.0000
  C   C9        1.0  0.47363  0.11364  0.28842  1.0000
  H   H10       1.0  0.49653  0.09644  0.15960  1.0000
  H   H11       1.0  0.48345  0.20411  0.20716  1.0000
  H   H12       1.0  0.47379  0.02317  0.17925  1.0000
  H   H13       1.0  0.47644  0.05336  0.18047  1.0000
  C   C10       1.0  0.47742  0.16145  0.22809  1.0000
  H   H14       1.0  0.41604  0.01084  0.29922  1.0000
  C   C11       1.0  0.42052  0.99234  0.28143  1.0000
  C   C12       1.0  0.48688  0.12031  0.29250  1.0000
  H   H15       1.0  0.48634  0.13796  0.21573  1.0000
  C   C13       1.0  0.49402  0.06338  0.30613  1.0000
  C   C14       1.0  0.41239  0.99898  0.29749  1.0000
  C   C15       1.0  0.49375  0.16195  0.19650  1.0000
  C   C16       1.0  0.49378  0.18907  0.16064  1.0000
  H   H16       1.0  0.49060  0.07796  0.30485  1.0000
  C   C17       1.0  0.48696  0.02722  0.17359  1.0000
  H   H17       1.0  0.43038  0.99904  0.27071  1.0000
  H   H18       1.0  0.49552  0.17472  0.15955  1.0000
  C   C18       1.0  0.48455  0.18974  0.20828  1.0000
  H   H19       1.0  0.48735  0.06788  0.19544  1.0000
  C   C19       1.0  0.48585  0.15244  0.21363  1.0000
  C   C20       1.0  0.47671  0.18006  0.22541  1.0000
  H   H20       1.0  0.47868  0.19530  0.16333  1.0000
  H   H21       1.0  0.49692  0.12636  0.28146  1.0000
  H   H22       1.0  0.48620  0.21781  0.17587  1.0000
  Fe  Fe1       1.0  0.49778  0.10042  0.24847  1.0000
  H   H23       1.0  0.49703  0.98877  0.21253  1.0000
  Fe  Fe2       1.0  0.44785  0.05409  0.37326  1.0000
  S   S4        1.0  0.43894  0.08032  0.38335  1.0000
  S   S5        1.0  0.42849  0.04304  0.36416  1.0000
  H   H24       1.0  0.31220  0.09722  0.42008  1.0000
  S   S6        1.0  0.48124  0.07155  0.39047  1.0000
  Fe  Fe3       1.0  0.45401  0.06432  0.40576  1.0000
  S   S7        1.0  0.44394  0.06194  0.43627  1.0000
  H   H25       1.0  0.40556  0.08029  0.36874  1.0000
  S   S8        1.0  0.46070  0.03763  0.39689  1.0000
  H   H26       1.0  0.27330  0.12372  0.55261  1.0000
  H   H27       1.0  0.17247  0.14201  0.61953  1.0000
  H   H28       1.0  0.45194  0.07688  0.63674  1.0000
  H   H29       1.0  0.26315  0.10263  0.54541  1.0000
  C   C21       1.0  0.25249  0.00061  0.51883  1.0000
  C   C22       1.0  0.33805  0.99568  0.46694  1.0000
  H   H30       1.0  0.07568  0.12493  0.54304  1.0000
  Fe  Fe4       1.0  0.20883  0.08520  0.56350  1.0000
  S   S9        1.0  0.19017  0.10368  0.54527  1.0000
  S   S10       1.0  0.22757  0.09997  0.56871  1.0000
  Fe  Fe5       1.0  0.19575  0.05124  0.56370  1.0000
  S   S11       1.0  0.17570  0.06762  0.54589  1.0000
  S   S12       1.0  0.20161  0.02030  0.57228  1.0000
  Fe  Fe6       1.0  0.19920  0.08117  0.52969  1.0000
  S   S13       1.0  0.20791  0.08548  0.49890  1.0000
  Fe  Fe7       1.0  0.16891  0.08824  0.56360  1.0000
  S   S14       1.0  0.14054  0.10180  0.57756  1.0000
  S   S15       1.0  0.21955  0.06371  0.54654  1.0000
  S   S16       1.0  0.18724  0.07086  0.58289  1.0000
  H   H31       1.0  0.00706  0.18909  0.52216  1.0000
  H   H32       1.0  0.14792  0.12612  0.62314  1.0000
  H   H33       1.0  0.33715  0.05965  0.42205  1.0000
  C   C23       1.0  0.47723  0.07971  0.64165  1.0000
  S   S17       1.0  0.29029  0.07005  0.63477  1.0000
  N   N1        1.0  0.25425  0.02847  0.45092  1.0000
  H   H34       1.0  0.18565  0.11426  0.58476  1.0000
  H   H35       1.0  0.29299  0.01495  0.49697  1.0000
  Fe  Fe8       1.0  0.30719  0.08879  0.63630  1.0000
  S   S18       1.0  0.32920  0.09697  0.61175  1.0000
  H   H36       1.0  0.18683  0.14833  0.59731  1.0000
  C   C24       1.0  0.33803  0.99195  0.56507  1.0000
  Fe  Fe9       1.0  0.31725  0.07974  0.52165  1.0000
  S   S19       1.0  0.30833  0.05999  0.51126  1.0000
  S   S20       1.0  0.30000  0.08367  0.54924  1.0000
  Fe  Fe10      1.0  0.34595  0.08827  0.48732  1.0000
  S   S21       1.0  0.34030  0.06867  0.47436  1.0000
  S   S22       1.0  0.36430  0.10608  0.46735  1.0000
  Fe  Fe11      1.0  0.31040  0.08024  0.48459  1.0000
  S   S23       1.0  0.29236  0.08585  0.46435  1.0000
  Fe  Fe12      1.0  0.33866  0.04979  0.50176  1.0000
  S   S24       1.0  0.34802  0.01978  0.50255  1.0000
  S   S25       1.0  0.31594  0.10137  0.49582  1.0000
  S   S26       1.0  0.34778  0.06797  0.51420  1.0000
  Fe  Fe13      1.0  0.08311  0.20156  0.55018  1.0000
  S   S27       1.0  0.06596  0.19851  0.57897  1.0000
  S   S28       1.0  0.10744  0.18171  0.53741  1.0000
  C   C25       1.0  0.01814  0.14729  0.53444  1.0000
  H   H37       1.0  0.21622  0.99635  0.52735  1.0000
  Fe  Fe14      1.0  0.04165  0.21001  0.56549  1.0000
  H   H38       1.0  0.00377  0.20178  0.63899  1.0000
  C   C26       1.0  0.39009  0.01616  0.39340  1.0000
  S   S29       1.0  0.05857  0.21051  0.53689  1.0000
  H   H39       1.0  0.28663  0.06110  0.58519  1.0000
  C   C27       1.0  0.26670  0.03291  0.50449  1.0000
  H   H40       1.0  0.08283  0.16450  0.52828  1.0000
  H   H41       1.0  0.19029  0.02407  0.50133  1.0000
  H   H42       1.0  0.05714  0.15639  0.57482  1.0000
  S   S30       1.0  0.47413  0.11066  0.34809  1.0000
  C   C28       1.0  0.22875  0.03974  0.47633  1.0000
  C   C29       1.0  0.32641  0.02946  0.47718  1.0000
  H   H43       1.0  0.04786  0.17575  0.55877  1.0000
  C   C30       1.0  0.25643  0.12831  0.50387  1.0000
  C   C31       1.0  0.20323  0.02472  0.49137  1.0000
  H   H44       1.0  0.32112  0.04227  0.48146  1.0000
  H   H45       1.0  0.15272  0.00261  0.60103  1.0000
  H   H46       1.0  0.31102  0.15274  0.49498  1.0000
  C   C32       1.0  0.32169  0.09630  0.59254  1.0000
  C   C33       1.0  0.30275  0.09901  0.59374  1.0000
  C   C34       1.0  0.29643  0.09588  0.57983  1.0000
  C   C35       1.0  0.30892  0.09004  0.56459  1.0000
  C   C36       1.0  0.32791  0.08825  0.56274  1.0000
  C   C37       1.0  0.33433  0.09143  0.57679  1.0000
  H   H47       1.0  0.29292  0.10322  0.60564  1.0000
  H   H48       1.0  0.28178  0.09758  0.58112  1.0000
  H   H49       1.0  0.33765  0.08382  0.55091  1.0000
  H   H50       1.0  0.34903  0.08933  0.57584  1.0000
  H   H51       1.0  0.01439  0.20362  0.61478  1.0000
  C   C38       1.0  0.44200  0.02595  0.35226  1.0000
  C   C39       1.0  0.38934  0.09297  0.39133  1.0000
  H   H52       1.0  0.26343  0.01660  0.54435  1.0000
  H   H53       1.0  0.18474  0.13668  0.57076  1.0000
  C   C40       1.0  0.11627  0.15963  0.54908  1.0000
  C   C41       1.0  0.13146  0.14862  0.53952  1.0000
  C   C42       1.0  0.13901  0.13089  0.54819  1.0000
  C   C43       1.0  0.13126  0.12399  0.56646  1.0000
  C   C44       1.0  0.11603  0.13497  0.57609  1.0000
  C   C45       1.0  0.10861  0.15284  0.56746  1.0000
  H   H54       1.0  0.13744  0.15384  0.52530  1.0000
  H   H55       1.0  0.15065  0.12248  0.54063  1.0000
  H   H56       1.0  0.11010  0.12971  0.59030  1.0000
  H   H57       1.0  0.09715  0.16138  0.57506  1.0000
  C   C46       1.0  0.23136  0.08604  0.48966  1.0000
  C   C47       1.0  0.23813  0.08754  0.47071  1.0000
  C   C48       1.0  0.25689  0.08746  0.46304  1.0000
  C   C49       1.0  0.26898  0.08583  0.47430  1.0000
  C   C50       1.0  0.26229  0.08430  0.49325  1.0000
  C   C51       1.0  0.24344  0.08461  0.50089  1.0000
  H   H58       1.0  0.22880  0.08884  0.46195  1.0000
  H   H59       1.0  0.26200  0.08878  0.44835  1.0000
  H   H60       1.0  0.27162  0.08294  0.50196  1.0000
  H   H61       1.0  0.23827  0.08381  0.51543  1.0000
  C   C52       1.0  0.22861  0.09910  0.59127  1.0000
  C   C53       1.0  0.24236  0.10610  0.59402  1.0000
  C   C54       1.0  0.24521  0.10362  0.61175  1.0000
  C   C55       1.0  0.23363  0.09499  0.62686  1.0000
  C   C56       1.0  0.21904  0.08908  0.62421  1.0000
  C   C57       1.0  0.21668  0.09089  0.60638  1.0000
  H   H62       1.0  0.25122  0.11293  0.58235  1.0000
  H   H63       1.0  0.25625  0.10851  0.61379  1.0000
  H   H64       1.0  0.21000  0.08251  0.63596  1.0000
  H   H65       1.0  0.20595  0.08558  0.60436  1.0000
  C   C58       1.0  0.19189  0.00860  0.56191  1.0000
  C   C59       1.0  0.18244  0.01787  0.54785  1.0000
  C   C60       1.0  0.17454  0.00835  0.54001  1.0000
  H   H66       1.0  0.34047  0.11267  0.42575  1.0000
  C   C61       1.0  0.23698  0.02669  0.46500  1.0000
  H   H67       1.0  0.42501  0.01237  0.39510  1.0000
  H   H68       1.0  0.18111  0.03236  0.54297  1.0000
  H   H69       1.0  0.16690  0.01571  0.52941  1.0000
  H   H70       1.0  0.47662  0.99456  0.63900  1.0000
  C   C62       1.0  0.06951  0.16118  0.52862  1.0000
  H   H71       1.0  0.32736  0.10909  0.40146  1.0000
  H   H72       1.0  0.37131  0.10367  0.41373  1.0000
  H   H73       1.0  0.35068  0.06109  0.43694  1.0000
  H   H74       1.0  0.26285  0.07320  0.58585  1.0000
  H   H75       1.0  0.23889  0.04733  0.51368  1.0000
  H   H76       1.0  0.35159  0.09278  0.44027  1.0000
  H   H77       1.0  0.37485  0.02136  0.39713  1.0000
  H   H78       1.0  0.45069  0.09878  0.33214  1.0000
  H   H79       1.0  0.00518  0.13611  0.58087  1.0000
  C   C63       1.0  0.42172  0.07429  0.44449  1.0000
  C   C64       1.0  0.41248  0.06832  0.46255  1.0000
  C   C65       1.0  0.39472  0.07790  0.46956  1.0000
  C   C66       1.0  0.38637  0.09379  0.45865  1.0000
  C   C67       1.0  0.39568  0.09993  0.44065  1.0000
  C   C68       1.0  0.41324  0.09004  0.43346  1.0000
  H   H80       1.0  0.41904  0.05618  0.47112  1.0000
  H   H81       1.0  0.38764  0.07318  0.48350  1.0000
  H   H82       1.0  0.38935  0.11238  0.43230  1.0000
  H   H83       1.0  0.42044  0.09486  0.41961  1.0000
  H   H84       1.0  0.32691  0.09876  0.44335  1.0000
  H   H85       1.0  0.06014  0.17436  0.52387  1.0000
  H   H86       1.0  0.38239  0.06321  0.37023  1.0000
  H   H87       1.0  0.25175  0.01264  0.43290  1.0000
  C   C69       1.0  0.27139  0.99999  0.50997  1.0000
  H   H88       1.0  0.14255  0.15744  0.62049  1.0000
  C   C70       1.0  0.37958  0.07200  0.37991  1.0000
  S   S31       1.0  0.01528  0.20020  0.57890  1.0000
  C   C71       1.0  0.33684  0.11737  0.65200  1.0000
  C   C72       1.0  0.33160  0.01787  0.58063  1.0000
  H   H89       1.0  0.33424  0.99066  0.59911  1.0000
  H   H90       1.0  0.24435  0.12283  0.50421  1.0000
  C   C73       1.0  0.39008  0.99115  0.41953  1.0000
  H   H91       1.0  0.26324  0.04736  0.42604  1.0000
  C   C74       1.0  0.27839  0.01589  0.50325  1.0000
  H   H92       1.0  0.39282  0.00625  0.38437  1.0000
  N   N2        1.0  0.37028  0.09927  0.64902  1.0000
  C   C75       1.0  0.15019  0.16151  0.57402  1.0000
  C   C76       1.0  0.28065  0.99167  0.65169  1.0000
  C   C77       1.0  0.12728  0.18720  0.58421  1.0000
  H   H93       1.0  0.32602  0.06932  0.44161  1.0000
  H   H94       1.0  0.07235  0.16874  0.55773  1.0000
  H   H95       1.0  0.36165  0.09987  0.62448  1.0000
  H   H96       1.0  0.23493  0.05103  0.47512  1.0000
  H   H97       1.0  0.20608  0.04897  0.49766  1.0000
  H   H98       1.0  0.24028  0.15033  0.52840  1.0000
  S   S32       1.0  0.08589  0.23006  0.54848  1.0000
  N   N3        1.0  0.39785  0.00761  0.41005  1.0000
  S   S33       1.0  0.31859  0.00708  0.43953  1.0000
  H   H99       1.0  0.30057  0.13337  0.55341  1.0000
  H   H100      1.0  0.28116  0.98735  0.50826  1.0000
  C   C78       1.0  0.39366  0.02120  0.42170  1.0000
  C   C79       1.0  0.40138  0.03698  0.41523  1.0000
  C   C80       1.0  0.38190  0.01936  0.43956  1.0000
  C   C81       1.0  0.39815  0.04970  0.42616  1.0000
  C   C82       1.0  0.37882  0.03215  0.45039  1.0000
  C   C83       1.0  0.38696  0.04724  0.44372  1.0000
  C   C84       1.0  0.21082  0.01174  0.48044  1.0000
  C   C85       1.0  0.31859  0.02057  0.55446  1.0000
  H   H101      1.0  0.47124  0.11915  0.39756  1.0000
  C   C86       1.0  0.28097  0.13025  0.53977  1.0000
  C   C87       1.0  0.04282  0.14833  0.54852  1.0000
  H   H102      1.0  0.06926  0.12697  0.56664  1.0000
  Fe  Fe15      1.0  0.48669  0.04616  0.37983  1.0000
  H   H103      1.0  0.41015  0.03957  0.40170  1.0000
  H   H104      1.0  0.37499  0.00811  0.44563  1.0000
  H   H105      1.0  0.40462  0.06138  0.42108  1.0000
  H   H106      1.0  0.37016  0.03031  0.46414  1.0000
  H   H107      1.0  0.38456  0.05705  0.45221  1.0000
  C   C88       1.0  0.27578  0.13243  0.52289  1.0000
  H   H108      1.0  0.48560  0.07615  0.62887  1.0000
  H   H109      1.0  0.32355  0.03443  0.62650  1.0000
  Fe  Fe16      1.0  0.06635  0.22790  0.57615  1.0000
  N   N4        1.0  0.26634  0.04492  0.59970  1.0000
  C   C89       1.0  0.24816  0.04767  0.61275  1.0000
  C   C90       1.0  0.28009  0.03147  0.60948  1.0000
  C   C91       1.0  0.27234  0.06255  0.59379  1.0000
  C   C92       1.0  0.26485  0.03793  0.58426  1.0000
  C   C93       1.0  0.25858  0.02153  0.58778  1.0000
  C   C94       1.0  0.27003  0.04664  0.56550  1.0000
  H   H110      1.0  0.03612  0.14034  0.57849  1.0000
  C   C95       1.0  0.26931  0.03907  0.55129  1.0000
  Fe  Fe17      1.0  0.46691  0.08499  0.36701  1.0000
  H   H111      1.0  0.24382  0.03461  0.61993  1.0000
  H   H112      1.0  0.24840  0.05428  0.62381  1.0000
  H   H113      1.0  0.23716  0.05643  0.60547  1.0000
  H   H114      1.0  0.27584  0.01827  0.61572  1.0000
  H   H115      1.0  0.28224  0.03646  0.62081  1.0000
  H   H116      1.0  0.29364  0.02840  0.59993  1.0000
  H   H117      1.0  0.27246  0.06797  0.60570  1.0000
  C   C96       1.0  0.17605  0.12754  0.58081  1.0000
  H   H118      1.0  0.27481  0.05925  0.56142  1.0000
  C   C97       1.0  0.26905  0.02890  0.45964  1.0000
  H   H119      1.0  0.27352  0.04579  0.53710  1.0000
  C   C98       1.0  0.05952  0.16364  0.56020  1.0000
  H   H120      1.0  0.39960  0.10048  0.39060  1.0000
  H   H121      1.0  0.22665  0.01985  0.52727  1.0000
  C   C99       1.0  0.24800  0.03407  0.51271  1.0000
  H   H122      1.0  0.32484  0.08697  0.40090  1.0000
  C   C100      1.0  0.39272  0.08163  0.37903  1.0000
  S   S34       1.0  0.23714  0.09140  0.64910  1.0000
  H   H123      1.0  0.18942  0.12484  0.60924  1.0000
  H   H124      1.0  0.15747  0.15517  0.56247  1.0000
  H   H125      1.0  0.31120  0.03800  0.45564  1.0000
  C   C101      1.0  0.26155  0.01324  0.44088  1.0000
  C   C102      1.0  0.01387  0.13984  0.56744  1.0000
  C   C103      1.0  0.24102  0.01820  0.52011  1.0000
  C   C104      1.0  0.37286  0.09470  0.40463  1.0000
  H   H126      1.0  0.08816  0.13629  0.55145  1.0000
  H   H127      1.0  0.02452  0.21050  0.62904  1.0000
  H   H128      1.0  0.27218  0.04520  0.49910  1.0000
  H   H129      1.0  0.35306  0.06621  0.39302  1.0000
  H   H130      1.0  0.07296  0.15243  0.51837  1.0000
  H   H131      1.0  0.16666  0.12465  0.57375  1.0000
  H   H132      1.0  0.23924  0.04627  0.43080  1.0000
  H   H133      1.0  0.18805  0.00259  0.63956  1.0000
  H   H134      1.0  0.28228  0.02997  0.44940  1.0000
  N   N5        1.0  0.34131  0.08683  0.41961  1.0000
  C   C105      1.0  0.32578  0.09538  0.41006  1.0000
  C   C106      1.0  0.33874  0.06845  0.43044  1.0000
  C   C107      1.0  0.34008  0.09823  0.43276  1.0000
  C   C108      1.0  0.35909  0.08510  0.40590  1.0000
  C   C109      1.0  0.36294  0.07374  0.39305  1.0000
  H   H135      1.0  0.25339  0.14304  0.49717  1.0000
  H   H136      1.0  0.45614  0.01263  0.63944  1.0000
  H   H137      1.0  0.39636  0.02782  0.38482  1.0000
  C   C110      1.0  0.35142  0.01803  0.55037  1.0000
  H   H138      1.0  0.28408  0.14338  0.49325  1.0000
  N   N6        1.0  0.06116  0.15185  0.54729  1.0000
  C   C111      1.0  0.07411  0.13425  0.55234  1.0000
  C   C112      1.0  0.17906  0.13782  0.60617  1.0000
  C   C113      1.0  0.28686  0.14109  0.50673  1.0000
  H   H139      1.0  0.01258  0.14958  0.52233  1.0000
  C   C114      1.0  0.46076  0.10483  0.32113  1.0000
  C   C115      1.0  0.03574  0.15026  0.53274  1.0000
  H   H140      1.0  0.34922  0.03315  0.54599  1.0000
  H   H141      1.0  0.26555  0.04075  0.46633  1.0000
  N   N7        1.0  0.25965  0.12566  0.52261  1.0000
  C   C116      1.0  0.47198  0.00709  0.34204  1.0000
  N   N8        1.0  0.16542  0.13555  0.59701  1.0000
  H   H142      1.0  0.16376  0.10828  0.61273  1.0000
  H   H143      1.0  0.31591  0.03575  0.55113  1.0000
  C   C117      1.0  0.17642  0.99268  0.61358  1.0000
  H   H144      1.0  0.13604  0.18417  0.55615  1.0000
  H   H145      1.0  0.25308  0.00160  0.57644  1.0000
  H   H146      1.0  0.41950  0.02296  0.34252  1.0000
  C   C118      1.0  0.03153  0.14254  0.56591  1.0000
  H   H147      1.0  0.24333  0.13259  0.54840  1.0000
  C   C119      1.0  0.15476  0.12217  0.60972  1.0000
  C   C120      1.0  0.15256  0.15332  0.59229  1.0000
  C   C121      1.0  0.41821  0.00126  0.40419  1.0000
  C   C122      1.0  0.13780  0.17825  0.57015  1.0000
  H   H148      1.0  0.14373  0.12084  0.60363  1.0000
  H   H149      1.0  0.04328  0.15446  0.51892  1.0000
  H   H150      1.0  0.42479  0.99578  0.41628  1.0000
  C   C123      1.0  0.26336  0.02280  0.55530  1.0000
  C   C124      1.0  0.14166  0.16288  0.60627  1.0000
  C   C125      1.0  0.19390  0.98959  0.56767  1.0000
  H   H151      1.0  0.37763  0.07933  0.63189  1.0000
  H   H152      1.0  0.23017  0.13065  0.53365  1.0000
  C   C126      1.0  0.32556  0.04254  0.59725  1.0000
  H   H153      1.0  0.32892  0.00150  0.62710  1.0000
  C   C127      1.0  0.32840  0.03671  0.58087  1.0000
  H   H154      1.0  0.01217  0.23687  0.64046  1.0000
  C   C128      1.0  0.38685  0.10675  0.63863  1.0000
  H   H155      1.0  0.27200  0.01613  0.47008  1.0000
  C   C129      1.0  0.32640  0.01008  0.45748  1.0000
  H   H156      1.0  0.11751  0.20006  0.58111  1.0000
  C   C130      1.0  0.12922  0.17955  0.60223  1.0000
  C   C131      1.0  0.33879  0.01546  0.48612  1.0000
  C   C132      1.0  0.25773  0.01421  0.57347  1.0000
  C   C133      1.0  0.19694  0.98878  0.64308  1.0000
  C   C134      1.0  0.45818  0.08019  0.64606  1.0000
  H   H157      1.0  0.46694  0.02523  0.36029  1.0000
  C   C135      1.0  0.43412  0.01846  0.34248  1.0000
  C   C136      1.0  0.33180  0.00527  0.59781  1.0000
  C   C137      1.0  0.00715  0.14234  0.55174  1.0000
  C   C138      1.0  0.32882  0.01130  0.61410  1.0000
  C   C139      1.0  0.26245  0.10579  0.53069  1.0000
  H   H158      1.0  0.26857  0.12093  0.49495  1.0000
  H   H159      1.0  0.12094  0.18659  0.61313  1.0000
  H   H160      1.0  0.25455  0.01411  0.60167  1.0000
  H   H161      1.0  0.32319  0.05698  0.59714  1.0000
  C   C140      1.0  0.32055  0.02695  0.46263  1.0000
  N   N9        1.0  0.33485  0.01206  0.56305  1.0000
  C   C141      1.0  0.46084  0.01995  0.35234  1.0000
  C   C142      1.0  0.22742  0.01265  0.46742  1.0000
  H   H162      1.0  0.30583  0.01646  0.56367  1.0000
  C   C143      1.0  0.21217  0.03870  0.48930  1.0000
  C   C144      1.0  0.16236  0.99064  0.60650  1.0000
  C   C145      1.0  0.25074  0.04578  0.43722  1.0000
  C   C146      1.0  0.47373  0.11186  0.32519  1.0000
  H   H163      1.0  0.27489  0.01459  0.43089  1.0000
  S   S35       1.0  0.47459  0.06011  0.35506  1.0000
  C   C147      1.0  0.29659  0.13576  0.54038  1.0000
  H   H164      1.0  0.32811  0.04711  0.56838  1.0000
  N   N10       1.0  0.99939  0.22923  0.62273  1.0000
  H   H165      1.0  0.39273  0.11194  0.64737  1.0000
  H   H166      1.0  0.36361  0.01309  0.55692  1.0000
  H   H167      1.0  0.20802  0.99070  0.64873  1.0000
  C   C148      1.0  0.24265  0.13528  0.53369  1.0000
  C   C149      1.0  0.32577  0.02987  0.61382  1.0000
  H   H168      1.0  0.35528  0.01268  0.53754  1.0000
  H   H169      1.0  0.20742  0.00626  0.60893  1.0000
  H   H170      1.0  0.27560  0.09814  0.52336  1.0000
  H   H171      1.0  0.49417  0.99845  0.37982  1.0000
  H   H172      1.0  0.34005  0.98813  0.55162  1.0000
  C   C150      1.0  0.30246  0.14661  0.50751  1.0000
  H   H173      1.0  0.02460  0.19708  0.54046  1.0000
  C   C151      1.0  0.30737  0.14383  0.52427  1.0000
  H   H174      1.0  0.01030  0.23307  0.59375  1.0000
  H   H175      1.0  0.25087  0.10002  0.53032  1.0000
  H   H176      1.0  0.39837  0.09609  0.63300  1.0000
  C   C152      1.0  0.44528  0.00538  0.33231  1.0000
  H   H177      1.0  0.31967  0.14779  0.52477  1.0000
  C   C153      1.0  0.36570  0.08998  0.63688  1.0000
  H   H178      1.0  0.38349  0.11815  0.62696  1.0000
  C   C154      1.0  0.21564  0.99210  0.61229  1.0000
  H   H179      1.0  0.26445  0.99981  0.45049  1.0000
  C   C155      1.0  0.01101  0.19434  0.54675  1.0000
  H   H180      1.0  0.46549  0.99649  0.40211  1.0000
  C   C156      1.0  0.46432  0.99996  0.33178  1.0000
  S   S36       1.0  0.24896  0.99549  0.64032  1.0000
  H   H181      1.0  0.43924  0.99978  0.32455  1.0000
  H   H182      1.0  0.20373  0.00094  0.48199  1.0000
  H   H183      1.0  0.32054  0.01625  0.54128  1.0000
  C   C157      1.0  0.34444  0.99843  0.48115  1.0000
  H   H184      1.0  0.35384  0.98747  0.48816  1.0000
  S   S37       1.0  0.28282  0.10737  0.65059  1.0000
  C   C158      1.0  0.01089  0.21042  0.62663  1.0000
  H   H185      1.0  0.42178  0.99047  0.39600  1.0000
  H   H186      1.0  0.24685  0.05799  0.44350  1.0000
  H   H187      1.0  0.48652  0.00283  0.34203  1.0000
  H   H188      1.0  0.17707  0.00645  0.61336  1.0000
  H   H189      1.0  0.23232  0.00226  0.45930  1.0000
  C   C159      1.0  0.48592  0.11323  0.39644  1.0000
  C   C160      1.0  0.00329  0.19511  0.56521  1.0000
  H   H190      1.0  0.49199  0.12345  0.36780  1.0000
  H   H191      1.0  0.37464  0.99461  0.42295  1.0000
  H   H192      1.0  0.22958  0.98769  0.50724  1.0000
  H   H193      1.0  0.35416  0.08287  0.64417  1.0000
  H   H194      1.0  0.33333  0.10967  0.64419  1.0000
  C   C161      1.0  0.26302  0.00244  0.65050  1.0000
  C   C162      1.0  0.46444  0.00142  0.64820  1.0000
  C   C163      1.0  0.49248  0.10303  0.41205  1.0000
  H   H195      1.0  0.39429  0.99600  0.32358  1.0000
  Fe  Fe18      1.0  0.26669  0.08682  0.65163  1.0000
  H   H196      1.0  0.22788  0.99347  0.61640  1.0000
  C   C164      1.0  0.17629  0.98943  0.54596  1.0000
  C   C165      1.0  0.00108  0.18982  0.53640  1.0000
  H   H197      1.0  0.23170  0.99390  0.55267  1.0000
  H   H198      1.0  0.48291  0.10102  0.42526  1.0000
  Fe  Fe19      1.0  0.41070  0.08964  0.69655  1.0000
  S   S38       1.0  0.40218  0.11715  0.70386  1.0000
  S   S39       1.0  0.42331  0.08550  0.66778  1.0000
  Fe  Fe20      1.0  0.39938  0.06972  0.73590  1.0000
  S   S40       1.0  0.38988  0.09532  0.74704  1.0000
  S   S41       1.0  0.39976  0.04120  0.75232  1.0000
  Fe  Fe21      1.0  0.37723  0.10697  0.72209  1.0000
  S   S42       1.0  0.34837  0.12408  0.72410  1.0000
  Fe  Fe22      1.0  0.41555  0.10304  0.72787  1.0000
  S   S43       1.0  0.43844  0.11180  0.73363  1.0000
  S   S44       1.0  0.38455  0.08071  0.71267  1.0000
  S   S45       1.0  0.42609  0.07627  0.71903  1.0000
  H   H199      1.0  0.38811  0.01754  0.78493  1.0000
  C   C166      1.0  0.49530  0.03016  0.69681  1.0000
  H   H200      1.0  0.48374  0.14229  0.95311  1.0000
  H   H201      1.0  0.43036  0.05142  0.76499  1.0000
  H   H202      1.0  0.48061  0.09233  0.67925  1.0000
  Fe  Fe23      1.0  0.29726  0.05451  0.66159  1.0000
  C   C167      1.0  0.37513  0.08525  0.66524  1.0000
  C   C168      1.0  0.46289  0.00451  0.75182  1.0000
  S   S46       1.0  0.39193  0.00349  0.69336  1.0000
  Fe  Fe24      1.0  0.29059  0.08871  0.67638  1.0000
  Fe  Fe25      1.0  0.43795  0.99357  0.84188  1.0000
  C   C169      1.0  0.48510  0.16861  0.88247  1.0000
  C   C170      1.0  0.32548  0.14120  0.66962  1.0000
  C   C171      1.0  0.27064  0.02632  0.66005  1.0000
  S   S47       1.0  0.46011  0.11017  0.85021  1.0000
  H   H203      1.0  0.43870  0.17326  0.92743  1.0000
  H   H204      1.0  0.33214  0.03264  0.68139  1.0000
  S   S48       1.0  0.47680  0.14059  0.81606  1.0000
  H   H205      1.0  0.45288  0.13458  0.96430  1.0000
  Fe  Fe26      1.0  0.47974  0.12871  0.84531  1.0000
  S   S49       1.0  0.47535  0.14989  0.86249  1.0000
  Fe  Fe27      1.0  0.45957  0.12021  0.82025  1.0000
  S   S50       1.0  0.43244  0.12750  0.81127  1.0000
  H   H206      1.0  0.37670  0.08027  0.82305  1.0000
  S   S51       1.0  0.48362  0.09857  0.81046  1.0000
  H   H207      1.0  0.43667  0.14678  0.92303  1.0000
  H   H208      1.0  0.44642  0.14527  0.71047  1.0000
  C   C172      1.0  0.47738  0.15536  0.94476  1.0000
  H   H209      1.0  0.39419  0.99895  0.83157  1.0000
  H   H210      1.0  0.35143  0.99746  0.71780  1.0000
  H   H211      1.0  0.44420  0.15818  0.96609  1.0000
  S   S52       1.0  0.42909  0.02313  0.84432  1.0000
  H   H212      1.0  0.45088  0.16042  0.78288  1.0000
  H   H213      1.0  0.28519  0.12495  0.72271  1.0000
  C   C173      1.0  0.36492  0.01446  0.81667  1.0000
  C   C174      1.0  0.46572  0.15337  0.73203  1.0000
  C   C175      1.0  0.35758  0.12510  0.66595  1.0000
  C   C176      1.0  0.43887  0.99852  0.67384  1.0000
  C   C177      1.0  0.33630  0.99909  0.71945  1.0000
  H   H214      1.0  0.44869  0.04119  0.80718  1.0000
  C   C178      1.0  0.47317  0.04946  0.84993  1.0000
  C   C179      1.0  0.45686  0.06030  0.84475  1.0000
  C   C180      1.0  0.44321  0.05205  0.84359  1.0000
  C   C181      1.0  0.44606  0.03297  0.84695  1.0000
  C   C182      1.0  0.46244  0.02214  0.85197  1.0000
  C   C183      1.0  0.47588  0.03037  0.85363  1.0000
  H   H215      1.0  0.45456  0.07504  0.84206  1.0000
  H   H216      1.0  0.43035  0.06049  0.84023  1.0000
  H   H217      1.0  0.46457  0.00744  0.85504  1.0000
  C   C184      1.0  0.39489  0.01544  0.79653  1.0000
  C   C185      1.0  0.35492  0.11405  0.65533  1.0000
  C   C186      1.0  0.29967  0.11913  0.71790  1.0000
  H   H218      1.0  0.46961  0.99573  0.76262  1.0000
  H   H219      1.0  0.30149  0.02896  0.70112  1.0000
  C   C187      1.0  0.42467  0.06200  0.77355  1.0000
  H   H220      1.0  0.38639  0.07362  0.66118  1.0000
  C   C188      1.0  0.44164  0.16157  0.75864  1.0000
  H   H221      1.0  0.38538  0.04719  0.83121  1.0000
  H   H222      1.0  0.48838  0.02194  0.85785  1.0000
  C   C189      1.0  0.48244  0.12880  0.92351  1.0000
  C   C190      1.0  0.48141  0.13099  0.71308  1.0000
  H   H223      1.0  0.46162  0.17654  0.91637  1.0000
  C   C191      1.0  0.48484  0.16217  0.70189  1.0000
  S   S53       1.0  0.49039  0.05949  0.85163  1.0000
  H   H224      1.0  0.31408  0.15106  0.67567  1.0000
  C   C192      1.0  0.44610  0.00999  0.72784  1.0000
  C   C193      1.0  0.33800  0.01927  0.68968  1.0000
  H   H225      1.0  0.43882  0.00605  0.71991  1.0000
  H   H226      1.0  0.46189  0.23629  0.96152  1.0000
  C   C194      1.0  0.44718  0.08506  0.66242  1.0000
  H   H227      1.0  0.49217  0.18380  0.89831  1.0000
  H   H228      1.0  0.48805  0.15960  0.93245  1.0000
  H   H229      1.0  0.41084  0.05954  0.78157  1.0000
  H   H230      1.0  0.49480  0.17512  0.83375  1.0000
  Fe  Fe28      1.0  0.48531  0.08977  0.84010  1.0000
  N   N11       1.0  0.43712  0.06121  0.78561  1.0000
  H   H231      1.0  0.34524  0.14622  0.68163  1.0000
  H   H232      1.0  0.41342  0.07118  0.80573  1.0000
  C   C195      1.0  0.48563  0.11616  0.91247  1.0000
  H   H233      1.0  0.46454  0.06619  0.79950  1.0000
  H   H234      1.0  0.37070  0.12296  0.66967  1.0000
  C   C196      1.0  0.33196  0.11672  0.71730  1.0000
  C   C197      1.0  0.33708  0.10384  0.70609  1.0000
  C   C198      1.0  0.32346  0.09892  0.70046  1.0000
  H   H235      1.0  0.35147  0.09806  0.70134  1.0000
  H   H236      1.0  0.32739  0.08903  0.69180  1.0000
  C   C199      1.0  0.39988  0.02888  0.73634  1.0000
  C   C200      1.0  0.40493  0.03633  0.71761  1.0000
  C   C201      1.0  0.40287  0.02817  0.70450  1.0000
  C   C202      1.0  0.39631  0.01211  0.71003  1.0000
  C   C203      1.0  0.39236  0.00384  0.72872  1.0000
  C   C204      1.0  0.39399  0.01235  0.74194  1.0000
  H   H237      1.0  0.41041  0.04851  0.71309  1.0000
  H   H238      1.0  0.40613  0.03451  0.69006  1.0000
  C   C205      1.0  0.44732  0.14849  0.95672  1.0000
  H   H239      1.0  0.39015  0.00642  0.75641  1.0000
  H   H240      1.0  0.43459  0.22716  0.93012  1.0000
  C   C206      1.0  0.45534  0.08953  0.67432  1.0000
  C   C207      1.0  0.47447  0.08876  0.67006  1.0000
  C   C208      1.0  0.45856  0.03404  0.73113  1.0000
  H   H241      1.0  0.49423  0.12939  0.92821  1.0000
  H   H242      1.0  0.44689  0.09396  0.68664  1.0000
  C   C209      1.0  0.47370  0.15351  0.76073  1.0000
  C   C210      1.0  0.43616  0.11563  0.75553  1.0000
  C   C211      1.0  0.45223  0.11331  0.76182  1.0000
  C   C212      1.0  0.45109  0.11667  0.77901  1.0000
  C   C213      1.0  0.43388  0.12274  0.78992  1.0000
  C   C214      1.0  0.41772  0.12531  0.78356  1.0000
  C   C215      1.0  0.41883  0.12158  0.76640  1.0000
  H   H243      1.0  0.46567  0.10898  0.75337  1.0000
  H   H244      1.0  0.46361  0.11527  0.78343  1.0000
  H   H245      1.0  0.40436  0.13017  0.79191  1.0000
  H   H246      1.0  0.40637  0.12366  0.76146  1.0000
  C   C216      1.0  0.44678  0.15876  0.74063  1.0000
  Fe  Fe29      1.0  0.48609  0.20135  0.95155  1.0000
  H   H247      1.0  0.42720  0.03848  0.80496  1.0000
  H   H248      1.0  0.48410  0.15098  0.76872  1.0000
  H   H249      1.0  0.35808  0.01859  0.80479  1.0000
  H   H250      1.0  0.35294  0.01860  0.68824  1.0000
  C   C217      1.0  0.36704  0.08099  0.79923  1.0000
  C   C218      1.0  0.28847  0.01562  0.66071  1.0000
  H   H251      1.0  0.49353  0.12692  0.71953  1.0000
  C   C219      1.0  0.42204  0.22101  0.97272  1.0000
  N   N12       1.0  0.38173  0.02194  0.81266  1.0000
  S   S54       1.0  0.43867  0.98982  0.81399  1.0000
  H   H252      1.0  0.36831  0.99919  0.82001  1.0000
  C   C220      1.0  0.31323  0.12442  0.72301  1.0000
  C   C221      1.0  0.46785  0.06753  0.78474  1.0000
  C   C222      1.0  0.46537  0.02249  0.74610  1.0000
  N   N13       1.0  0.32776  0.01704  0.70911  1.0000
  H   H253      1.0  0.38120  0.01794  0.84157  1.0000
  S   S55       1.0  0.30533  0.02414  0.66514  1.0000
  H   H254      1.0  0.42218  0.07572  0.76427  1.0000
  C   C223      1.0  0.32887  0.03208  0.71690  1.0000
  C   C224      1.0  0.31321  0.04587  0.72219  1.0000
  C   C225      1.0  0.34618  0.03360  0.71884  1.0000
  C   C226      1.0  0.31488  0.05987  0.72942  1.0000
  C   C227      1.0  0.34772  0.04762  0.72611  1.0000
  C   C228      1.0  0.33206  0.06070  0.73148  1.0000
  H   H255      1.0  0.47207  0.12159  0.72090  1.0000
  C   C229      1.0  0.37460  0.07219  0.81460  1.0000
  H   H256      1.0  0.47355  0.02716  0.75257  1.0000
  C   C230      1.0  0.45399  0.12612  0.90900  1.0000
  H   H257      1.0  0.44858  0.16885  0.70250  1.0000
  N   N14       1.0  0.46072  0.15391  0.93952  1.0000
  H   H258      1.0  0.44798  0.03224  0.78829  1.0000
  H   H259      1.0  0.30913  0.13441  0.73160  1.0000
  H   H260      1.0  0.42457  0.08839  0.78986  1.0000
  H   H261      1.0  0.29952  0.04638  0.72064  1.0000
  H   H262      1.0  0.35872  0.02403  0.71449  1.0000
  H   H263      1.0  0.30281  0.07047  0.73300  1.0000
  H   H264      1.0  0.36116  0.04846  0.72739  1.0000
  H   H265      1.0  0.33326  0.07179  0.73680  1.0000
  H   H266      1.0  0.44313  0.12532  0.90294  1.0000
  C   C231      1.0  0.45517  0.06569  0.77531  1.0000
  C   C232      1.0  0.37665  0.04218  0.80844  1.0000
  H   H267      1.0  0.36337  0.09581  0.79565  1.0000
  H   H268      1.0  0.43389  0.14830  0.95404  1.0000
  C   C233      1.0  0.45505  0.15893  0.76868  1.0000
  H   H269      1.0  0.48342  0.02608  0.81303  1.0000
  H   H270      1.0  0.38029  0.09091  0.67417  1.0000
  C   C234      1.0  0.37946  0.05307  0.81919  1.0000
  C   C235      1.0  0.45631  0.15438  0.70339  1.0000
  C   C236      1.0  0.45250  0.17240  0.92989  1.0000
  H   H271      1.0  0.47851  0.17680  0.70229  1.0000
  H   H272      1.0  0.42711  0.16509  0.76518  1.0000
  H   H273      1.0  0.49358  0.14651  0.73722  1.0000
  H   H274      1.0  0.41716  0.20872  0.97457  1.0000
  H   H275      1.0  0.41560  0.98836  0.66297  1.0000
  H   H276      1.0  0.48655  0.12827  0.69893  1.0000
  C   C237      1.0  0.39057  0.01417  0.82874  1.0000
  H   H277      1.0  0.33724  0.00837  0.68319  1.0000
  C   C238      1.0  0.45053  0.13856  0.92031  1.0000
  S   S56       1.0  0.28690  0.09970  0.70156  1.0000
  H   H278      1.0  0.30857  0.13259  0.65699  1.0000
  H   H279      1.0  0.35454  0.01921  0.82856  1.0000
  H   H280      1.0  0.46133  0.15201  0.68910  1.0000
  C   C239      1.0  0.44101  0.22061  0.96766  1.0000
  C   C240      1.0  0.48514  0.07124  0.77527  1.0000
  C   C241      1.0  0.47151  0.11497  0.90507  1.0000
  H   H281      1.0  0.26679  0.03985  0.66305  1.0000
  H   H282      1.0  0.47393  0.16572  0.95339  1.0000
  S   S57       1.0  0.31621  0.07171  0.66203  1.0000
  C   C242      1.0  0.36879  0.05163  0.79297  1.0000
  S   S58       1.0  0.48618  0.00057  0.69183  1.0000
  C   C243      1.0  0.34307  0.13852  0.67287  1.0000
  C   C244      1.0  0.32239  0.13071  0.65916  1.0000
  H   H283      1.0  0.44422  0.03670  0.71004  1.0000
  H   H284      1.0  0.36641  0.04430  0.78404  1.0000
  S   S59       1.0  0.45630  0.20014  0.96324  1.0000
  H   H285      1.0  0.35828  0.07760  0.77643  1.0000
  C   C245      1.0  0.44042  0.04247  0.79695  1.0000
  H   H286      1.0  0.40088  0.00055  0.79971  1.0000
  C   C246      1.0  0.36413  0.07072  0.78844  1.0000
  C   C247      1.0  0.44897  0.02781  0.72204  1.0000
  H   H287      1.0  0.40659  0.02258  0.79142  1.0000
  C   C248      1.0  0.49036  0.15311  0.87462  1.0000
  S   S60       1.0  0.27252  0.06961  0.67858  1.0000
  C   C249      1.0  0.47869  0.07050  0.74673  1.0000
  H   H288      1.0  0.46142  0.04759  0.72595  1.0000
  C   C250      1.0  0.46472  0.14049  0.92771  1.0000
  H   H289      1.0  0.43462  0.07390  0.80832  1.0000
  H   H290      1.0  0.40365  0.01871  0.82643  1.0000
  C   C251      1.0  0.42706  0.07418  0.79789  1.0000
  C   C252      1.0  0.30470  0.10649  0.70654  1.0000
  H   H291      1.0  0.45223  0.06702  0.74747  1.0000
  N   N15       1.0  0.47178  0.15033  0.71295  1.0000
  H   H292      1.0  0.45042  0.18297  0.93797  1.0000
  H   H293      1.0  0.47222  0.17826  0.88079  1.0000
  C   C253      1.0  0.46109  0.06749  0.75593  1.0000
  H   H294      1.0  0.30809  0.00483  0.70385  1.0000
  H   H295      1.0  0.36289  0.07970  0.67383  1.0000
  H   H296      1.0  0.43561  0.16040  0.73397  1.0000
  H   H297      1.0  0.47423  0.10562  0.89597  1.0000
  C   C254      1.0  0.47899  0.15083  0.74268  1.0000
  H   H298      1.0  0.48866  0.00234  0.81213  1.0000
  H   H299      1.0  0.48906  0.16085  0.68725  1.0000
  C   C255      1.0  0.49070  0.07238  0.75636  1.0000
  H   H300      1.0  0.48291  0.07167  0.73196  1.0000
  C   C256      1.0  0.45303  0.99771  0.74292  1.0000
  C   C257      1.0  0.30848  0.01638  0.70965  1.0000
  H   H301      1.0  0.49305  0.00904  0.78043  1.0000
  H   H302      1.0  0.44531  0.00450  0.68149  1.0000
  H   H303      1.0  0.30697  0.98977  0.65762  1.0000
  H   H304      1.0  0.48994  0.03329  0.77743  1.0000
  C   C258      1.0  0.29327  0.99813  0.65697  1.0000
  H   H305      1.0  0.30007  0.01459  0.72394  1.0000
  C   C259      1.0  0.49505  0.01165  0.70335  1.0000
  H   H306      1.0  0.42914  0.01004  0.66694  1.0000
  H   H307      1.0  0.48914  0.03790  0.68524  1.0000
  C   C260      1.0  0.25780  0.01961  0.65519  1.0000
  H   H308      1.0  0.49431  0.07318  0.78268  1.0000
  H   H309      1.0  0.24416  0.02802  0.65438  1.0000
  H   H310      1.0  0.32988  0.99728  0.73439  1.0000
  C   C261      1.0  0.48542  0.08392  0.65367  1.0000
  S   S61       1.0  0.49628  0.20931  0.92111  1.0000
  H   H311      1.0  0.49782  0.17490  0.81015  1.0000
  C   C262      1.0  0.49632  0.17174  0.89249  1.0000
  C   C263      1.0  0.44725  0.23657  0.96538  1.0000
  C   C264      1.0  0.49492  0.01385  0.81167  1.0000
  H   H312      1.0  0.38728  0.99138  0.73305  1.0000
  H   H313      1.0  0.47006  0.00776  0.65624  1.0000
  H   H314      1.0  0.43066  0.98927  0.68442  1.0000
  N   N16       1.0  0.45294  0.98854  0.66044  1.0000
  H   H315      1.0  0.33473  0.98746  0.71451  1.0000
  Fe  Fe30      1.0  0.47171  0.33657  0.10785  1.0000
  S   S62       1.0  0.48240  0.31872  0.04737  1.0000
  H   H316      1.0  0.40993  0.47075  0.06396  1.0000
  Fe  Fe31      1.0  0.44312  0.36253  0.08735  1.0000
  S   S63       1.0  0.46398  0.36659  0.06078  1.0000
  S   S64       1.0  0.41267  0.37548  0.09133  1.0000
  Fe  Fe32      1.0  0.47478  0.33632  0.06825  1.0000
  C   C265      1.0  0.42044  0.43126  0.09292  1.0000
  H   H317      1.0  0.48931  0.26709  0.10470  1.0000
  H   H318      1.0  0.47705  0.30880  0.01591  1.0000
  S   S65       1.0  0.45237  0.33195  0.09343  1.0000
  S   S66       1.0  0.46046  0.36678  0.10435  1.0000
  Fe  Fe33      1.0  0.36303  0.47009  0.05321  1.0000
  H   H319      1.0  0.46500  0.40739  0.09075  1.0000
  S   S67       1.0  0.38824  0.45172  0.03990  1.0000
  N   N17       1.0  0.45871  0.26837  0.06633  1.0000
  C   C266      1.0  0.45319  0.41886  0.09144  1.0000
  H   H320      1.0  0.48467  0.27339  0.06719  1.0000
  S   S68       1.0  0.41091  0.33295  0.01615  1.0000
  S   S69       1.0  0.33623  0.47653  0.04445  1.0000
  H   H321      1.0  0.49560  0.34981  0.00319  1.0000
  H   H322      1.0  0.39598  0.37165  0.00945  1.0000
  H   H323      1.0  0.39801  0.40163  0.02801  1.0000
  C   C267      1.0  0.44039  0.45087  0.09216  1.0000
  C   C268      1.0  0.39501  0.43066  0.05432  1.0000
  C   C269      1.0  0.41277  0.41998  0.04959  1.0000
  C   C270      1.0  0.41843  0.40312  0.06103  1.0000
  C   C271      1.0  0.40624  0.39679  0.07710  1.0000
  C   C272      1.0  0.38845  0.40748  0.08179  1.0000
  C   C273      1.0  0.38290  0.42448  0.07050  1.0000
  H   H324      1.0  0.42222  0.42478  0.03712  1.0000
  H   H325      1.0  0.43213  0.39496  0.05728  1.0000
  H   H326      1.0  0.37897  0.40260  0.09420  1.0000
  H   H327      1.0  0.36912  0.43259  0.07416  1.0000
  C   C274      1.0  0.45954  0.25131  0.08078  1.0000
  H   H328      1.0  0.37883  0.47143  0.11080  1.0000
  C   C275      1.0  0.22023  0.46901  0.01723  1.0000
  H   H329      1.0  0.32085  0.44100  0.04597  1.0000
  H   H330      1.0  0.38714  0.48015  0.07595  1.0000
  Fe  Fe34      1.0  0.32262  0.47792  0.07362  1.0000
  S   S70       1.0  0.47618  0.31857  0.13480  1.0000
  C   C276      1.0  0.42227  0.44891  0.09302  1.0000
  H   H331      1.0  0.21726  0.46912  0.07621  1.0000
  H   H332      1.0  0.36659  0.46689  0.00969  1.0000
  C   C277      1.0  0.34321  0.42064  0.05584  1.0000
  C   C278      1.0  0.22147  0.48247  0.07241  1.0000
  H   H333      1.0  0.41515  0.47975  0.10736  1.0000
  H   H334      1.0  0.32739  0.43088  0.01659  1.0000
  C   C279      1.0  0.47744  0.29585  0.13438  1.0000
  H   H335      1.0  0.24889  0.45716  0.05881  1.0000
  C   C280      1.0  0.48489  0.27156  0.11757  1.0000
  C   C281      1.0  0.43566  0.41649  0.09228  1.0000
  H   H336      1.0  0.48020  0.26023  0.99560  1.0000
  H   H337      1.0  0.40723  0.42874  0.09318  1.0000
  H   H338      1.0  0.34003  0.42493  0.06882  1.0000
  H   H339      1.0  0.00331  0.47868  0.26974  1.0000
  C   C282      1.0  0.33236  0.42973  0.04296  1.0000
  H   H340      1.0  0.37186  0.36797  0.05843  1.0000
  C   C283      1.0  0.33613  0.42407  0.02643  1.0000
  H   H341      1.0  0.38552  0.35569  0.04098  1.0000
  H   H342      1.0  0.44944  0.29727  0.06611  1.0000
  C   C284      1.0  0.05518  0.47927  0.29657  1.0000
  H   H343      1.0  0.35277  0.40556  0.00971  1.0000
  C   C285      1.0  0.48093  0.25906  0.13413  1.0000
  H   H344      1.0  0.44894  0.31443  0.00349  1.0000
  C   C286      1.0  0.44900  0.28384  0.07572  1.0000
  C   C287      1.0  0.42748  0.28016  0.03186  1.0000
  H   H345      1.0  0.06934  0.47855  0.29703  1.0000
  H   H346      1.0  0.46875  0.23917  0.07557  1.0000
  H   H347      1.0  0.41654  0.29121  0.02719  1.0000
  H   H348      1.0  0.39558  0.47342  0.98836  1.0000
  C   C288      1.0  0.44629  0.33370  0.04569  1.0000
  C   C289      1.0  0.23025  0.47017  0.02938  1.0000
  C   C290      1.0  0.46311  0.32358  0.03754  1.0000
  H   H349      1.0  0.40802  0.37748  0.03086  1.0000
  H   H350      1.0  0.24327  0.46043  0.02986  1.0000
  C   C291      1.0  0.44973  0.26726  0.05206  1.0000
  H   H351      1.0  0.47782  0.28261  0.04565  1.0000
  C   C292      1.0  0.45555  0.43600  0.09137  1.0000
  H   H352      1.0  0.44554  0.24827  0.08675  1.0000
  N   N18       1.0  0.37859  0.38493  0.03145  1.0000
  C   C293      1.0  0.01537  0.48160  0.25858  1.0000
  H   H353      1.0  0.39440  0.38653  0.05013  1.0000
  C   C294      1.0  0.39893  0.46808  0.07649  1.0000
  H   H354      1.0  0.34697  0.37995  0.99423  1.0000
  C   C295      1.0  0.39097  0.45968  0.10956  1.0000
  H   H355      1.0  0.46957  0.28777  0.16382  1.0000
  H   H356      1.0  0.37223  0.37813  0.00883  1.0000
  H   H357      1.0  0.48660  0.25848  0.05223  1.0000
  C   C296      1.0  0.38331  0.38256  0.01213  1.0000
  H   H358      1.0  0.39383  0.45641  0.07546  1.0000
  H   H359      1.0  0.36576  0.39915  0.06271  1.0000
  H   H360      1.0  0.44326  0.46374  0.09201  1.0000
  C   C297      1.0  0.47517  0.26497  0.15076  1.0000
  H   H361      1.0  0.47209  0.25535  0.16358  1.0000
  C   C298      1.0  0.43382  0.26491  0.02383  1.0000
  H   H362      1.0  0.26927  0.45243  0.11362  1.0000
  H   H363      1.0  0.26106  0.47270  0.04091  1.0000
  S   S71       1.0  0.34956  0.46839  0.08305  1.0000
  C   C299      1.0  0.47780  0.27075  0.05750  1.0000
  H   H364      1.0  0.42983  0.29376  0.05111  1.0000
  C   C300      1.0  0.36268  0.40031  0.03515  1.0000
  C   C301      1.0  0.02414  0.47635  0.31251  1.0000
  C   C302      1.0  0.47374  0.28329  0.15091  1.0000
  H   H365      1.0  0.39597  0.45567  0.12260  1.0000
  C   C303      1.0  0.35802  0.40602  0.05212  1.0000
  H   H366      1.0  0.45565  0.28391  0.08684  1.0000
  C   C304      1.0  0.46408  0.31664  0.02227  1.0000
  H   H367      1.0  0.44532  0.33906  0.05750  1.0000
  C   C305      1.0  0.35096  0.40950  0.02256  1.0000
  H   H368      1.0  0.02545  0.46835  0.25772  1.0000
  C   C306      1.0  0.35874  0.47887  0.00122  1.0000
  C   C307      1.0  0.48289  0.29003  0.11768  1.0000
  N   N19       1.0  0.23343  0.48511  0.05370  1.0000
  H   H369      1.0  0.46928  0.43770  0.09064  1.0000
  H   H370      1.0  0.43431  0.28319  0.08213  1.0000
  C   C308      1.0  0.43039  0.33651  0.03898  1.0000
  C   C309      1.0  0.37413  0.36773  0.04364  1.0000
  C   C310      1.0  0.43526  0.28141  0.04575  1.0000
  C   C311      1.0  0.22355  0.48368  0.04032  1.0000
  N   N20       1.0  0.40592  0.46436  0.09349  1.0000
  H   H371      1.0  0.22556  0.45854  0.00910  1.0000
  H   H372      1.0  0.43385  0.40311  0.09235  1.0000
  C   C312      1.0  0.27723  0.47588  0.09400  1.0000
  H   H373      1.0  0.38540  0.44828  0.10859  1.0000
  S   S72       1.0  0.29948  0.46312  0.08642  1.0000
  H   H374      1.0  0.23748  0.46888  0.12481  1.0000
  H   H375      1.0  0.42761  0.26399  0.01314  1.0000
  C   C313      1.0  0.44819  0.31984  0.01523  1.0000
  H   H376      1.0  0.36138  0.36521  0.04149  1.0000
  C   C314      1.0  0.25114  0.47136  0.05443  1.0000
  C   C315      1.0  0.45617  0.25213  0.04323  1.0000
  C   C316      1.0  0.26484  0.46677  0.10770  1.0000
  C   C317      1.0  0.43129  0.32963  0.02374  1.0000
  H   H377      1.0  0.41737  0.34390  0.04576  1.0000
  H   H378      1.0  0.46518  0.25226  0.09227  1.0000
  C   C318      1.0  0.44818  0.25094  0.02947  1.0000
  Fe  Fe35      1.0  0.48212  0.36834  0.07826  1.0000
  C   C319      1.0  0.39541  0.38783  0.03525  1.0000
  C   C320      1.0  0.24685  0.47610  0.11406  1.0000
  H   H379      1.0  0.46754  0.24113  0.04683  1.0000
  C   C321      1.0  0.04257  0.47457  0.31284  1.0000
  H   H380      1.0  0.35962  0.44766  0.99631  1.0000
  H   H381      1.0  0.19583  0.48049  0.00588  1.0000
  C   C322      1.0  0.01822  0.48296  0.29592  1.0000
  C   C323      1.0  0.40990  0.48158  0.09478  1.0000
  H   H382      1.0  0.34464  0.47674  0.00256  1.0000
  H   H383      1.0  0.00365  0.48461  0.29649  1.0000
  C   C324      1.0  0.20352  0.48136  0.01537  1.0000
  H   H384      1.0  0.45313  0.23910  0.02317  1.0000
  H   H385      1.0  0.38602  0.39534  0.00221  1.0000
  H   H386      1.0  0.49510  0.23795  0.99593  1.0000
  H   H387      1.0  0.25829  0.47302  0.06448  1.0000
  H   H388      1.0  0.48592  0.29967  0.10488  1.0000
  Fe  Fe36      1.0  0.41541  0.32539  0.98902  1.0000
  S   S73       1.0  0.49506  0.33841  0.08322  1.0000
  H   H389      1.0  0.48749  0.37984  0.01194  1.0000
  H   H390      1.0  0.22866  0.48271  0.08298  1.0000
  C   C325      1.0  0.49200  0.25188  0.98728  1.0000
  H   H391      1.0  0.49786  0.37839  0.10750  1.0000
  C   C326      1.0  0.04942  0.48590  0.27988  1.0000
  H   H392      1.0  0.04996  0.48652  0.24348  1.0000
  H   H393      1.0  0.01000  0.48660  0.24570  1.0000
  H   H394      1.0  0.42002  0.48674  0.08243  1.0000
  H   H395      1.0  0.07978  0.34749  0.56129  1.0000
  C   C327      1.0  0.03405  0.41466  0.62441  1.0000
  C   C328      1.0  0.04200  0.45267  0.45839  1.0000
  H   H396      1.0  1.00000  0.36092  0.51703  1.0000
  H   H397      1.0  0.03112  0.46551  0.45786  1.0000
  C   C329      1.0  0.11835  0.38128  0.57489  1.0000
  S   S74       1.0  0.05342  0.26145  0.51370  1.0000
  H   H398      1.0  0.08041  0.39152  0.37732  1.0000
  S   S75       1.0  0.04079  0.40109  0.46354  1.0000
  H   H399      1.0  0.11979  0.36551  0.51404  1.0000
  Fe  Fe37      1.0  0.06668  0.35672  0.49181  1.0000
  S   S76       1.0  0.07688  0.38272  0.48332  1.0000
  S   S77       1.0  0.08031  0.33227  0.51043  1.0000
  Fe  Fe38      1.0  0.04722  0.39653  0.49120  1.0000
  S   S78       1.0  0.03724  0.41844  0.50751  1.0000
  Fe  Fe39      1.0  0.06992  0.38490  0.45638  1.0000
  S   S79       1.0  0.09218  0.39094  0.43150  1.0000
  S   S80       1.0  0.03760  0.37046  0.50235  1.0000
  S   S81       1.0  0.06205  0.35764  0.46414  1.0000
  Fe  Fe40      1.0  0.06190  0.36290  0.62550  1.0000
  S   S82       1.0  0.03104  0.36592  0.63411  1.0000
  H   H400      1.0  0.07483  0.43078  0.45115  1.0000
  Fe  Fe41      1.0  0.06675  0.33304  0.60498  1.0000
  S   S83       1.0  0.03650  0.33382  0.61158  1.0000
  H   H401      1.0  0.11452  0.44028  0.38404  1.0000
  Fe  Fe42      1.0  0.03260  0.36411  0.60527  1.0000
  S   S84       1.0  0.01048  0.38182  0.59045  1.0000
  Fe  Fe43      1.0  0.03757  0.33536  0.63969  1.0000
  H   H402      1.0  0.00938  0.43191  0.53675  1.0000
  S   S85       1.0  0.06287  0.36357  0.59597  1.0000
  C   C330      1.0  0.00229  0.30692  0.53557  1.0000
  C   C331      1.0  0.03079  0.40846  0.53082  1.0000
  C   C332      1.0  0.01624  0.41815  0.54222  1.0000
  C   C333      1.0  0.01007  0.40984  0.56055  1.0000
  C   C334      1.0  0.01889  0.39207  0.56770  1.0000
  C   C335      1.0  0.03370  0.38246  0.55643  1.0000
  C   C336      1.0  0.03947  0.39057  0.53788  1.0000
  C   C337      1.0  0.10896  0.36422  0.55148  1.0000
  H   H403      1.0  0.12802  0.33551  0.53588  1.0000
  H   H404      1.0  0.04035  0.36864  0.56194  1.0000
  H   H405      1.0  0.05067  0.38304  0.52904  1.0000
  C   C338      1.0  0.11286  0.33641  0.54068  1.0000
  Fe  Fe44      1.0  0.03351  0.37352  0.47400  1.0000
  C   C339      1.0  0.00922  0.23933  0.60546  1.0000
  C   C340      1.0  0.00720  0.40895  0.64835  1.0000
  H   H406      1.0  0.04846  0.39620  0.42269  1.0000
  H   H407      1.0  0.02772  0.40103  0.41416  1.0000
  H   H408      1.0  0.10347  0.34374  0.57668  1.0000
  C   C341      1.0  0.06971  0.28599  0.60798  1.0000
  C   C342      1.0  0.06551  0.26876  0.61122  1.0000
  H   H409      1.0  0.06502  0.29375  0.61874  1.0000
  H   H410      1.0  0.05758  0.26332  0.62448  1.0000
  C   C343      1.0  0.06165  0.28072  0.51257  1.0000
  C   C344      1.0  0.05877  0.29598  0.49837  1.0000
  C   C345      1.0  0.06495  0.31164  0.49740  1.0000
  C   C346      1.0  0.07408  0.31210  0.51057  1.0000
  C   C347      1.0  0.07734  0.29667  0.52455  1.0000
  C   C348      1.0  0.07094  0.28106  0.52569  1.0000
  H   H411      1.0  0.05161  0.29578  0.48819  1.0000
  H   H412      1.0  0.06240  0.32337  0.48656  1.0000
  H   H413      1.0  0.08456  0.29687  0.53467  1.0000
  H   H414      1.0  0.07318  0.26935  0.53672  1.0000
  H   H415      1.0  0.00187  0.25380  0.60203  1.0000
  H   H416      1.0  0.10843  0.32976  0.53196  1.0000
  H   H417      1.0  0.07456  0.37017  0.54802  1.0000
  H   H418      1.0  0.02128  0.37079  0.43668  1.0000
  N   N21       1.0  0.05294  0.39424  0.39443  1.0000
  C   C349      1.0  0.02536  0.41159  0.64295  1.0000
  C   C350      1.0  0.08619  0.28282  0.57710  1.0000
  C   C351      1.0  0.04388  0.42237  0.37086  1.0000
  C   C352      1.0  0.11264  0.36481  0.58193  1.0000
  S   S86       1.0  0.08555  0.31452  0.58644  1.0000
  H   H419      1.0  0.09083  0.45127  0.43246  1.0000
  C   C353      1.0  0.04231  0.40261  0.41037  1.0000
  N   N22       1.0  0.03028  0.31208  0.56686  1.0000
  H   H420      1.0  0.09640  0.37931  0.51857  1.0000
  H   H421      1.0  0.04254  0.29059  0.58701  1.0000
  H   H422      1.0  0.04725  0.28532  0.56468  1.0000
  H   H423      1.0  0.04219  0.33598  0.55834  1.0000
  H   H424      1.0  0.06162  0.36703  0.38892  1.0000
  H   H425      1.0  0.11048  0.32774  0.55471  1.0000
  C   C354      1.0  0.11966  0.38929  0.55629  1.0000
  C   C355      1.0  0.08512  0.44767  0.39444  1.0000
  C   C356      1.0  0.06973  0.44198  0.40691  1.0000
  C   C357      1.0  0.07190  0.42485  0.41892  1.0000
  C   C358      1.0  0.08934  0.41309  0.41797  1.0000
  C   C359      1.0  0.10466  0.41862  0.40530  1.0000
  C   C360      1.0  0.10260  0.43598  0.39371  1.0000
  H   H426      1.0  0.05614  0.45069  0.40725  1.0000
  H   H427      1.0  0.06001  0.42063  0.42859  1.0000
  H   H428      1.0  0.11817  0.40947  0.40445  1.0000
  N   N23       1.0  0.05931  0.45508  0.46147  1.0000
  C   C361      1.0  0.07240  0.43696  0.46324  1.0000
  H   H429      1.0  0.02280  0.28018  0.49176  1.0000
  H   H430      1.0  0.10061  0.35798  0.51210  1.0000
  H   H431      1.0  0.03920  0.37160  0.40431  1.0000
  H   H432      1.0  0.11600  0.38811  0.53051  1.0000
  C   C362      1.0  0.02946  0.42188  0.34690  1.0000
  C   C363      1.0  0.04452  0.40348  0.37832  1.0000
  H   H433      1.0  0.02872  0.45555  0.64853  1.0000
  C   C364      1.0  0.05522  0.46087  0.47925  1.0000
  H   H434      1.0  0.01918  0.31792  0.59395  1.0000
  C   C365      1.0  0.11499  0.38100  0.54468  1.0000
  S   S87       1.0  0.07634  0.38238  0.63027  1.0000
  C   C366      1.0  0.03693  0.39424  0.36954  1.0000
  H   H435      1.0  0.01452  0.25645  0.51804  1.0000
  H   H436      1.0  0.00374  0.42765  0.48860  1.0000
  C   C367      1.0  0.10815  0.35632  0.57043  1.0000
  H   H437      1.0  0.05987  0.36788  0.41226  1.0000
  S   S88       1.0  0.06843  0.33214  0.63375  1.0000
  H   H438      1.0  0.04832  0.41608  0.62032  1.0000
  C   C368      1.0  0.00346  0.26766  0.51409  1.0000
  S   S89       1.0  0.03465  0.48481  0.41167  1.0000
  H   H439      1.0  0.02339  0.39633  0.34777  1.0000
  Fe  Fe45      1.0  0.05283  0.48335  0.38374  1.0000
  H   H440      1.0  0.07965  0.38858  0.40130  1.0000
  C   C369      1.0  0.02339  0.31400  0.55019  1.0000
  H   H441      1.0  0.04896  0.43040  0.37708  1.0000
  H   H442      1.0  0.12407  0.40215  0.55090  1.0000
  H   H443      1.0  0.00331  0.29676  0.56373  1.0000
  C   C370      1.0  0.01512  0.32052  0.58058  1.0000
  H   H444      1.0  0.08607  0.25820  0.56935  1.0000
  H   H445      1.0  0.06747  0.46457  0.48117  1.0000
  C   C371      1.0  0.08257  0.35602  0.54725  1.0000
  C   C372      1.0  0.00926  0.30506  0.55103  1.0000
  C   C373      1.0  0.03651  0.29243  0.57493  1.0000
  C   C374      1.0  0.04606  0.32096  0.56344  1.0000
  C   C375      1.0  0.05339  0.37432  0.40012  1.0000
  N   N24       1.0  0.10258  0.35569  0.54002  1.0000
  H   H446      1.0  0.03631  0.38003  0.37448  1.0000
  H   H447      1.0  0.05095  0.31901  0.57626  1.0000
  H   H448      1.0  0.05814  0.31507  0.55341  1.0000
  H   H449      1.0  0.04694  0.47035  0.32582  1.0000
  C   C376      1.0  0.07234  0.39642  0.39006  1.0000
  H   H450      1.0  0.07326  0.41088  0.38800  1.0000
  C   C377      1.0  0.07128  0.25873  0.59727  1.0000
  C   C378      1.0  0.08151  0.26586  0.58015  1.0000
  H   H451      1.0  0.09436  0.28814  0.56395  1.0000
  S   S90       1.0  0.04087  0.23913  0.56464  1.0000
  H   H452      1.0  0.04175  0.41752  0.40759  1.0000
  H   H453      1.0  0.06691  0.42687  0.47532  1.0000
  C   C379      1.0  0.08289  0.46505  0.43265  1.0000
  H   H454      1.0  0.03122  0.41798  0.59673  1.0000
  H   H455      1.0  0.12158  0.38789  0.58397  1.0000
  H   H456      1.0  0.11130  0.35874  0.59650  1.0000
  C   C380      1.0  0.08021  0.29295  0.59095  1.0000
  H   H457      1.0  0.08596  0.43796  0.46498  1.0000
  C   C381      1.0  0.10502  0.36515  0.52035  1.0000
  H   H458      1.0  0.04069  0.33226  0.53089  1.0000
  H   H459      1.0  0.07680  0.35063  0.53858  1.0000
  C   C382      1.0  0.02956  0.40341  0.35403  1.0000
  C   C383      1.0  0.01300  0.28570  0.63328  1.0000
  C   C384      1.0  0.02444  0.41566  0.61116  1.0000
  H   H460      1.0  0.05137  0.44987  0.49118  1.0000
  S   S91       1.0  0.03452  0.47182  0.37409  1.0000
  H   H461      1.0  0.02502  0.28507  0.58018  1.0000
  H   H462      1.0  0.04449  0.44844  0.44508  1.0000
  H   H463      1.0  0.02791  0.33519  0.50454  1.0000
  C   C385      1.0  0.06657  0.46922  0.44622  1.0000
  S   S92       1.0  0.08273  0.46937  0.37991  1.0000
  C   C386      1.0  0.02989  0.32505  0.53298  1.0000
  H   H464      1.0  0.03607  0.44205  0.46952  1.0000
  H   H465      1.0  0.04332  0.47272  0.48046  1.0000
  C   C387      1.0  0.03644  0.43137  0.35540  1.0000
  H   H466      1.0  0.99939  0.41417  0.60562  1.0000
  C   C388      1.0  0.07455  0.45065  0.64419  1.0000
  H   H467      1.0  0.03562  0.44590  0.35030  1.0000
  C   C389      1.0  0.02271  0.32685  0.51764  1.0000
  H   H468      1.0  0.03214  0.28480  0.64952  1.0000
  H   H469      1.0  0.01421  0.47340  0.32532  1.0000
  C   C390      1.0  0.00886  0.31797  0.51898  1.0000
  C   C391      1.0  0.00627  0.41315  0.61642  1.0000
  H   H470      1.0  0.02321  0.42905  0.33523  1.0000
  H   H471      1.0  0.00382  0.37872  0.53731  1.0000
  S   S93       1.0  0.00642  0.36663  0.47633  1.0000
  H   H472      1.0  0.01088  0.33556  0.57573  1.0000
  C   C392      1.0  0.01956  0.29233  0.64490  1.0000
  H   H473      1.0  0.08743  0.44092  0.64084  1.0000
  H   H474      1.0  0.08310  0.40920  0.64524  1.0000
  Fe  Fe46      1.0  0.06006  0.23873  0.53729  1.0000
  S   S94       1.0  0.00295  0.45074  0.41652  1.0000
  C   C393      1.0  0.08917  0.47875  0.41830  1.0000
  Fe  Fe47      1.0  0.01539  0.47502  0.40122  1.0000
  H   H475      1.0  0.08768  0.46907  0.64976  1.0000
  H   H476      1.0  0.02046  0.27297  0.62912  1.0000
  C   C394      1.0  0.00646  0.37231  0.43936  1.0000
  C   C395      1.0  0.99822  0.23796  0.63805  1.0000
  H   H477      1.0  0.00674  0.24239  0.54662  1.0000
  H   H478      1.0  0.00643  0.48271  0.64518  1.0000
  H   H479      1.0  0.00553  0.37405  0.41114  1.0000
  C   C396      1.0  0.01029  0.30902  0.64994  1.0000
  C   C397      1.0  0.04114  0.45939  0.64870  1.0000
  C   C398      1.0  0.07468  0.46655  0.64914  1.0000
  H   H480      1.0  0.00058  0.40607  0.51763  1.0000
  C   C399      1.0  0.00836  0.28111  0.49873  1.0000
  H   H481      1.0  0.00267  0.31480  0.58367  1.0000
  C   C400      1.0  0.05784  0.44716  0.64383  1.0000
  H   H482      1.0  0.00305  0.31993  0.50715  1.0000
  H   H483      1.0  0.02348  0.23941  0.60625  1.0000
  H   H484      1.0  0.10132  0.47521  0.40774  1.0000
  H   H485      1.0  0.05777  0.43473  0.64005  1.0000
  H   H486      1.0  0.99851  0.41723  0.56921  1.0000
  S   S95       1.0  0.06537  0.23746  0.60146  1.0000
  H   H487      1.0  0.99866  0.30603  0.48043  1.0000
  Fe  Fe48      1.0  0.40159  0.33978  0.95369  1.0000
  C   C401      1.0  0.44852  0.24960  0.92039  1.0000
  S   S96       1.0  0.38530  0.36355  0.93671  1.0000
  H   H488      1.0  0.33006  0.42256  0.92208  1.0000
  H   H489      1.0  0.01306  0.35027  0.67766  1.0000
  C   C402      1.0  0.06747  0.37070  0.66793  1.0000
  H   H490      1.0  0.45962  0.27947  0.93859  1.0000
  H   H491      1.0  0.45395  0.30031  0.89076  1.0000
  H   H492      1.0  0.30978  0.43735  0.91472  1.0000
  S   S97       1.0  0.06418  0.39049  0.71249  1.0000
  H   H493      1.0  0.09744  0.41214  0.80856  1.0000
  Fe  Fe49      1.0  0.06340  0.43619  0.74891  1.0000
  S   S98       1.0  0.05562  0.46420  0.73208  1.0000
  S   S99       1.0  0.06029  0.43463  0.77910  1.0000
  Fe  Fe50      1.0  0.06409  0.41759  0.71801  1.0000
  S   S100      1.0  0.05599  0.44435  0.69905  1.0000
  Fe  Fe51      1.0  0.07640  0.45305  0.70893  1.0000
  Fe  Fe52      1.0  0.03612  0.45264  0.72410  1.0000
  S   S101      1.0  0.00646  0.46725  0.72626  1.0000
  S   S102      1.0  0.08616  0.42561  0.72643  1.0000
  S   S103      1.0  0.04246  0.42533  0.74229  1.0000
  C   C403      1.0  0.48926  0.32866  0.97234  1.0000
  H   H494      1.0  0.18441  0.44205  0.86249  1.0000
  H   H495      1.0  0.43909  0.26542  0.96578  1.0000
  H   H496      1.0  0.25273  0.45677  0.95269  1.0000
  H   H497      1.0  0.06486  0.35872  0.66538  1.0000
  H   H498      1.0  0.04867  0.42730  0.87903  1.0000
  Fe  Fe53      1.0  0.40947  0.29894  0.97004  1.0000
  H   H499      1.0  0.49083  0.28707  0.97395  1.0000
  H   H500      1.0  0.48408  0.33206  0.98577  1.0000
  C   C404      1.0  0.10199  0.42772  0.82542  1.0000
  Fe  Fe54      1.0  0.32358  0.48206  0.94833  1.0000
  H   H501      1.0  0.11305  0.46104  0.77386  1.0000
  H   H502      1.0  0.37981  0.42713  0.94707  1.0000
  H   H503      1.0  0.31041  0.38878  0.96596  1.0000
  H   H504      1.0  0.01854  0.42727  0.84898  1.0000
  Fe  Fe55      1.0  0.29219  0.46907  0.94320  1.0000
  H   H505      1.0  0.13242  0.47710  0.72419  1.0000
  C   C405      1.0  0.07366  0.38407  0.65317  1.0000
  C   C406      1.0  0.00898  0.35961  0.68691  1.0000
  N   N25       1.0  0.04409  0.43195  0.85164  1.0000
  H   H506      1.0  0.21832  0.46348  0.95950  1.0000
  C   C407      1.0  0.38324  0.45428  0.94463  1.0000
  H   H507      1.0  0.38461  0.48091  0.94558  1.0000
  H   H508      1.0  0.47268  0.30211  0.89950  1.0000
  H   H509      1.0  0.13325  0.48541  0.69303  1.0000
  C   C408      1.0  0.07156  0.44871  0.78446  1.0000
  C   C409      1.0  0.06294  0.45721  0.79940  1.0000
  C   C410      1.0  0.07237  0.46702  0.80520  1.0000
  C   C411      1.0  0.09046  0.46841  0.79597  1.0000
  C   C412      1.0  0.09896  0.46019  0.78080  1.0000
  C   C413      1.0  0.08945  0.45050  0.77491  1.0000
  H   H510      1.0  0.04902  0.45607  0.80656  1.0000
  H   H511      1.0  0.06577  0.47330  0.81693  1.0000
  H   H512      1.0  0.12818  0.47259  0.87003  1.0000
  H   H513      1.0  0.09623  0.44374  0.76352  1.0000
  H   H514      1.0  0.34853  0.35862  0.91494  1.0000
  C   C414      1.0  0.41315  0.27196  0.92191  1.0000
  H   H515      1.0  0.16172  0.47813  0.91793  1.0000
  C   C415      1.0  0.00089  0.38373  0.71043  1.0000
  H   H516      1.0  0.46177  0.24037  0.92108  1.0000
  C   C416      1.0  0.38684  0.48583  0.98131  1.0000
  H   H517      1.0  0.45028  0.30447  0.91359  1.0000
  H   H518      1.0  0.02010  0.43665  0.70831  1.0000
  H   H519      1.0  0.32235  0.41899  0.90370  1.0000
  C   C417      1.0  0.07458  0.40150  0.67476  1.0000
  H   H520      1.0  0.15227  0.44704  0.85888  1.0000
  N   N26       1.0  0.36870  0.48234  0.98172  1.0000
  C   C418      1.0  0.47042  0.27330  0.92774  1.0000
  C   C419      1.0  0.41530  0.25304  0.92672  1.0000
  C   C420      1.0  0.37014  0.37873  0.95012  1.0000
  H   H521      1.0  0.02460  0.39395  0.69314  1.0000
  C   C421      1.0  0.01973  0.37245  0.68365  1.0000
  C   C422      1.0  0.44686  0.26884  0.91532  1.0000
  C   C423      1.0  0.36262  0.39649  0.94162  1.0000
  S   S104      1.0  0.42502  0.34421  0.96267  1.0000
  H   H522      1.0  0.37065  0.35936  0.97584  1.0000
  H   H523      1.0  0.36677  0.40100  0.92690  1.0000
  C   C424      1.0  0.06402  0.42996  0.84275  1.0000
  C   C425      1.0  0.03360  0.42487  0.84252  1.0000
  H   H524      1.0  0.02150  0.44590  0.79429  1.0000
  H   H525      1.0  0.03125  0.37303  0.67192  1.0000
  C   C426      1.0  0.14231  0.47035  0.87158  1.0000
  C   C427      1.0  0.47824  0.26799  0.89689  1.0000
  H   H526      1.0  0.28208  0.40069  0.93280  1.0000
  H   H527      1.0  0.03758  0.46005  0.83731  1.0000
  S   S105      1.0  0.32675  0.41645  0.98436  1.0000
  C   C428      1.0  0.48387  0.32104  0.94609  1.0000
  S   S106      1.0  0.27915  0.46956  0.92047  1.0000
  C   C429      1.0  0.24528  0.46669  0.94298  1.0000
  H   H528      1.0  0.03589  0.48287  0.77155  1.0000
  C   C430      1.0  0.00667  0.44376  0.70550  1.0000
  H   H529      1.0  0.06005  0.36231  0.69746  1.0000
  S   S107      1.0  0.28530  0.45444  0.97255  1.0000
  H   H530      1.0  0.48265  0.27939  0.92516  1.0000
  C   C431      1.0  0.31756  0.42285  0.91732  1.0000
  C   C432      1.0  0.00295  0.43782  0.78305  1.0000
  H   H531      1.0  0.99909  0.32506  0.72306  1.0000
  C   C433      1.0  0.03519  0.45152  0.85144  1.0000
  C   C434      1.0  0.43297  0.24187  0.92575  1.0000
  H   H532      1.0  0.10232  0.44410  0.84364  1.0000
  H   H533      1.0  0.01666  0.47679  0.75766  1.0000
  C   C435      1.0  0.35159  0.38472  0.97961  1.0000
  S   S108      1.0  0.32257  0.45725  0.93954  1.0000
  C   C436      1.0  0.38040  0.46848  0.95367  1.0000
  C   C437      1.0  0.37772  0.43807  0.95415  1.0000
  H   H534      1.0  0.42590  0.29456  0.91283  1.0000
  H   H535      1.0  0.00276  0.48596  0.77757  1.0000
  H   H536      1.0  0.02419  0.47529  0.68812  1.0000
  H   H537      1.0  0.29647  0.40434  0.91017  1.0000
  C   C438      1.0  0.41536  0.25343  0.97238  1.0000
  C   C439      1.0  0.43438  0.25303  0.96776  1.0000
  C   C440      1.0  0.32905  0.36523  0.95823  1.0000
  H   H538      1.0  0.02740  0.42273  0.87818  1.0000
  C   C441      1.0  0.42864  0.27983  0.91611  1.0000
  C   C442      1.0  0.45982  0.29673  0.90325  1.0000
  C   C443      1.0  0.22586  0.47043  0.94679  1.0000
  C   C444      1.0  0.21618  0.48323  0.93420  1.0000
  C   C445      1.0  0.00653  0.48319  0.65940  1.0000
  C   C446      1.0  0.06813  0.38823  0.68955  1.0000
  H   H539      1.0  0.49042  0.27450  0.89246  1.0000
  C   C447      1.0  0.29735  0.41948  0.94711  1.0000
  C   C448      1.0  0.07267  0.42003  0.82850  1.0000
  H   H540      1.0  0.11577  0.46892  0.71747  1.0000
  C   C449      1.0  0.34003  0.35662  0.94408  1.0000
  H   H541      1.0  0.28933  0.43363  0.94303  1.0000
  N   N27       1.0  0.46345  0.27670  0.91079  1.0000
  C   C450      1.0  0.09136  0.41906  0.81997  1.0000
  Fe  Fe56      1.0  0.44080  0.31838  0.95322  1.0000
  C   C451      1.0  0.34391  0.40238  0.97109  1.0000
  H   H542      1.0  0.30800  0.42043  0.95391  1.0000
  S   S109      1.0  0.39873  0.27376  0.97445  1.0000
  H   H543      1.0  0.46270  0.32658  0.96997  1.0000
  H   H544      1.0  0.48714  0.25051  0.97550  1.0000
  H   H545      1.0  0.19365  0.47533  0.89994  1.0000
  C   C452      1.0  0.36494  0.37302  0.96919  1.0000
  C   C453      1.0  0.36933  0.43602  0.97275  1.0000
  Fe  Fe57      1.0  0.31603  0.44484  0.96958  1.0000
  C   C454      1.0  0.09410  0.43705  0.83971  1.0000
  C   C455      1.0  0.06481  0.37273  0.68607  1.0000
  H   H546      1.0  0.11625  0.42758  0.81826  1.0000
  H   H547      1.0  0.03487  0.43172  0.82773  1.0000
  S   S110      1.0  0.41817  0.31543  0.94193  1.0000
  C   C456      1.0  0.01585  0.38435  0.69548  1.0000
  H   H548      1.0  0.04902  0.40709  0.87182  1.0000
  S   S111      1.0  0.10266  0.48024  0.80325  1.0000
  H   H549      1.0  0.32854  0.38872  0.90743  1.0000
  H   H550      1.0  0.38943  0.45603  0.93006  1.0000
  S   S112      1.0  0.46937  0.31543  0.93558  1.0000
  C   C457      1.0  0.25496  0.47520  0.92622  1.0000
  H   H551      1.0  0.48396  0.25337  0.90232  1.0000
  H   H552      1.0  0.07754  0.41331  0.67731  1.0000
  C   C458      1.0  0.31796  0.38273  0.95428  1.0000
  H   H553      1.0  0.28736  0.41193  0.95747  1.0000
  H   H554      1.0  0.19288  0.46204  0.87663  1.0000
  C   C459      1.0  0.33965  0.36527  0.92588  1.0000
  C   C460      1.0  0.34975  0.40842  0.95218  1.0000
  H   H555      1.0  0.07006  0.44535  0.85947  1.0000
  C   C461      1.0  0.14684  0.48202  0.87978  1.0000
  H   H556      1.0  0.01448  0.43195  0.77333  1.0000
  H   H557      1.0  0.34928  0.34344  0.94721  1.0000
  C   C462      1.0  0.32838  0.38264  0.92175  1.0000
  S   S113      1.0  0.07332  0.48524  0.85320  1.0000
  C   C463      1.0  0.07548  0.43796  0.84846  1.0000
  C   C464      1.0  0.31747  0.39210  0.93581  1.0000
  H   H558      1.0  0.28197  0.42357  0.91939  1.0000
  H   H559      1.0  0.08253  0.48598  0.74208  1.0000
  C   C465      1.0  0.29099  0.40977  0.92298  1.0000
  C   C466      1.0  0.47715  0.32563  0.96337  1.0000
  S   S114      1.0  0.09622  0.46880  0.68833  1.0000
  H   H560      1.0  0.39934  0.28060  0.92327  1.0000
  Fe  Fe58      1.0  0.28971  0.47913  0.97884  1.0000
  H   H561      1.0  0.03845  0.40984  0.84350  1.0000
  N   N28       1.0  0.30605  0.41072  0.93103  1.0000
  H   H562      1.0  0.04036  0.45744  0.86014  1.0000
  H   H563      1.0  0.00281  0.43208  0.74852  1.0000
  S   S115      1.0  0.31998  0.46851  0.97815  1.0000
  C   C467      1.0  0.04221  0.42182  0.87101  1.0000
  H   H564      1.0  0.34432  0.42217  0.94566  1.0000
  H   H565      1.0  0.47306  0.26892  0.88450  1.0000
  H   H566      1.0  0.06520  0.41351  0.82308  1.0000
  H   H567      1.0  0.47480  0.25846  0.93347  1.0000
  H   H568      1.0  0.00516  0.41027  0.76461  1.0000
  H   H569      1.0  0.32976  0.35859  0.97235  1.0000
  S   S116      1.0  0.02015  0.31855  0.66207  1.0000
  H   H570      1.0  0.11351  0.46939  0.74091  1.0000
  H   H571      1.0  0.40323  0.24703  0.93178  1.0000
  H   H572      1.0  0.00665  0.32326  0.69944  1.0000
  H   H573      1.0  0.36483  0.42348  0.97999  1.0000
  S   S117      1.0  0.43360  0.29972  0.98054  1.0000
  S   S118      1.0  0.39049  0.32301  0.98089  1.0000
  C   C468      1.0  0.17864  0.46493  0.87551  1.0000
  C   C469      1.0  0.36636  0.45015  0.98195  1.0000
  C   C470      1.0  0.00722  0.44578  0.79517  1.0000
  C   C471      1.0  0.37169  0.46697  0.97257  1.0000
  H   H574      1.0  0.00524  0.46972  0.66853  1.0000
  C   C472      1.0  0.07762  0.39924  0.65664  1.0000
  H   H575      1.0  0.00749  0.42671  0.68732  1.0000
  C   C473      1.0  0.11750  0.47702  0.72658  1.0000
  H   H576      1.0  0.01993  0.45373  0.85684  1.0000
  C   C474      1.0  0.99948  0.43801  0.69375  1.0000
  H   H577      1.0  0.00121  0.40691  0.66289  1.0000
  H   H578      1.0  0.39458  0.23763  0.97870  1.0000
  C   C475      1.0  0.15584  0.45601  0.86533  1.0000
  C   C476      1.0  0.17394  0.45326  0.86735  1.0000
  C   C477      1.0  0.40926  0.23737  0.97503  1.0000
  C   C478      1.0  0.05809  0.47901  0.65377  1.0000
  C   C479      1.0  0.04078  0.47574  0.65391  1.0000
  C   C480      1.0  0.16517  0.47982  0.88186  1.0000
  H   H579      1.0  0.03289  0.41090  0.65322  1.0000
  Fe  Fe59      1.0  0.19323  0.57066  0.08453  1.0000
  S   S119      1.0  0.18359  0.55158  0.11059  1.0000
  S   S120      1.0  0.20075  0.59699  0.08320  1.0000
  Fe  Fe60      1.0  0.19157  0.54696  0.06021  1.0000
  S   S121      1.0  0.18205  0.52545  0.08401  1.0000
  Fe  Fe61      1.0  0.16314  0.54884  0.09625  1.0000
  S   S122      1.0  0.13497  0.54384  0.11221  1.0000
  Fe  Fe62      1.0  0.20306  0.52956  0.09679  1.0000
  H   H580      1.0  0.12807  0.68509  0.28146  1.0000
  S   S123      1.0  0.17086  0.57024  0.07110  1.0000
  S   S124      1.0  0.21460  0.54882  0.07191  1.0000
  H   H581      1.0  0.10529  0.69427  0.27682  1.0000
  C   C481      1.0  0.00624  0.66040  0.26636  1.0000
  H   H582      1.0  0.20050  0.50663  0.04589  1.0000
  Fe  Fe63      1.0  0.28695  0.60843  0.10297  1.0000
  S   S125      1.0  0.30005  0.60958  0.07332  1.0000
  S   S126      1.0  0.26991  0.58726  0.11697  1.0000
  Fe  Fe64      1.0  0.30560  0.63732  0.10526  1.0000
  S   S127      1.0  0.32030  0.64092  0.07564  1.0000
  S   S128      1.0  0.31106  0.65001  0.12567  1.0000
  Fe  Fe65      1.0  0.29320  0.63985  0.07082  1.0000
  S   S129      1.0  0.28163  0.65646  0.04640  1.0000
  Fe  Fe66      1.0  0.32588  0.61035  0.08082  1.0000
  S   S130      1.0  0.35389  0.59416  0.06986  1.0000
  S   S131      1.0  0.27770  0.63887  0.10014  1.0000
  S   S132      1.0  0.31345  0.60667  0.11088  1.0000
  H   H583      1.0  0.27198  0.54806  0.04128  1.0000
  C   C482      1.0  0.31040  0.51976  0.99423  1.0000
  H   H584      1.0  0.17413  0.58206  0.15496  1.0000
  S   S133      1.0  0.21768  0.50499  0.11440  1.0000
  C   C483      1.0  0.27359  0.55265  0.06695  1.0000
  H   H585      1.0  0.08745  0.71408  0.29531  1.0000
  H   H586      1.0  0.34985  0.72844  0.01892  1.0000
  Fe  Fe67      1.0  0.06284  0.63768  0.31503  1.0000
  S   S134      1.0  0.07127  0.64407  0.28413  1.0000
  C   C484      1.0  0.24188  0.59919  0.04062  1.0000
  H   H587      1.0  0.34055  0.58836  0.03537  1.0000
  H   H588      1.0  0.28088  0.50155  0.07560  1.0000
  S   S135      1.0  0.41811  0.71854  0.09867  1.0000
  C   C485      1.0  0.03996  0.61647  0.27167  1.0000
  C   C486      1.0  0.05402  0.56076  0.16912  1.0000
  H   H589      1.0  0.36471  0.62450  0.07889  1.0000
  S   S136      1.0  0.07464  0.57814  0.23239  1.0000
  H   H590      1.0  0.34756  0.73137  0.05663  1.0000
  Fe  Fe68      1.0  0.06593  0.55153  0.24540  1.0000
  S   S137      1.0  0.07662  0.53281  0.26982  1.0000
  Fe  Fe69      1.0  0.07678  0.57097  0.20547  1.0000
  S   S138      1.0  0.10104  0.57809  0.18298  1.0000
  H   H591      1.0  0.04295  0.54043  0.15061  1.0000
  C   C487      1.0  0.20647  0.49598  0.03807  1.0000
  H   H592      1.0  0.25334  0.54195  0.00754  1.0000
  C   C488      1.0  0.40178  0.69953  0.04459  1.0000
  H   H593      1.0  0.32818  0.58133  0.05770  1.0000
  S   S139      1.0  0.40607  0.68414  0.14545  1.0000
  C   C489      1.0  0.15799  0.55213  0.99568  1.0000
  C   C490      1.0  0.29141  0.70887  0.05784  1.0000
  H   H594      1.0  0.27941  0.55738  0.09076  1.0000
  C   C491      1.0  0.27138  0.49447  0.08632  1.0000
  H   H595      1.0  0.29180  0.70982  0.07145  1.0000
  C   C492      1.0  0.18301  0.54899  0.01771  1.0000
  C   C493      1.0  0.27077  0.69725  0.00688  1.0000
  C   C494      1.0  0.03043  0.51691  0.31842  1.0000
  H   H596      1.0  0.39722  0.49278  0.09558  1.0000
  S   S140      1.0  0.07090  0.54314  0.21858  1.0000
  C   C495      1.0  0.22471  0.58013  0.01299  1.0000
  H   H597      1.0  0.23044  0.59950  0.05231  1.0000
  C   C496      1.0  0.42992  0.67460  0.14238  1.0000
  C   C497      1.0  0.44167  0.67747  0.12501  1.0000
  C   C498      1.0  0.46093  0.67195  0.12317  1.0000
  Fe  Fe70      1.0  0.33705  0.50570  0.04143  1.0000
  C   C499      1.0  0.45666  0.65917  0.15583  1.0000
  C   C500      1.0  0.43742  0.66504  0.15771  1.0000
  H   H598      1.0  0.43597  0.68396  0.11300  1.0000
  H   H599      1.0  0.09979  0.57998  0.27161  1.0000
  H   H600      1.0  0.46990  0.67456  0.10981  1.0000
  H   H601      1.0  0.42838  0.66260  0.17115  1.0000
  H   H602      1.0  0.22505  0.51460  0.05031  1.0000
  H   H603      1.0  0.26949  0.65371  0.01527  1.0000
  H   H604      1.0  0.07588  0.59065  0.27295  1.0000
  H   H605      1.0  0.22352  0.54299  0.13861  1.0000
  H   H606      1.0  0.34903  0.63231  0.10766  1.0000
  C   C501      1.0  0.17894  0.50457  0.17523  1.0000
  H   H607      1.0  0.34078  0.57757  0.01056  1.0000
  C   C502      1.0  0.05898  0.52616  0.28841  1.0000
  C   C503      1.0  0.04121  0.52818  0.28580  1.0000
  C   C504      1.0  0.02693  0.52372  0.30075  1.0000
  H   H608      1.0  0.03858  0.53272  0.27221  1.0000
  H   H609      1.0  0.01328  0.52521  0.29857  1.0000
  S   S141      1.0  0.20014  0.54503  0.03039  1.0000
  H   H610      1.0  0.26043  0.54916  0.07429  1.0000
  C   C505      1.0  0.24902  0.62917  0.14827  1.0000
  C   C506      1.0  0.06534  0.56892  0.13630  1.0000
  H   H611      1.0  0.36977  0.62281  0.11618  1.0000
  H   H612      1.0  0.28687  0.60236  0.03095  1.0000
  C   C507      1.0  0.31252  0.51839  0.01194  1.0000
  N   N29       1.0  0.08179  0.57141  0.29766  1.0000
  C   C508      1.0  0.09536  0.55408  0.30213  1.0000
  C   C509      1.0  0.04790  0.59207  0.15332  1.0000
  H   H613      1.0  0.35677  0.49069  0.00763  1.0000
  C   C510      1.0  0.00994  0.51244  0.26285  1.0000
  H   H614      1.0  0.26998  0.69385  0.99403  1.0000
  C   C511      1.0  0.19671  0.49488  0.02571  1.0000
  H   H615      1.0  0.27869  0.64005  0.15329  1.0000
  C   C512      1.0  0.06029  0.63530  0.27218  1.0000
  C   C513      1.0  0.19888  0.53229  0.15070  1.0000
  H   H616      1.0  0.24153  0.60512  0.14477  1.0000
  N   N30       1.0  0.22244  0.59701  0.01960  1.0000
  C   C514      1.0  0.05426  0.63419  0.24322  1.0000
  C   C515      1.0  0.06325  0.64061  0.25299  1.0000
  C   C516      1.0  0.34102  0.55204  0.04315  1.0000
  H   H617      1.0  0.05622  0.63873  0.22844  1.0000
  H   H618      1.0  0.07228  0.64994  0.24567  1.0000
  C   C517      1.0  0.31892  0.67050  0.11704  1.0000
  C   C518      1.0  0.31568  0.68185  0.10030  1.0000
  C   C519      1.0  0.32165  0.69843  0.09408  1.0000
  C   C520      1.0  0.30123  0.56185  0.06686  1.0000
  H   H619      1.0  0.03627  0.59599  0.16479  1.0000
  C   C521      1.0  0.32855  0.67554  0.12722  1.0000
  H   H620      1.0  0.30828  0.67800  0.09237  1.0000
  H   H621      1.0  0.31900  0.70734  0.08130  1.0000
  H   H622      1.0  0.23518  0.57943  0.99997  1.0000
  H   H623      1.0  0.33108  0.66683  0.14018  1.0000
  C   C522      1.0  0.35751  0.53266  0.08878  1.0000
  C   C523      1.0  0.37212  0.53937  0.07593  1.0000
  C   C524      1.0  0.37107  0.55829  0.07039  1.0000
  C   C525      1.0  0.35539  0.57051  0.07763  1.0000
  C   C526      1.0  0.34072  0.56378  0.09039  1.0000
  C   C527      1.0  0.34181  0.54487  0.09601  1.0000
  H   H624      1.0  0.38427  0.52997  0.07032  1.0000
  H   H625      1.0  0.38237  0.56345  0.06043  1.0000
  H   H626      1.0  0.32848  0.57311  0.09591  1.0000
  H   H627      1.0  0.33048  0.53970  0.10594  1.0000
  H   H628      1.0  0.01216  0.65323  0.25469  1.0000
  C   C528      1.0  0.29293  0.64536  0.02810  1.0000
  C   C529      1.0  0.31120  0.63540  0.02716  1.0000
  C   C530      1.0  0.22720  0.62935  0.13011  1.0000
  H   H629      1.0  0.31858  0.63502  0.03739  1.0000
  H   H630      1.0  0.00470  0.63071  0.29477  1.0000
  C   C531      1.0  0.28367  0.64615  0.01455  1.0000
  C   C532      1.0  0.12563  0.55322  0.13195  1.0000
  C   C533      1.0  0.11209  0.54583  0.14601  1.0000
  C   C534      1.0  0.10457  0.55312  0.16194  1.0000
  C   C535      1.0  0.11018  0.56817  0.16357  1.0000
  C   C536      1.0  0.12380  0.57541  0.14956  1.0000
  C   C537      1.0  0.13165  0.56785  0.13388  1.0000
  H   H631      1.0  0.10767  0.53428  0.14466  1.0000
  H   H632      1.0  0.09473  0.54691  0.17305  1.0000
  H   H633      1.0  0.12830  0.58697  0.15082  1.0000
  H   H634      1.0  0.14210  0.57360  0.12311  1.0000
  C   C538      1.0  0.22046  0.59390  0.09197  1.0000
  C   C539      1.0  0.22917  0.60851  0.08841  1.0000
  C   C540      1.0  0.24484  0.60631  0.09545  1.0000
  C   C541      1.0  0.25140  0.58971  0.10666  1.0000
  C   C542      1.0  0.24275  0.57507  0.11015  1.0000
  C   C543      1.0  0.22751  0.57705  0.10252  1.0000
  H   H635      1.0  0.22386  0.62152  0.08010  1.0000
  H   H636      1.0  0.25151  0.61764  0.09262  1.0000
  H   H637      1.0  0.24794  0.56215  0.11865  1.0000
  H   H638      1.0  0.22097  0.56568  0.10512  1.0000
  H   H639      1.0  0.08433  0.56707  0.27059  1.0000
  H   H640      1.0  0.08703  0.66372  0.30197  1.0000
  C   C544      1.0  0.09505  0.71170  0.30591  1.0000
  H   H641      1.0  0.45688  0.68525  0.00330  1.0000
  H   H642      1.0  0.39560  0.68388  0.01005  1.0000
  H   H643      1.0  0.22033  0.62190  0.12497  1.0000
  C   C545      1.0  0.00089  0.58044  0.14362  1.0000
  H   H644      1.0  0.24846  0.51805  0.08647  1.0000
  H   H645      1.0  0.33405  0.61804  0.01244  1.0000
  C   C546      1.0  0.01529  0.54839  0.14677  1.0000
  H   H646      1.0  0.21161  0.57918  0.01011  1.0000
  H   H647      1.0  0.03341  0.50367  0.23238  1.0000
  H   H648      1.0  0.14281  0.51488  0.17952  1.0000
  H   H649      1.0  0.16024  0.52851  0.13844  1.0000
  C   C547      1.0  0.25448  0.54076  0.99362  1.0000
  H   H650      1.0  0.27655  0.59254  0.17190  1.0000
  H   H651      1.0  0.37984  0.70732  0.06706  1.0000
  H   H652      1.0  0.33025  0.55962  0.01195  1.0000
  C   C548      1.0  0.28730  0.72129  0.99162  1.0000
  H   H653      1.0  0.00101  0.62645  0.27461  1.0000
  C   C549      1.0  0.00091  0.56989  0.19655  1.0000
  H   H654      1.0  0.15021  0.53091  0.18739  1.0000
  H   H655      1.0  0.01605  0.52325  0.26424  1.0000
  H   H656      1.0  0.11515  0.67055  0.27805  1.0000
  C   C550      1.0  0.32831  0.57179  0.01764  1.0000
  C   C551      1.0  0.24017  0.59772  0.02324  1.0000
  H   H657      1.0  0.06512  0.56436  0.17326  1.0000
  H   H658      1.0  0.31572  0.59537  0.04053  1.0000
  H   H659      1.0  0.21482  0.65555  0.11555  1.0000
  H   H660      1.0  0.13208  0.66171  0.31051  1.0000
  C   C552      1.0  0.29697  0.55682  0.03884  1.0000
  C   C553      1.0  0.25635  0.59746  0.00896  1.0000
  H   H661      1.0  0.48706  0.73181  0.18392  1.0000
  C   C554      1.0  0.36973  0.69798  0.04895  1.0000
  H   H662      1.0  0.13937  0.54401  0.02128  1.0000
  S   S142      1.0  0.36494  0.49929  0.04790  1.0000
  C   C555      1.0  0.28005  0.55216  0.04836  1.0000
  H   H663      1.0  0.18152  0.51184  0.13852  1.0000
  H   H664      1.0  0.49234  0.69881  0.18445  1.0000
  H   H665      1.0  0.45208  0.70777  0.16499  1.0000
  H   H666      1.0  0.34055  0.53950  0.03922  1.0000
  H   H667      1.0  0.23057  0.67268  0.12702  1.0000
  C   C556      1.0  0.23297  0.65791  0.13124  1.0000
  H   H668      1.0  0.45512  0.69675  0.14651  1.0000
  H   H669      1.0  0.25166  0.65664  0.14758  1.0000
  C   C557      1.0  0.27303  0.59892  0.01180  1.0000
  N   N31       1.0  0.37291  0.64262  0.09057  1.0000
  C   C558      1.0  0.36182  0.63561  0.10886  1.0000
  C   C559      1.0  0.36111  0.65933  0.08170  1.0000
  C   C560      1.0  0.37740  0.62844  0.07948  1.0000
  C   C561      1.0  0.39016  0.64703  0.09150  1.0000
  C   C562      1.0  0.39517  0.64541  0.10839  1.0000
  C   C563      1.0  0.40227  0.65378  0.07511  1.0000
  C   C564      1.0  0.41134  0.65021  0.10870  1.0000
  C   C565      1.0  0.41845  0.65840  0.07559  1.0000
  C   C566      1.0  0.42296  0.65665  0.09234  1.0000
  H   H670      1.0  0.35709  0.64596  0.11763  1.0000
  H   H671      1.0  0.35911  0.67098  0.08840  1.0000
  H   H672      1.0  0.34717  0.65726  0.08245  1.0000
  H   H673      1.0  0.36713  0.66361  0.06686  1.0000
  H   H674      1.0  0.38674  0.61581  0.08536  1.0000
  H   H675      1.0  0.38427  0.63315  0.06497  1.0000
  H   H676      1.0  0.38669  0.64083  0.12160  1.0000
  H   H677      1.0  0.39912  0.65593  0.06178  1.0000
  H   H678      1.0  0.41468  0.64935  0.12173  1.0000
  H   H679      1.0  0.42731  0.66383  0.06289  1.0000
  H   H680      1.0  0.20866  0.49334  0.07372  1.0000
  H   H681      1.0  0.33052  0.72581  0.04865  1.0000
  H   H682      1.0  0.09454  0.54931  0.31719  1.0000
  C   C567      1.0  0.24514  0.64856  0.14293  1.0000
  S   S143      1.0  0.27270  0.48953  0.00381  1.0000
  C   C568      1.0  0.32753  0.58380  0.04313  1.0000
  S   S144      1.0  0.49239  0.65845  0.13724  1.0000
  C   C569      1.0  0.08505  0.58555  0.30531  1.0000
  C   C570      1.0  0.06281  0.56835  0.30585  1.0000
  H   H683      1.0  0.30505  0.67619  0.00552  1.0000
  H   H684      1.0  0.01446  0.53453  0.14745  1.0000
  H   H685      1.0  0.04507  0.51006  0.24589  1.0000
  C   C571      1.0  0.03266  0.56984  0.14866  1.0000
  C   C572      1.0  0.01693  0.58412  0.14573  1.0000
  C   C573      1.0  0.03147  0.55192  0.14872  1.0000
  H   H686      1.0  0.02263  0.56774  0.29483  1.0000
  H   H687      1.0  0.31705  0.69439  0.99308  1.0000
  C   C574      1.0  0.45488  0.72714  0.11962  1.0000
  H   H688      1.0  0.00299  0.67531  0.26040  1.0000
  N   N32       1.0  0.44709  0.72602  0.13961  1.0000
  C   C575      1.0  0.18109  0.56806  0.15408  1.0000
  H   H689      1.0  0.42101  0.72192  0.15795  1.0000
  H   H690      1.0  0.05284  0.57433  0.28030  1.0000
  C   C576      1.0  0.27521  0.71680  0.03305  1.0000
  H   H691      1.0  0.09286  0.54298  0.29710  1.0000
  H   H692      1.0  0.04581  0.60202  0.14031  1.0000
  C   C577      1.0  0.04977  0.57026  0.29510  1.0000
  C   C578      1.0  0.17534  0.55632  0.98763  1.0000
  H   H693      1.0  0.20631  0.51889  0.14827  1.0000
  S   S145      1.0  0.02954  0.61584  0.24078  1.0000
  H   H694      1.0  0.05895  0.54617  0.16810  1.0000
  C   C579      1.0  0.30787  0.56233  0.04772  1.0000
  S   S146      1.0  0.33160  0.52417  0.01505  1.0000
  H   H695      1.0  0.15631  0.55859  0.16543  1.0000
  H   H696      1.0  0.31806  0.69039  0.05371  1.0000
  C   C580      1.0  0.45327  0.69731  0.99292  1.0000
  H   H697      1.0  0.01018  0.57817  0.19647  1.0000
  C   C581      1.0  0.46846  0.66312  0.13865  1.0000
  H   H698      1.0  0.99818  0.55849  0.24471  1.0000
  H   H699      1.0  0.44283  0.72727  0.05429  1.0000
  C   C582      1.0  0.11401  0.68228  0.28432  1.0000
  H   H700      1.0  0.24616  0.50479  0.05793  1.0000
  C   C583      1.0  0.27409  0.60073  0.02890  1.0000
  H   H701      1.0  0.01642  0.59819  0.14545  1.0000
  C   C584      1.0  0.33123  0.70346  0.10432  1.0000
  H   H702      1.0  0.21009  0.58521  0.04729  1.0000
  C   C585      1.0  0.33501  0.69182  0.12071  1.0000
  H   H703      1.0  0.35485  0.55527  0.03646  1.0000
  H   H704      1.0  0.47232  0.70804  0.14656  1.0000
  H   H705      1.0  0.30914  0.56473  0.07492  1.0000
  C   C586      1.0  0.30608  0.69789  0.04791  1.0000
  C   C587      1.0  0.20001  0.56396  0.14657  1.0000
  H   H706      1.0  0.30131  0.55589  0.02455  1.0000
  N   N33       1.0  0.32582  0.56740  0.03797  1.0000
  C   C588      1.0  0.04857  0.62323  0.28145  1.0000
  H   H707      1.0  0.27910  0.49527  0.03669  1.0000
  C   C589      1.0  0.28424  0.55735  0.07619  1.0000
  H   H708      1.0  0.31619  0.58201  0.01332  1.0000
  C   C590      1.0  0.22408  0.64831  0.12479  1.0000
  C   C591      1.0  0.08553  0.57756  0.27732  1.0000
  H   H709      1.0  0.47010  0.72588  0.11595  1.0000
  S   S147      1.0  0.33790  0.72458  0.09679  1.0000
  H   H710      1.0  0.18376  0.50462  0.02420  1.0000
  Fe  Fe71      1.0  0.04111  0.55736  0.21909  1.0000
  H   H711      1.0  0.05980  0.48995  0.26799  1.0000
  H   H712      1.0  0.31709  0.68716  0.02386  1.0000
  C   C592      1.0  0.17096  0.55432  0.16005  1.0000
  C   C593      1.0  0.04254  0.62216  0.25258  1.0000
  H   H713      1.0  0.16152  0.54113  0.04074  1.0000
  Fe  Fe72      1.0  0.04483  0.58975  0.23157  1.0000
  C   C594      1.0  0.31998  0.62584  0.01300  1.0000
  C   C595      1.0  0.28967  0.70537  0.02274  1.0000
  H   H714      1.0  0.20352  0.61313  0.00219  1.0000
  H   H715      1.0  0.03092  0.60715  0.27898  1.0000
  H   H716      1.0  0.07649  0.51670  0.30810  1.0000
  C   C596      1.0  0.06268  0.51875  0.30599  1.0000
  H   H717      1.0  0.11751  0.64939  0.30647  1.0000
  H   H718      1.0  0.34240  0.69564  0.12868  1.0000
  H   H719      1.0  0.46231  0.71466  0.00434  1.0000
  S   S148      1.0  0.38664  0.69582  0.10146  1.0000
  Fe  Fe73      1.0  0.39781  0.70450  0.12080  1.0000
  H   H720      1.0  0.26317  0.61707  0.18877  1.0000
  C   C597      1.0  0.28740  0.50247  0.02482  1.0000
  H   H721      1.0  0.26467  0.72690  0.05816  1.0000
  H   H722      1.0  0.20121  0.55780  0.99230  1.0000
  C   C598      1.0  0.45712  0.70896  0.14988  1.0000
  C   C599      1.0  0.17961  0.53591  0.15861  1.0000
  H   H723      1.0  0.07785  0.68758  0.30046  1.0000
  H   H724      1.0  0.06229  0.57739  0.12293  1.0000
  H   H725      1.0  0.10985  0.55552  0.29574  1.0000
  H   H726      1.0  0.25959  0.60198  0.05663  1.0000
  S   S149      1.0  0.35573  0.69007  0.02412  1.0000
  H   H727      1.0  0.07481  0.59864  0.30263  1.0000
  H   H728      1.0  0.20370  0.60981  0.04135  1.0000
  H   H729      1.0  0.30222  0.50934  0.04095  1.0000
  C   C600      1.0  0.15287  0.54707  0.01493  1.0000
  C   C601      1.0  0.16537  0.54549  0.02596  1.0000
  H   H730      1.0  0.29063  0.61748  0.16112  1.0000
  N   N34       1.0  0.10610  0.67841  0.30437  1.0000
  S   S150      1.0  0.32110  0.50788  0.07006  1.0000
  H   H731      1.0  0.16000  0.50540  0.15042  1.0000
  N   N35       1.0  0.16918  0.52117  0.16399  1.0000
  Fe  Fe74      1.0  0.36129  0.70067  0.99367  1.0000
  H   H732      1.0  0.07825  0.57172  0.13784  1.0000
  C   C602      1.0  0.20889  0.54610  0.14493  1.0000
  C   C603      1.0  0.10543  0.69403  0.31228  1.0000
  C   C604      1.0  0.24083  0.49453  0.10638  1.0000
  C   C605      1.0  0.08711  0.67564  0.30735  1.0000
  C   C606      1.0  0.18776  0.55474  0.99862  1.0000
  S   S151      1.0  0.35900  0.50904  0.09597  1.0000
  S   S152      1.0  0.03580  0.56388  0.24681  1.0000
  S   S153      1.0  0.04727  0.58470  0.20366  1.0000
  C   C607      1.0  0.42744  0.72475  0.14302  1.0000
  S   S154      1.0  0.02309  0.54077  0.21531  1.0000
  C   C608      1.0  0.20692  0.59708  0.03600  1.0000
  N   N36       1.0  0.28804  0.70341  0.00474  1.0000
  H   H733      1.0  0.22891  0.56771  0.02339  1.0000
  C   C609      1.0  0.25863  0.60067  0.04332  1.0000
  H   H734      1.0  0.04599  0.61908  0.29615  1.0000
  H   H735      1.0  0.19218  0.49787  0.16711  1.0000
  H   H736      1.0  0.42026  0.69064  0.02065  1.0000
  C   C610      1.0  0.27608  0.71843  0.05036  1.0000
  H   H737      1.0  0.46242  0.65222  0.16781  1.0000
  C   C611      1.0  0.25390  0.62417  0.17897  1.0000
  C   C612      1.0  0.26629  0.59935  0.16307  1.0000
  C   C613      1.0  0.25305  0.50377  0.09240  1.0000
  C   C614      1.0  0.29241  0.63639  0.00051  1.0000
  H   H738      1.0  0.27559  0.73209  0.99653  1.0000
  C   C615      1.0  0.00400  0.55136  0.20503  1.0000
  H   H739      1.0  0.01750  0.65762  0.27392  1.0000
  H   H740      1.0  0.26993  0.68480  0.01797  1.0000
  H   H741      1.0  0.35574  0.69969  0.05709  1.0000
  H   H742      1.0  0.24032  0.62015  0.18493  1.0000
  Fe  Fe75      1.0  0.34921  0.49831  0.07700  1.0000
  C   C616      1.0  0.23949  0.61983  0.14163  1.0000
  H   H743      1.0  0.25150  0.63908  0.17833  1.0000
  H   H744      1.0  0.27242  0.59511  0.14964  1.0000
  C   C617      1.0  0.16769  0.51647  0.14717  1.0000
  Fe  Fe76      1.0  0.36604  0.72245  0.10157  1.0000
  H   H745      1.0  0.28553  0.62391  0.13871  1.0000
  C   C618      1.0  0.30067  0.51029  0.02723  1.0000
  C   C619      1.0  0.40615  0.69289  0.02846  1.0000
  H   H746      1.0  0.25376  0.59359  0.16977  1.0000
  C   C620      1.0  0.23771  0.50352  0.04889  1.0000
  H   H747      1.0  0.04163  0.56164  0.18062  1.0000
  C   C621      1.0  0.38354  0.70202  0.05478  1.0000
  S   S155      1.0  0.41894  0.70449  0.05234  1.0000
  H   H748      1.0  0.45259  0.71582  0.11478  1.0000
  H   H749      1.0  0.19392  0.59613  0.03291  1.0000
  C   C622      1.0  0.37387  0.69215  0.03247  1.0000
  C   C623      1.0  0.27988  0.62551  0.15317  1.0000
  H   H750      1.0  0.43531  0.66062  0.09265  1.0000
  Fe  Fe77      1.0  0.40478  0.71232  0.07940  1.0000
  H   H751      1.0  0.34004  0.54857  0.05824  1.0000
  C   C624      1.0  0.39216  0.68922  0.02239  1.0000
  C   C625      1.0  0.09381  0.72657  0.31344  1.0000
  N   N37       1.0  0.26203  0.61958  0.16062  1.0000
  C   C626      1.0  0.21685  0.61312  0.00529  1.0000
  H   H752      1.0  0.09908  0.58847  0.29917  1.0000
  H   H753      1.0  0.20774  0.57471  0.14164  1.0000
  S   S156      1.0  0.49631  0.66565  0.99622  1.0000
  H   H754      1.0  0.06068  0.59387  0.15621  1.0000
  H   H755      1.0  0.06863  0.55434  0.13523  1.0000
  H   H756      1.0  0.00390  0.51775  0.25037  1.0000
  C   C627      1.0  0.30533  0.69614  0.03061  1.0000
  H   H757      1.0  0.24559  0.50647  0.03442  1.0000
  H   H758      1.0  0.21302  0.51944  0.99310  1.0000
  C   C628      1.0  0.03229  0.56641  0.30328  1.0000
  C   C629      1.0  0.11742  0.66086  0.31261  1.0000
  N   N38       1.0  0.04961  0.57300  0.15178  1.0000
  H   H759      1.0  0.48681  0.66922  0.03389  1.0000
  C   C630      1.0  0.28621  0.50258  0.00709  1.0000
  H   H760      1.0  0.26296  0.72433  0.02789  1.0000
  H   H761      1.0  0.14135  0.53755  0.16665  1.0000
  C   C631      1.0  0.15012  0.52639  0.17492  1.0000
  H   H762      1.0  0.25614  0.59651  0.99534  1.0000
  H   H763      1.0  0.21524  0.62609  0.00967  1.0000
  H   H764      1.0  0.28493  0.63662  0.99053  1.0000
  C   C632      1.0  0.31042  0.62586  0.99998  1.0000
  H   H765      1.0  0.23621  0.52258  0.00215  1.0000
  H   H766      1.0  0.24013  0.49446  0.99255  1.0000
  H   H767      1.0  0.18209  0.50796  0.18701  1.0000
  C   C633      1.0  0.99999  0.56261  0.14437  1.0000
  N   N39       1.0  0.02397  0.49511  0.26169  1.0000
  C   C634      1.0  0.29740  0.51157  0.99181  1.0000
  H   H768      1.0  0.28509  0.59904  0.00057  1.0000
  H   H769      1.0  0.22716  0.61350  0.99204  1.0000
  H   H770      1.0  0.25810  0.70778  0.01039  1.0000
  H   H771      1.0  0.42612  0.71328  0.13775  1.0000
  C   C635      1.0  0.03884  0.49895  0.24522  1.0000
  H   H772      1.0  0.30033  0.72613  0.98902  1.0000
  H   H773      1.0  0.17058  0.49389  0.18087  1.0000
  C   C636      1.0  0.30370  0.69000  0.99637  1.0000
  C   C637      1.0  0.24461  0.52975  0.99032  1.0000
  S   S157      1.0  0.37540  0.73001  0.12323  1.0000
  C   C638      1.0  0.45624  0.71401  0.99351  1.0000
  C   C639      1.0  0.03068  0.48794  0.27905  1.0000
  H   H774      1.0  0.38513  0.49711  0.98840  1.0000
  H   H775      1.0  0.36712  0.73632  0.02446  1.0000
  H   H776      1.0  0.46156  0.73650  0.05482  1.0000
  H   H777      1.0  0.99823  0.51086  0.27483  1.0000
  H   H778      1.0  0.04389  0.49193  0.45348  1.0000
  C   C640      1.0  0.04849  0.64054  0.65142  1.0000
  H   H779      1.0  0.01076  0.71379  0.50225  1.0000
  S   S158      1.0  0.05910  0.72290  0.41494  1.0000
  C   C641      1.0  0.03841  0.68303  0.40343  1.0000
  H   H780      1.0  0.08619  0.71297  0.38096  1.0000
  C   C642      1.0  0.05947  0.71415  0.35190  1.0000
  Fe  Fe78      1.0  0.06758  0.64675  0.34912  1.0000
  C   C643      1.0  0.06404  0.69551  0.35124  1.0000
  H   H781      1.0  0.04029  0.61212  0.63988  1.0000
  H   H782      1.0  0.01437  0.57706  0.39306  1.0000
  H   H783      1.0  0.05770  0.69070  0.34310  1.0000
  H   H784      1.0  0.03584  0.55383  0.34796  1.0000
  Fe  Fe79      1.0  0.05467  0.70114  0.54313  1.0000
  S   S159      1.0  0.05208  0.72838  0.54926  1.0000
  S   S160      1.0  0.04264  0.70014  0.52006  1.0000
  Fe  Fe80      1.0  0.07053  0.68028  0.57668  1.0000
  S   S161      1.0  0.06915  0.70572  0.58594  1.0000
  S   S162      1.0  0.08048  0.65203  0.59220  1.0000
  Fe  Fe81      1.0  0.04142  0.71521  0.57836  1.0000
  H   H785      1.0  0.02829  0.66473  0.64337  1.0000
  Fe  Fe82      1.0  0.08004  0.71636  0.55600  1.0000
  H   H786      1.0  0.03156  0.64203  0.40270  1.0000
  S   S163      1.0  0.04181  0.68876  0.57180  1.0000
  S   S164      1.0  0.08376  0.69007  0.54725  1.0000
  S   S165      1.0  0.07804  0.57847  0.35883  1.0000
  H   H787      1.0  0.05344  0.52551  0.39582  1.0000
  C   C644      1.0  0.02333  0.50716  0.64852  1.0000
  S   S166      1.0  0.09672  0.71679  0.44292  1.0000
  C   C645      1.0  0.08272  0.70964  0.46442  1.0000
  C   C646      1.0  0.08900  0.70644  0.48060  1.0000
  C   C647      1.0  0.07675  0.70352  0.49776  1.0000
  C   C648      1.0  0.05843  0.70301  0.49879  1.0000
  C   C649      1.0  0.05251  0.70514  0.48262  1.0000
  C   C650      1.0  0.06456  0.70860  0.46551  1.0000
  H   H788      1.0  0.10318  0.70663  0.47986  1.0000
  H   H789      1.0  0.08152  0.70171  0.51013  1.0000
  H   H790      1.0  0.03857  0.70437  0.48316  1.0000
  H   H791      1.0  0.05971  0.71053  0.45315  1.0000
  H   H792      1.0  0.02991  0.57297  0.64232  1.0000
  H   H793      1.0  0.01036  0.67695  0.54942  1.0000
  H   H794      1.0  0.06362  0.60400  0.62797  1.0000
  H   H795      1.0  0.02537  0.50696  0.63376  1.0000
  H   H796      1.0  0.10144  0.73577  0.33365  1.0000
  Fe  Fe83      1.0  0.06658  0.60817  0.34940  1.0000
  C   C651      1.0  0.00553  0.68143  0.43135  1.0000
  S   S167      1.0  0.01455  0.53873  0.40807  1.0000
  H   H797      1.0  0.12240  0.67933  0.33273  1.0000
  C   C652      1.0  0.04243  0.57803  0.37836  1.0000
  C   C653      1.0  0.03970  0.55852  0.33319  1.0000
  C   C654      1.0  0.07944  0.49685  0.41693  1.0000
  C   C655      1.0  0.05175  0.66016  0.62094  1.0000
  C   C656      1.0  0.06874  0.64864  0.61525  1.0000
  C   C657      1.0  0.07596  0.63361  0.62785  1.0000
  H   H798      1.0  0.05056  0.58817  0.64213  1.0000
  H   H799      1.0  0.00022  0.68623  0.62652  1.0000
  H   H800      1.0  0.04637  0.67204  0.61133  1.0000
  H   H801      1.0  0.08927  0.62491  0.62355  1.0000
  S   S168      1.0  0.00102  0.64395  0.35723  1.0000
  C   C658      1.0  0.02835  0.56923  0.38962  1.0000
  C   C659      1.0  0.03229  0.55023  0.39579  1.0000
  S   S169      1.0  0.04701  0.65946  0.33106  1.0000
  H   H802      1.0  0.00723  0.69292  0.60254  1.0000
  C   C660      1.0  0.08477  0.68967  0.37177  1.0000
  H   H803      1.0  0.09465  0.68026  0.37943  1.0000
  H   H804      1.0  0.04975  0.72368  0.34414  1.0000
  C   C661      1.0  0.00301  0.61119  0.34931  1.0000
  H   H805      1.0  0.07830  0.54102  0.37618  1.0000
  H   H806      1.0  0.08404  0.58142  0.32039  1.0000
  C   C662      1.0  0.07685  0.68330  0.36106  1.0000
  Fe  Fe84      1.0  0.02122  0.50090  0.36390  1.0000
  H   H807      1.0  0.03087  0.69756  0.40138  1.0000
  H   H808      1.0  0.05551  0.51543  0.42854  1.0000
  C   C663      1.0  0.01916  0.58278  0.63615  1.0000
  H   H809      1.0  0.05149  0.50816  0.33437  1.0000
  C   C664      1.0  0.07986  0.70815  0.37279  1.0000
  H   H810      1.0  0.03930  0.59263  0.37330  1.0000
  N   N40       1.0  0.02689  0.67073  0.40286  1.0000
  C   C665      1.0  0.05444  0.58643  0.60731  1.0000
  S   S170      1.0  0.01219  0.51176  0.33700  1.0000
  S   S171      1.0  0.05094  0.62705  0.36847  1.0000
  Fe  Fe85      1.0  0.03192  0.63781  0.34882  1.0000
  H   H811      1.0  0.11173  0.65675  0.32764  1.0000
  C   C666      1.0  0.06441  0.54893  0.37997  1.0000
  C   C667      1.0  0.00135  0.57930  0.64196  1.0000
  H   H812      1.0  0.05177  0.65141  0.39382  1.0000
  H   H813      1.0  0.00983  0.62204  0.60399  1.0000
  C   C668      1.0  0.04159  0.65606  0.63904  1.0000
  C   C669      1.0  0.02177  0.67654  0.38465  1.0000
  S   S172      1.0  0.04160  0.51225  0.37071  1.0000
  H   H814      1.0  0.05109  0.68239  0.39236  1.0000
  C   C670      1.0  0.06589  0.62964  0.64595  1.0000
  H   H815      1.0  0.12814  0.72862  0.49046  1.0000
  H   H816      1.0  0.03515  0.63094  0.60904  1.0000
  H   H817      1.0  0.04236  0.64694  0.41816  1.0000
  C   C671      1.0  0.06045  0.56785  0.37347  1.0000
  H   H818      1.0  0.04326  0.67919  0.41654  1.0000
  H   H819      1.0  0.04931  0.58548  0.59553  1.0000
  C   C672      1.0  0.05035  0.54016  0.39108  1.0000
  H   H820      1.0  0.06621  0.56083  0.33431  1.0000
  S   S173      1.0  0.01540  0.72959  0.59487  1.0000
  H   H821      1.0  0.01412  0.69022  0.43161  1.0000
  C   C673      1.0  0.06333  0.50138  0.42991  1.0000
  C   C674      1.0  0.05711  0.56258  0.32519  1.0000
  Fe  Fe86      1.0  0.02160  0.51276  0.39783  1.0000
  H   H822      1.0  0.05836  0.62119  0.59922  1.0000
  N   N41       1.0  0.04225  0.60143  0.61628  1.0000
  H   H823      1.0  0.01318  0.66919  0.61332  1.0000
  C   C675      1.0  0.04389  0.61905  0.60304  1.0000
  C   C676      1.0  0.04936  0.60147  0.63227  1.0000
  C   C677      1.0  0.02312  0.59836  0.62246  1.0000
  C   C678      1.0  0.00812  0.61009  0.61473  1.0000
  H   H824      1.0  0.09460  0.52486  0.64107  1.0000
  C   C679      1.0  0.00995  0.67088  0.41765  1.0000
  C   C680      1.0  0.10300  0.72437  0.32736  1.0000
  H   H825      1.0  0.01434  0.60581  0.35634  1.0000
  H   H826      1.0  0.08417  0.50731  0.40550  1.0000
  H   H827      1.0  0.06890  0.58848  0.60204  1.0000
  C   C681      1.0  0.03860  0.65196  0.40447  1.0000
  H   H828      1.0  0.04021  0.61963  0.58991  1.0000
  S   S174      1.0  0.00025  0.50325  0.39022  1.0000
  S   S175      1.0  0.08486  0.62687  0.33151  1.0000
  H   H829      1.0  0.03412  0.67770  0.37319  1.0000
  C   C682      1.0  0.11348  0.70729  0.33380  1.0000
  S   S176      1.0  0.10162  0.73321  0.54494  1.0000
  H   H830      1.0  0.99960  0.65191  0.40869  1.0000
  H   H831      1.0  0.01507  0.72127  0.56088  1.0000
  C   C683      1.0  0.00134  0.72821  0.56658  1.0000
  C   C684      1.0  0.02740  0.56026  0.32221  1.0000
  H   H832      1.0  0.05535  0.57289  0.61702  1.0000
  H   H833      1.0  0.00359  0.69035  0.57618  1.0000
  C   C685      1.0  0.06732  0.72046  0.36276  1.0000
  S   S177      1.0  0.08309  0.65988  0.36088  1.0000
  H   H834      1.0  0.00386  0.72152  0.38958  1.0000
  H   H835      1.0  0.00570  0.58596  0.34152  1.0000
  C   C686      1.0  0.05686  0.48779  0.44425  1.0000
  C   C687      1.0  0.00202  0.68181  0.61346  1.0000
  H   H836      1.0  0.01187  0.69007  0.38345  1.0000
  C   C688      1.0  0.00200  0.67098  0.56223  1.0000
  S   S178      1.0  0.04612  0.61706  0.33140  1.0000
  H   H837      1.0  0.10392  0.72811  0.49701  1.0000
  H   H838      1.0  0.12009  0.70555  0.34508  1.0000
  H   H839      1.0  0.99936  0.60650  0.41199  1.0000
  H   H840      1.0  0.10778  0.73614  0.46195  1.0000
  H   H841      1.0  0.01508  0.66673  0.38207  1.0000
  C   C689      1.0  0.99847  0.67831  0.57781  1.0000
  H   H842      1.0  0.00996  0.51685  0.65240  1.0000
  H   H843      1.0  0.00571  0.68963  0.49361  1.0000
  C   C690      1.0  0.99797  0.59985  0.34106  1.0000
  C   C691      1.0  0.11467  0.69226  0.32652  1.0000
  H   H844      1.0  0.99999  0.73080  0.48525  1.0000
  C   C692      1.0  0.00635  0.72858  0.41386  1.0000
  H   H845      1.0  0.03436  0.51314  0.64988  1.0000
  S   S179      1.0  0.00945  0.73436  0.44625  1.0000
  H   H846      1.0  0.02069  0.72944  0.40860  1.0000
  Fe  Fe87      1.0  0.07680  0.73443  0.42561  1.0000
  H   H847      1.0  0.01407  0.55675  0.32834  1.0000
  H   H848      1.0  0.08067  0.67309  0.32227  1.0000
  C   C693      1.0  0.04844  0.51406  0.32095  1.0000
  H   H849      1.0  0.99872  0.56726  0.65241  1.0000
  H   H850      1.0  0.25698  0.57132  0.89051  1.0000
  Fe  Fe88      1.0  0.18078  0.51806  0.93336  1.0000
  S   S180      1.0  0.18509  0.53710  0.90593  1.0000
  C   C694      1.0  0.00532  0.49595  0.84365  1.0000
  Fe  Fe89      1.0  0.15802  0.54820  0.95331  1.0000
  S   S181      1.0  0.15989  0.56998  0.92743  1.0000
  C   C695      1.0  0.12527  0.49927  0.69069  1.0000
  Fe  Fe90      1.0  0.15485  0.54948  0.91452  1.0000
  S   S182      1.0  0.13695  0.55808  0.89341  1.0000
  Fe  Fe91      1.0  0.18989  0.55574  0.92113  1.0000
  S   S183      1.0  0.21361  0.57039  0.90918  1.0000
  S   S184      1.0  0.15029  0.52895  0.94101  1.0000
  S   S185      1.0  0.18822  0.53538  0.94780  1.0000
  H   H851      1.0  0.16761  0.52194  0.88518  1.0000
  H   H852      1.0  0.12308  0.53590  0.65483  1.0000
  H   H853      1.0  0.09672  0.60600  0.91559  1.0000
  N   N42       1.0  0.00845  0.50632  0.75284  1.0000
  H   H854      1.0  0.34221  0.70484  0.89401  1.0000
  C   C696      1.0  0.02203  0.48929  0.67945  1.0000
  H   H855      1.0  0.20988  0.53583  0.97245  1.0000
  C   C697      1.0  0.18939  0.48894  0.89106  1.0000
  H   H856      1.0  0.01618  0.55211  0.69391  1.0000
  C   C698      1.0  0.26996  0.57463  0.88111  1.0000
  H   H857      1.0  0.44433  0.71787  0.90563  1.0000
  Fe  Fe92      1.0  0.34443  0.71134  0.96005  1.0000
  Fe  Fe93      1.0  0.27214  0.60677  0.95183  1.0000
  S   S186      1.0  0.29865  0.58786  0.95805  1.0000
  S   S187      1.0  0.24612  0.59576  0.96295  1.0000
  Fe  Fe94      1.0  0.29104  0.63809  0.93127  1.0000
  S   S188      1.0  0.31903  0.62149  0.93457  1.0000
  H   H858      1.0  0.25276  0.49447  0.90063  1.0000
  Fe  Fe95      1.0  0.31037  0.59887  0.92858  1.0000
  S   S189      1.0  0.33003  0.58182  0.90919  1.0000
  Fe  Fe96      1.0  0.30472  0.61232  0.96359  1.0000
  C   C699      1.0  0.22589  0.49229  0.91781  1.0000
  S   S190      1.0  0.28364  0.61651  0.92193  1.0000
  S   S191      1.0  0.27688  0.63012  0.96066  1.0000
  S   S192      1.0  0.35954  0.68469  0.97430  1.0000
  H   H859      1.0  0.02708  0.49859  0.81938  1.0000
  S   S193      1.0  0.08324  0.55925  0.72770  1.0000
  S   S194      1.0  0.04793  0.55234  0.70643  1.0000
  C   C700      1.0  0.07622  0.56169  0.75063  1.0000
  C   C701      1.0  0.06144  0.57567  0.75608  1.0000
  C   C702      1.0  0.06436  0.56379  0.78784  1.0000
  C   C703      1.0  0.02281  0.54655  0.79329  1.0000
  C   C704      1.0  0.29656  0.68088  0.92722  1.0000
  H   H860      1.0  0.05472  0.58576  0.74596  1.0000
  C   C705      1.0  0.07054  0.52724  0.66317  1.0000
  N   N43       1.0  0.02338  0.48856  0.66014  1.0000
  H   H861      1.0  0.39470  0.48986  0.96705  1.0000
  H   H862      1.0  0.11339  0.59934  0.92972  1.0000
  H   H863      1.0  0.99879  0.50585  0.72926  1.0000
  C   C706      1.0  0.44168  0.71145  0.96520  1.0000
  C   C707      1.0  0.00133  0.49982  0.81264  1.0000
  S   S195      1.0  0.06227  0.55043  0.65435  1.0000
  C   C708      1.0  0.08639  0.49432  0.72805  1.0000
  C   C709      1.0  0.25830  0.53685  0.95780  1.0000
  S   S196      1.0  0.05702  0.51355  0.81837  1.0000
  N   N44       1.0  0.09653  0.57972  0.93416  1.0000
  C   C710      1.0  0.42854  0.69869  0.92416  1.0000
  C   C711      1.0  0.06092  0.51813  0.67963  1.0000
  C   C712      1.0  0.01120  0.50764  0.73284  1.0000
  Fe  Fe97      1.0  0.02252  0.57462  0.70941  1.0000
  C   C713      1.0  0.11040  0.56497  0.94272  1.0000
  H   H864      1.0  0.30672  0.57181  0.86488  1.0000
  H   H865      1.0  0.30959  0.65833  0.94593  1.0000
  C   C714      1.0  0.44600  0.67244  0.94198  1.0000
  H   H866      1.0  0.30647  0.49444  0.90560  1.0000
  C   C715      1.0  0.00699  0.57594  0.80071  1.0000
  H   H867      1.0  0.17318  0.51276  0.86480  1.0000
  C   C716      1.0  0.10848  0.50547  0.73662  1.0000
  H   H868      1.0  0.19209  0.49906  0.89729  1.0000
  H   H869      1.0  0.31943  0.52621  0.98239  1.0000
  C   C717      1.0  0.26813  0.54781  0.96128  1.0000
  N   N45       1.0  0.10598  0.49588  0.72355  1.0000
  C   C718      1.0  0.34184  0.51962  0.92682  1.0000
  C   C719      1.0  0.35390  0.52843  0.91237  1.0000
  C   C720      1.0  0.35014  0.54752  0.90728  1.0000
  C   C721      1.0  0.33457  0.55796  0.91690  1.0000
  C   C722      1.0  0.32264  0.54920  0.93170  1.0000
  C   C723      1.0  0.32616  0.52997  0.93653  1.0000
  H   H870      1.0  0.36603  0.52048  0.90486  1.0000
  H   H871      1.0  0.35938  0.55421  0.89584  1.0000
  H   H872      1.0  0.31062  0.55717  0.93922  1.0000
  H   H873      1.0  0.31686  0.52320  0.94779  1.0000
  C   C724      1.0  0.12360  0.54378  0.89137  1.0000
  C   C725      1.0  0.11801  0.54662  0.87478  1.0000
  C   C726      1.0  0.10781  0.53514  0.87253  1.0000
  C   C727      1.0  0.10303  0.52079  0.88692  1.0000
  C   C728      1.0  0.10837  0.51815  0.90361  1.0000
  C   C729      1.0  0.11864  0.52957  0.90583  1.0000
  H   H874      1.0  0.12175  0.55762  0.86354  1.0000
  H   H875      1.0  0.10380  0.53730  0.85960  1.0000
  Fe  Fe98      1.0  0.37016  0.73320  0.96368  1.0000
  H   H876      1.0  0.12265  0.52739  0.91874  1.0000
  C   C730      1.0  0.22132  0.57854  0.92435  1.0000
  C   C731      1.0  0.21724  0.57170  0.94330  1.0000
  C   C732      1.0  0.22482  0.57722  0.95499  1.0000
  C   C733      1.0  0.23641  0.58971  0.94786  1.0000
  C   C734      1.0  0.23994  0.59711  0.92899  1.0000
  C   C735      1.0  0.23246  0.59148  0.91726  1.0000
  H   H877      1.0  0.20836  0.56208  0.94889  1.0000
  C   C736      1.0  0.00673  0.54867  0.82416  1.0000
  H   H878      1.0  0.24821  0.60733  0.92348  1.0000
  H   H879      1.0  0.23513  0.59735  0.90269  1.0000
  S   S197      1.0  0.01900  0.49449  0.85917  1.0000
  C   C737      1.0  0.21548  0.52125  0.97796  1.0000
  H   H880      1.0  0.38853  0.62955  0.95578  1.0000
  H   H881      1.0  0.00892  0.58235  0.78582  1.0000
  H   H882      1.0  0.07157  0.61802  0.65558  1.0000
  C   C738      1.0  0.10638  0.59404  0.92202  1.0000
  C   C739      1.0  0.24218  0.49662  0.97741  1.0000
  C   C740      1.0  0.08254  0.58799  0.94880  1.0000
  H   H883      1.0  0.36125  0.62322  0.92766  1.0000
  H   H884      1.0  0.10410  0.55450  0.95361  1.0000
  C   C741      1.0  0.01268  0.49815  0.82473  1.0000
  H   H885      1.0  0.10461  0.50714  0.91483  1.0000
  H   H886      1.0  0.04773  0.52513  0.68654  1.0000
  H   H887      1.0  0.05889  0.49105  0.65769  1.0000
  C   C742      1.0  0.10077  0.52459  0.69934  1.0000
  H   H888      1.0  0.44653  0.65964  0.95194  1.0000
  H   H889      1.0  0.28495  0.70606  0.91044  1.0000
  H   H890      1.0  0.23175  0.53156  0.94217  1.0000
  H   H891      1.0  0.27337  0.50969  0.90953  1.0000
  Fe  Fe99      1.0  0.38521  0.69440  0.95748  1.0000
  H   H892      1.0  0.02319  0.49702  0.72791  1.0000
  C   C743      1.0  0.12972  0.50990  0.67305  1.0000
  Fe  Fe100     1.0  0.06401  0.53546  0.82728  1.0000
  H   H893      1.0  0.37975  0.65313  0.95556  1.0000
  S   S198      1.0  0.38802  0.70867  0.97788  1.0000
  Fe  Fe101     1.0  0.04221  0.60414  0.68552  1.0000
  H   H894      1.0  0.00863  0.53326  0.67715  1.0000
  C   C744      1.0  0.08753  0.57817  0.90524  1.0000
  C   C745      1.0  0.44477  0.70528  0.91589  1.0000
  C   C746      1.0  0.04401  0.53212  0.75280  1.0000
  H   H895      1.0  0.09905  0.51921  0.73632  1.0000
  H   H896      1.0  0.07980  0.57479  0.88173  1.0000
  S   S199      1.0  0.03460  0.63411  0.67313  1.0000
  H   H897      1.0  0.11840  0.57030  0.94940  1.0000
  S   S200      1.0  0.06957  0.58435  0.68024  1.0000
  H   H898      1.0  0.41562  0.70614  0.92023  1.0000
  H   H899      1.0  0.09739  0.54887  0.67809  1.0000
  H   H900      1.0  0.08585  0.53966  0.79245  1.0000
  C   C747      1.0  0.03741  0.49684  0.76619  1.0000
  C   C748      1.0  0.46151  0.69574  0.92106  1.0000
  H   H901      1.0  0.26051  0.53593  0.94366  1.0000
  H   H902      1.0  0.02201  0.53216  0.79463  1.0000
  H   H903      1.0  0.32310  0.67780  0.95739  1.0000
  H   H904      1.0  0.00821  0.49691  0.68565  1.0000
  H   H905      1.0  0.03248  0.49598  0.68081  1.0000
  H   H906      1.0  0.01399  0.52104  0.72471  1.0000
  C   C749      1.0  0.24528  0.48793  0.91363  1.0000
  H   H907      1.0  0.04447  0.58786  0.77881  1.0000
  C   C750      1.0  0.27845  0.53695  0.90083  1.0000
  C   C751      1.0  0.28376  0.51788  0.90466  1.0000
  H   H908      1.0  0.26659  0.58979  0.87652  1.0000
  H   H909      1.0  0.34429  0.49676  0.97121  1.0000
  C   C752      1.0  0.05571  0.57689  0.77466  1.0000
  C   C753      1.0  0.15852  0.49207  0.90924  1.0000
  H   H910      1.0  0.03561  0.54613  0.79757  1.0000
  C   C754      1.0  0.16498  0.51161  0.87919  1.0000
  C   C755      1.0  0.00508  0.48784  0.76241  1.0000
  C   C756      1.0  0.08736  0.57199  0.92435  1.0000
  H   H911      1.0  0.07731  0.55220  0.94847  1.0000
  H   H912      1.0  0.06434  0.54948  0.89910  1.0000
  H   H913      1.0  0.17914  0.56093  0.97291  1.0000
  C   C757      1.0  0.09489  0.49988  0.66163  1.0000
  S   S201      1.0  0.32088  0.61152  0.98416  1.0000
  H   H914      1.0  0.43663  0.70954  0.95427  1.0000
  C   C758      1.0  0.00280  0.54864  0.69820  1.0000
  H   H915      1.0  0.21849  0.50231  0.90812  1.0000
  H   H916      1.0  0.35424  0.51072  0.97922  1.0000
  H   H917      1.0  0.28560  0.72035  0.97805  1.0000
  S   S202      1.0  0.29356  0.49503  0.94966  1.0000
  H   H918      1.0  0.38354  0.62893  0.91769  1.0000
  S   S203      1.0  0.19200  0.48784  0.93893  1.0000
  H   H919      1.0  0.29630  0.51188  0.97810  1.0000
  H   H920      1.0  0.34749  0.65104  0.96304  1.0000
  N   N46       1.0  0.28610  0.56822  0.89008  1.0000
  C   C759      1.0  0.28085  0.57446  0.90763  1.0000
  C   C760      1.0  0.30107  0.57723  0.87770  1.0000
  C   C761      1.0  0.29184  0.54801  0.89406  1.0000
  C   C762      1.0  0.31073  0.53874  0.89264  1.0000
  C   C763      1.0  0.31585  0.51965  0.89668  1.0000
  C   C764      1.0  0.30242  0.50925  0.90244  1.0000
  H   H921      1.0  0.26947  0.56837  0.91743  1.0000
  H   H922      1.0  0.27613  0.58958  0.90543  1.0000
  H   H923      1.0  0.29278  0.57062  0.91445  1.0000
  H   H924      1.0  0.31267  0.57552  0.88445  1.0000
  H   H925      1.0  0.32184  0.54593  0.88872  1.0000
  H   H926      1.0  0.33034  0.51286  0.89568  1.0000
  C   C765      1.0  0.07801  0.55764  0.93395  1.0000
  H   H927      1.0  0.42340  0.73526  0.93784  1.0000
  H   H928      1.0  0.09682  0.53829  0.75959  1.0000
  H   H929      1.0  0.02490  0.55326  0.77850  1.0000
  H   H930      1.0  0.06086  0.49293  0.69977  1.0000
  C   C766      1.0  0.30002  0.71080  0.92782  1.0000
  Fe  Fe102     1.0  0.05306  0.56624  0.67686  1.0000
  S   S204      1.0  0.02641  0.58705  0.67942  1.0000
  Fe  Fe103     1.0  0.06200  0.57221  0.71039  1.0000
  S   S205      1.0  0.37001  0.71976  0.94136  1.0000
  C   C767      1.0  0.31100  0.70295  0.94087  1.0000
  C   C768      1.0  0.05265  0.50124  0.76922  1.0000
  H   H931      1.0  0.15018  0.51597  0.87839  1.0000
  N   N47       1.0  0.16959  0.49278  0.89016  1.0000
  H   H932      1.0  0.06224  0.49094  0.77648  1.0000
  H   H933      1.0  0.36505  0.70438  0.91132  1.0000
  S   S206      1.0  0.05091  0.52697  0.85701  1.0000
  C   C769      1.0  0.05589  0.51879  0.76268  1.0000
  C   C770      1.0  0.11071  0.50642  0.70450  1.0000
  C   C771      1.0  0.06834  0.49988  0.68711  1.0000
  H   H934      1.0  0.25721  0.49216  0.97189  1.0000
  C   C772      1.0  0.02863  0.52800  0.74979  1.0000
  C   C773      1.0  0.07902  0.57028  0.89642  1.0000
  C   C774      1.0  0.29312  0.69982  0.92079  1.0000
  H   H935      1.0  0.44408  0.68294  0.97812  1.0000
  H   H936      1.0  0.35572  0.62671  0.96582  1.0000
  C   C775      1.0  0.46206  0.67942  0.93427  1.0000
  C   C776      1.0  0.10528  0.53506  0.68167  1.0000
  H   H937      1.0  0.29693  0.72549  0.92297  1.0000
  H   H938      1.0  0.14071  0.50412  0.66268  1.0000
  S   S207      1.0  0.48143  0.70471  0.91123  1.0000
  H   H939      1.0  0.22732  0.50915  0.94744  1.0000
  N   N48       1.0  0.00612  0.55642  0.80448  1.0000
  H   H940      1.0  0.01990  0.53878  0.74192  1.0000
  Fe  Fe104     1.0  0.07925  0.50965  0.85930  1.0000
  S   S208      1.0  0.09279  0.51998  0.83000  1.0000
  H   H941      1.0  0.27722  0.55497  0.95011  1.0000
  C   C777      1.0  0.24601  0.52761  0.97227  1.0000
  H   H942      1.0  0.45584  0.73071  0.92909  1.0000
  S   S209      1.0  0.34690  0.49565  0.93213  1.0000
  H   H943      1.0  0.22199  0.57162  0.96958  1.0000
  C   C778      1.0  0.44605  0.69603  0.97878  1.0000
  S   S210      1.0  0.40926  0.67331  0.94685  1.0000
  H   H944      1.0  0.06775  0.52199  0.76514  1.0000
  Fe  Fe105     1.0  0.04620  0.50360  0.84828  1.0000
  C   C779      1.0  0.35764  0.49915  0.97205  1.0000
  C   C780      1.0  0.06972  0.54973  0.92493  1.0000
  S   S211      1.0  0.31810  0.71778  0.94993  1.0000
  H   H945      1.0  0.00699  0.53379  0.82789  1.0000
  N   N49       1.0  0.36749  0.64243  0.93974  1.0000
  C   C781      1.0  0.35194  0.63954  0.95568  1.0000
  C   C782      1.0  0.37312  0.62647  0.93078  1.0000
  C   C783      1.0  0.38347  0.64282  0.94684  1.0000
  C   C784      1.0  0.36137  0.65947  0.92668  1.0000
  C   C785      1.0  0.36731  0.67588  0.92445  1.0000
  C   C786      1.0  0.34832  0.66030  0.91638  1.0000
  C   C787      1.0  0.36057  0.69195  0.91261  1.0000
  C   C788      1.0  0.34177  0.67640  0.90452  1.0000
  C   C789      1.0  0.34779  0.69223  0.90274  1.0000
  H   H946      1.0  0.33959  0.63851  0.95150  1.0000
  S   S212      1.0  0.09116  0.50536  0.88444  1.0000
  H   H947      1.0  0.25064  0.51152  0.94218  1.0000
  C   C790      1.0  0.45183  0.72959  0.98001  1.0000
  H   H948      1.0  0.47491  0.67201  0.93830  1.0000
  H   H949      1.0  0.06312  0.53844  0.93239  1.0000
  Fe  Fe106     1.0  0.08452  0.49708  0.82371  1.0000
  H   H950      1.0  0.09466  0.58866  0.89662  1.0000
  H   H951      1.0  0.39537  0.64596  0.93543  1.0000
  H   H952      1.0  0.37700  0.67676  0.93181  1.0000
  H   H953      1.0  0.34244  0.64874  0.91789  1.0000
  H   H954      1.0  0.07154  0.59879  0.94295  1.0000
  H   H955      1.0  0.33134  0.67679  0.89728  1.0000
  H   H956      1.0  0.08892  0.59431  0.95618  1.0000
  S   S213      1.0  0.05576  0.56392  0.81129  1.0000
  C   C791      1.0  0.02474  0.51027  0.75650  1.0000
  C   C792      1.0  0.30709  0.67293  0.94075  1.0000
  H   H957      1.0  0.29615  0.59232  0.87376  1.0000
  S   S214      1.0  0.28801  0.66768  0.91749  1.0000
  C   C793      1.0  0.31471  0.68394  0.94726  1.0000
  C   C794      1.0  0.42922  0.68214  0.93704  1.0000
  S   S215      1.0  0.14295  0.55275  0.98173  1.0000
  C   C795      1.0  0.07907  0.54979  0.78237  1.0000
  S   S216      1.0  0.03587  0.59347  0.71609  1.0000
  H   H958      1.0  0.26377  0.54285  0.90340  1.0000
  C   C796      1.0  0.99863  0.53771  0.68882  1.0000
  H   H959      1.0  0.01947  0.55013  0.82742  1.0000
  C   C797      1.0  0.08525  0.54900  0.76375  1.0000
  H   H960      1.0  0.27262  0.56856  0.86888  1.0000
  H   H961      1.0  0.20699  0.51287  0.97568  1.0000
  H   H962      1.0  0.04678  0.54573  0.74742  1.0000
  C   C798      1.0  0.23637  0.51717  0.94935  1.0000
  C   C799      1.0  0.11979  0.52778  0.66857  1.0000
  N   N50       1.0  0.23528  0.51595  0.96912  1.0000
  H   H963      1.0  0.36491  0.50408  0.95777  1.0000
  H   H964      1.0  0.08942  0.53089  0.70897  1.0000
  S   S217      1.0  0.49537  0.70696  0.95462  1.0000
  H   H965      1.0  0.37926  0.61375  0.93978  1.0000
  H   H966      1.0  0.10816  0.49295  0.65476  1.0000
  C   C800      1.0  0.08565  0.49094  0.67839  1.0000
  C   C801      1.0  0.07029  0.55600  0.90619  1.0000
  H   H967      1.0  0.07566  0.57772  0.95943  1.0000
  H   H968      1.0  0.13579  0.49291  0.88436  1.0000
  H   H969      1.0  0.12041  0.55785  0.93214  1.0000
  H   H970      1.0  0.11748  0.58854  0.91093  1.0000
  C   C802      1.0  0.44412  0.72880  0.96553  1.0000
  H   H971      1.0  0.30174  0.68846  0.98318  1.0000
  H   H972      1.0  0.07656  0.50782  0.72747  1.0000
  C   C803      1.0  0.26615  0.54984  0.97912  1.0000
  H   H973      1.0  0.01887  0.57765  0.80527  1.0000
  S   S218      1.0  0.34350  0.72657  0.98131  1.0000
  H   H974      1.0  0.00707  0.50187  0.79805  1.0000
  H   H975      1.0  0.10565  0.49770  0.75111  1.0000
  H   H976      1.0  0.12286  0.50762  0.73326  1.0000
  H   H977      1.0  0.08396  0.48758  0.71823  1.0000
  H   H978      1.0  0.00038  0.64499  0.69865  1.0000
  H   H979      1.0  0.19864  0.48968  0.87715  1.0000
  H   H980      1.0  0.16144  0.50169  0.91592  1.0000
  H   H981      1.0  0.27377  0.55840  0.98169  1.0000
  H   H982      1.0  0.14341  0.49574  0.90986  1.0000
  C   C804      1.0  0.08720  0.51790  0.65387  1.0000
  H   H983      1.0  0.23497  0.48733  0.97467  1.0000
  Fe  Fe107     1.0  0.44684  0.82557  0.12646  1.0000
  S   S219      1.0  0.46310  0.82317  0.09810  1.0000
  S   S220      1.0  0.42243  0.81247  0.14096  1.0000
  Fe  Fe108     1.0  0.46823  0.85225  0.12979  1.0000
  H   H984      1.0  0.41798  0.91853  0.28412  1.0000
  S   S221      1.0  0.46478  0.87034  0.14998  1.0000
  Fe  Fe109     1.0  0.46016  0.85332  0.09245  1.0000
  S   S222      1.0  0.44892  0.86952  0.06731  1.0000
  H   H985      1.0  0.42514  0.82930  0.09761  1.0000
  C   C805      1.0  0.45328  0.77321  0.05778  1.0000
  S   S223      1.0  0.44202  0.85606  0.12011  1.0000
  S   S224      1.0  0.47157  0.82162  0.13832  1.0000
  H   H986      1.0  0.43355  0.79051  0.02041  1.0000
  C   C806      1.0  0.33506  0.73745  0.05064  1.0000
  H   H987      1.0  0.40089  0.95607  0.29078  1.0000
  C   C807      1.0  0.45199  0.80562  0.04698  1.0000
  H   H988      1.0  0.46935  0.95107  0.25642  1.0000
  H   H989      1.0  0.47875  0.78687  0.11180  1.0000
  H   H990      1.0  0.49044  0.86691  0.21528  1.0000
  C   C808      1.0  0.35364  0.74085  0.02005  1.0000
  S   S225      1.0  0.40319  0.77035  0.09303  1.0000
  H   H991      1.0  0.48285  0.76461  0.14245  1.0000
  H   H992      1.0  0.46362  0.78929  0.06991  1.0000
  H   H993      1.0  0.48355  0.78957  0.01723  1.0000
  N   N51       1.0  0.44039  0.75608  0.04193  1.0000
  H   H994      1.0  0.47360  0.93045  0.14421  1.0000
  N   N52       1.0  0.33913  0.75080  0.03313  1.0000
  H   H995      1.0  0.36424  0.80704  0.03890  1.0000
  N   N53       1.0  0.40340  0.83873  0.08259  1.0000
  H   H996      1.0  0.39053  0.86231  0.02354  1.0000
  H   H997      1.0  0.44005  0.81845  0.02337  1.0000
  C   C809      1.0  0.44467  0.77288  0.04378  1.0000
  H   H998      1.0  0.41904  0.73745  0.13599  1.0000
  H   H999      1.0  0.41244  0.76266  0.05726  1.0000
  H   H1000     1.0  0.44705  0.73925  0.02200  1.0000
  S   S226      1.0  0.45309  0.94966  0.22740  1.0000
  C   C810      1.0  0.46705  0.74607  0.14132  1.0000
  C   C811      1.0  0.41846  0.79701  0.13030  1.0000
  C   C812      1.0  0.40113  0.79234  0.13524  1.0000
  C   C813      1.0  0.39688  0.78215  0.12502  1.0000
  C   C814      1.0  0.41001  0.77662  0.10991  1.0000
  C   C815      1.0  0.42776  0.77999  0.10603  1.0000
  C   C816      1.0  0.43204  0.79005  0.11626  1.0000
  H   H1001     1.0  0.39065  0.79748  0.14630  1.0000
  H   H1002     1.0  0.38303  0.77980  0.12796  1.0000
  H   H1003     1.0  0.43795  0.77561  0.09451  1.0000
  H   H1004     1.0  0.44562  0.79299  0.11285  1.0000
  C   C817      1.0  0.45634  0.85901  0.04822  1.0000
  H   H1005     1.0  0.42563  0.77590  0.16904  1.0000
  C   C818      1.0  0.43725  0.76731  0.16153  1.0000
  C   C819      1.0  0.46782  0.84290  0.01717  1.0000
  C   C820      1.0  0.45002  0.85383  0.02100  1.0000
  C   C821      1.0  0.44444  0.86214  0.03627  1.0000
  H   H1006     1.0  0.47009  0.87371  0.24380  1.0000
  H   H1007     1.0  0.49353  0.83143  0.02624  1.0000
  H   H1008     1.0  0.44057  0.85604  0.01217  1.0000
  H   H1009     1.0  0.43081  0.87085  0.03896  1.0000
  H   H1010     1.0  0.35747  0.78281  0.06644  1.0000
  H   H1011     1.0  0.44350  0.89183  0.00221  1.0000
  C   C822      1.0  0.48127  0.87705  0.15761  1.0000
  H   H1012     1.0  0.48760  0.96525  0.11464  1.0000
  C   C823      1.0  0.35507  0.78224  0.05342  1.0000
  H   H1013     1.0  0.42058  0.75056  0.15987  1.0000
  H   H1014     1.0  0.48969  0.78013  0.98765  1.0000
  C   C824      1.0  0.39374  0.83320  0.03201  1.0000
  H   H1015     1.0  0.46011  0.89211  0.17611  1.0000
  S   S227      1.0  0.48957  0.73815  0.07894  1.0000
  C   C825      1.0  0.40013  0.83716  0.06511  1.0000
  C   C826      1.0  0.42908  0.92579  0.27811  1.0000
  C   C827      1.0  0.49212  0.87382  0.25695  1.0000
  H   H1016     1.0  0.31099  0.76595  0.03486  1.0000
  C   C828      1.0  0.46946  0.76101  0.14652  1.0000
  H   H1017     1.0  0.40406  0.80737  0.07210  1.0000
  H   H1018     1.0  0.44498  0.76303  0.01222  1.0000
  C   C829      1.0  0.47483  0.88820  0.17070  1.0000
  H   H1019     1.0  0.45728  0.76119  0.06789  1.0000
  C   C830      1.0  0.39753  0.81788  0.04577  1.0000
  C   C831      1.0  0.34838  0.76769  0.05219  1.0000
  C   C832      1.0  0.48345  0.86290  0.28976  1.0000
  H   H1020     1.0  0.39882  0.76179  0.00867  1.0000
  C   C833      1.0  0.48335  0.76585  0.09675  1.0000
  C   C834      1.0  0.49619  0.75523  0.08498  1.0000
  C   C835      1.0  0.44982  0.75204  0.02353  1.0000
  H   H1021     1.0  0.45467  0.81807  0.04836  1.0000
  S   S228      1.0  0.43512  0.91816  0.31273  1.0000
  C   C836      1.0  0.44766  0.94180  0.25125  1.0000
  H   H1022     1.0  0.35590  0.74930  0.00589  1.0000
  H   H1023     1.0  0.45630  0.78357  0.16013  1.0000
  C   C837      1.0  0.40110  0.85787  0.08427  1.0000
  C   C838      1.0  0.49746  0.76347  0.03077  1.0000
  H   H1024     1.0  0.42477  0.93130  0.25053  1.0000
  C   C839      1.0  0.39330  0.85046  0.03441  1.0000
  C   C840      1.0  0.39643  0.85252  0.05069  1.0000
  C   C841      1.0  0.43290  0.93299  0.25916  1.0000
  C   C842      1.0  0.32197  0.75762  0.02584  1.0000
  H   H1025     1.0  0.40368  0.85841  0.09762  1.0000
  Fe  Fe110     1.0  0.39512  0.74334  0.09959  1.0000
  H   H1026     1.0  0.38685  0.86596  0.08353  1.0000
  H   H1027     1.0  0.46506  0.75033  0.02129  1.0000
  H   H1028     1.0  0.39236  0.81533  0.09929  1.0000
  H   H1029     1.0  0.39818  0.80442  0.04373  1.0000
  H   H1030     1.0  0.48248  0.95675  0.13908  1.0000
  C   C843      1.0  0.47393  0.84769  0.04470  1.0000
  H   H1031     1.0  0.48486  0.90616  0.26580  1.0000
  C   C844      1.0  0.45694  0.78936  0.05920  1.0000
  H   H1032     1.0  0.41128  0.86486  0.07347  1.0000
  C   C845      1.0  0.45816  0.94399  0.26243  1.0000
  C   C846      1.0  0.44370  0.80578  0.03300  1.0000
  H   H1033     1.0  0.42545  0.81452  0.08335  1.0000
  S   S229      1.0  0.40368  0.79877  0.00292  1.0000
  C   C847      1.0  0.35886  0.79590  0.03798  1.0000
  C   C848      1.0  0.45396  0.93731  0.28148  1.0000
  C   C849      1.0  0.44009  0.78969  0.03138  1.0000
  C   C850      1.0  0.48724  0.89449  0.17673  1.0000
  H   H1034     1.0  0.46210  0.93903  0.29007  1.0000
  H   H1035     1.0  0.45509  0.87213  0.27337  1.0000
  C   C851      1.0  0.40082  0.81975  0.06201  1.0000
  C   C852      1.0  0.43962  0.92792  0.28925  1.0000
  Fe  Fe111     1.0  0.48758  0.82153  0.10927  1.0000
  H   H1036     1.0  0.37571  0.83662  0.09744  1.0000
  H   H1037     1.0  0.47507  0.87937  0.99347  1.0000
  H   H1038     1.0  0.39130  0.83165  0.01939  1.0000
  C   C853      1.0  0.42253  0.82909  0.08419  1.0000
  C   C854      1.0  0.34957  0.78048  0.01975  1.0000
  H   H1039     1.0  0.47470  0.86595  0.30314  1.0000
  H   H1040     1.0  0.39223  0.83145  0.11179  1.0000
  C   C855      1.0  0.39033  0.83021  0.09840  1.0000
  H   H1041     1.0  0.39593  0.86625  0.05162  1.0000
  H   H1042     1.0  0.43287  0.83557  0.07310  1.0000
  C   C856      1.0  0.47978  0.83996  0.02902  1.0000
  H   H1043     1.0  0.34576  0.75761  0.06474  1.0000
  H   H1044     1.0  0.32390  0.74386  0.06109  1.0000
  C   C857      1.0  0.45457  0.77166  0.15652  1.0000
  H   H1045     1.0  0.48206  0.90312  0.18673  1.0000
  C   C858      1.0  0.48475  0.87176  0.24276  1.0000
  H   H1046     1.0  0.41479  0.76966  0.03287  1.0000
  C   C859      1.0  0.34553  0.76632  0.03520  1.0000
  C   C860      1.0  0.47582  0.90664  0.11273  1.0000
  C   C861      1.0  0.44937  0.74177  0.14544  1.0000
  H   H1047     1.0  0.42244  0.97188  0.26668  1.0000
  Fe  Fe112     1.0  0.48383  0.94213  0.21771  1.0000
  H   H1048     1.0  0.45712  0.89557  0.26296  1.0000
  H   H1049     1.0  0.46949  0.76349  0.10207  1.0000
  C   C862      1.0  0.48849  0.77930  0.10204  1.0000
  C   C863      1.0  0.46021  0.88378  0.27444  1.0000
  H   H1050     1.0  0.47540  0.89959  0.28997  1.0000
  C   C864      1.0  0.47898  0.92542  0.13161  1.0000
  H   H1051     1.0  0.49776  0.90297  0.08914  1.0000
  H   H1052     1.0  0.48021  0.85064  0.28758  1.0000
  H   H1053     1.0  0.34822  0.78016  0.00628  1.0000
  C   C865      1.0  0.39561  0.78816  0.99014  1.0000
  C   C866      1.0  0.43453  0.75272  0.15599  1.0000
  H   H1054     1.0  0.47911  0.73806  0.13381  1.0000
  H   H1055     1.0  0.32428  0.76623  0.01175  1.0000
  H   H1056     1.0  0.45648  0.91171  0.13760  1.0000
  C   C867      1.0  0.49451  0.77045  0.99927  1.0000
  S   S230      1.0  0.38355  0.73839  0.07825  1.0000
  H   H1057     1.0  0.31647  0.74614  0.02486  1.0000
  C   C868      1.0  0.35597  0.79509  0.02123  1.0000
  C   C869      1.0  0.49584  0.92893  0.11965  1.0000
  N   N54       1.0  0.48032  0.87870  0.27437  1.0000
  H   H1058     1.0  0.48320  0.84518  0.05387  1.0000
  H   H1059     1.0  0.35926  0.80558  0.00915  1.0000
  C   C870      1.0  0.39452  0.76970  0.99614  1.0000
  H   H1060     1.0  0.45175  0.88805  0.28741  1.0000
  C   C871      1.0  0.48512  0.89452  0.27790  1.0000
  S   S231      1.0  0.48623  0.85198  0.10127  1.0000
  C   C872      1.0  0.49242  0.90958  0.10080  1.0000
  C   C873      1.0  0.42013  0.75877  0.04395  1.0000
  H   H1061     1.0  0.41627  0.74610  0.04351  1.0000
  S   S232      1.0  0.47830  0.98352  0.31921  1.0000
  H   H1062     1.0  0.46842  0.89765  0.11050  1.0000
  S   S233      1.0  0.47558  0.83268  0.99783  1.0000
  C   C874      1.0  0.46906  0.91466  0.12800  1.0000
  C   C875      1.0  0.36616  0.96471  0.31713  1.0000
  H   H1063     1.0  0.44848  0.74030  0.11140  1.0000
  H   H1064     1.0  0.49292  0.96600  0.26778  1.0000
  C   C876      1.0  0.49392  0.95815  0.12673  1.0000
  H   H1065     1.0  0.49480  0.76765  0.04373  1.0000
  H   H1066     1.0  0.48998  0.98347  0.28018  1.0000
  C   C877      1.0  0.44632  0.73969  0.05587  1.0000
  H   H1067     1.0  0.37023  0.95736  0.30563  1.0000
  C   C878      1.0  0.41606  0.97701  0.27920  1.0000
  C   C879      1.0  0.44341  0.90233  0.98919  1.0000
  H   H1068     1.0  0.43922  0.74167  0.07003  1.0000
  H   H1069     1.0  0.44469  0.91523  0.99193  1.0000
  H   H1070     1.0  0.35913  0.97900  0.31190  1.0000
  C   C880      1.0  0.49104  0.77579  0.01592  1.0000
  C   C881      1.0  0.40366  0.96806  0.29311  1.0000
  H   H1071     1.0  0.08528  0.73980  0.30886  1.0000
  C   C882      1.0  0.39523  0.97429  0.30976  1.0000
  S   S234      1.0  0.42502  0.84402  0.98856  1.0000
  H   H1072     1.0  0.38777  0.74700  0.99006  1.0000
  C   C883      1.0  0.49632  0.86775  0.22623  1.0000
  H   H1073     1.0  0.42948  0.90466  0.98625  1.0000
  S   S235      1.0  0.49760  0.91258  0.22369  1.0000
  H   H1074     1.0  0.39608  0.93743  0.31888  1.0000
  C   C884      1.0  0.33535  0.94407  0.65169  1.0000
  S   S236      1.0  0.45791  0.95396  0.36135  1.0000
  C   C885      1.0  0.41396  0.91268  0.43349  1.0000
  C   C886      1.0  0.22756  0.98526  0.52243  1.0000
  S   S237      1.0  0.43765  0.92293  0.35960  1.0000
  C   C887      1.0  0.27310  0.88381  0.51631  1.0000
  Fe  Fe113     1.0  0.42998  0.95293  0.35907  1.0000
  C   C888      1.0  0.03073  0.78930  0.54558  1.0000
  H   H1075     1.0  0.08742  0.96968  0.50644  1.0000
  Fe  Fe114     1.0  0.08279  0.83278  0.48922  1.0000
  S   S238      1.0  0.09522  0.83563  0.51123  1.0000
  S   S239      1.0  0.09839  0.81620  0.46770  1.0000
  Fe  Fe115     1.0  0.04524  0.85596  0.50272  1.0000
  S   S240      1.0  0.05413  0.86138  0.52587  1.0000
  S   S241      1.0  0.01674  0.86774  0.49624  1.0000
  Fe  Fe116     1.0  0.08078  0.86521  0.50563  1.0000
  S   S242      1.0  0.09569  0.88810  0.50153  1.0000
  Fe  Fe117     1.0  0.06798  0.83157  0.52991  1.0000
  S   S243      1.0  0.06405  0.81284  0.55765  1.0000
  S   S244      1.0  0.07053  0.86271  0.48188  1.0000
  S   S245      1.0  0.05698  0.82589  0.50853  1.0000
  C   C889      1.0  0.02028  0.88546  0.42489  1.0000
  Fe  Fe118     1.0  0.05515  0.77362  0.41662  1.0000
  H   H1076     1.0  0.00640  0.79271  0.58884  1.0000
  S   S246      1.0  0.04784  0.80165  0.42308  1.0000
  H   H1077     1.0  0.21094  0.95320  0.64429  1.0000
  H   H1078     1.0  0.02834  0.85099  0.46147  1.0000
  S   S247      1.0  0.43578  0.96139  0.32846  1.0000
  S   S248      1.0  0.03558  0.76546  0.40505  1.0000
  Fe  Fe119     1.0  0.15705  0.91269  0.55559  1.0000
  S   S249      1.0  0.15657  0.93306  0.57183  1.0000
  S   S250      1.0  0.13391  0.89771  0.56071  1.0000
  Fe  Fe120     1.0  0.19695  0.91255  0.53600  1.0000
  S   S251      1.0  0.20051  0.93246  0.55036  1.0000
  S   S252      1.0  0.21999  0.90025  0.51506  1.0000
  Fe  Fe121     1.0  0.18480  0.91683  0.57559  1.0000
  S   S253      1.0  0.19118  0.90914  0.60373  1.0000
  Fe  Fe122     1.0  0.17230  0.94740  0.54549  1.0000
  S   S254      1.0  0.06189  0.74376  0.36341  1.0000
  S   S255      1.0  0.18409  0.89517  0.56175  1.0000
  S   S256      1.0  0.17001  0.92879  0.52875  1.0000
  C   C890      1.0  0.07749  0.76382  0.47221  1.0000
  S   S257      1.0  0.08090  0.75750  0.40111  1.0000
  Fe  Fe123     1.0  0.32129  0.94327  0.43519  1.0000
  H   H1079     1.0  0.01346  0.75094  0.52890  1.0000
  S   S258      1.0  0.33899  0.92862  0.41293  1.0000
  Fe  Fe124     1.0  0.31363  0.94366  0.47558  1.0000
  C   C891      1.0  0.09252  0.75497  0.54999  1.0000
  S   S259      1.0  0.31769  0.92825  0.50362  1.0000
  Fe  Fe125     1.0  0.28284  0.95914  0.45487  1.0000
  H   H1080     1.0  0.07458  0.94969  0.50073  1.0000
  H   H1081     1.0  0.25463  0.98023  0.55251  1.0000
  H   H1082     1.0  0.99894  0.79179  0.43666  1.0000
  S   S260      1.0  0.30147  0.93137  0.45978  1.0000
  S   S261      1.0  0.33537  0.95291  0.45159  1.0000
  C   C892      1.0  0.30334  0.96722  0.54270  1.0000
  S   S262      1.0  0.33468  0.94343  0.62924  1.0000
  C   C893      1.0  0.31531  0.96107  0.51194  1.0000
  C   C894      1.0  0.31267  0.94318  0.51861  1.0000
  C   C895      1.0  0.30548  0.93729  0.53735  1.0000
  C   C896      1.0  0.30059  0.94937  0.54933  1.0000
  H   H1083     1.0  0.35575  0.95799  0.32793  1.0000
  H   H1084     1.0  0.32106  0.96564  0.49752  1.0000
  H   H1085     1.0  0.30341  0.92349  0.54261  1.0000
  H   H1086     1.0  0.29456  0.94489  0.56366  1.0000
  H   H1087     1.0  0.45885  0.95662  0.61512  1.0000
  H   H1088     1.0  0.45486  0.96734  0.41351  1.0000
  C   C897      1.0  0.22848  0.91838  0.49910  1.0000
  C   C898      1.0  0.21938  0.93644  0.50009  1.0000
  C   C899      1.0  0.22650  0.95098  0.48781  1.0000
  C   C900      1.0  0.24291  0.94748  0.47472  1.0000
  C   C901      1.0  0.25200  0.92943  0.47366  1.0000
  C   C902      1.0  0.24467  0.91488  0.48572  1.0000
  H   H1089     1.0  0.20672  0.93931  0.51016  1.0000
  C   C903      1.0  0.17379  0.95798  0.61232  1.0000
  H   H1090     1.0  0.26437  0.92671  0.46318  1.0000
  H   H1091     1.0  0.25153  0.90096  0.48462  1.0000
  C   C904      1.0  0.21124  0.91205  0.60838  1.0000
  C   C905      1.0  0.22210  0.92414  0.59652  1.0000
  C   C906      1.0  0.23852  0.92510  0.60079  1.0000
  C   C907      1.0  0.24413  0.91371  0.61667  1.0000
  C   C908      1.0  0.23299  0.90206  0.62855  1.0000
  C   C909      1.0  0.21651  0.90147  0.62458  1.0000
  H   H1092     1.0  0.21799  0.93247  0.58405  1.0000
  C   C910      1.0  0.07713  0.75789  0.56435  1.0000
  C   C911      1.0  0.37509  0.97239  0.34103  1.0000
  H   H1093     1.0  0.18718  0.96550  0.56477  1.0000
  C   C912      1.0  0.10765  0.88919  0.51767  1.0000
  C   C913      1.0  0.10477  0.87898  0.53569  1.0000
  C   C914      1.0  0.11325  0.88147  0.54860  1.0000
  C   C915      1.0  0.12469  0.89410  0.54364  1.0000
  C   C916      1.0  0.12780  0.90410  0.52554  1.0000
  C   C917      1.0  0.11943  0.90154  0.51261  1.0000
  H   H1094     1.0  0.09574  0.86944  0.53978  1.0000
  H   H1095     1.0  0.11076  0.87369  0.56258  1.0000
  H   H1096     1.0  0.13628  0.91413  0.52161  1.0000
  H   H1097     1.0  0.12174  0.90949  0.49869  1.0000
  C   C918      1.0  0.08415  0.81161  0.45584  1.0000
  C   C919      1.0  0.06506  0.81888  0.45925  1.0000
  C   C920      1.0  0.05396  0.81541  0.44940  1.0000
  C   C921      1.0  0.06184  0.80459  0.43619  1.0000
  C   C922      1.0  0.08086  0.79703  0.43298  1.0000
  C   C923      1.0  0.09202  0.80073  0.44263  1.0000
  H   H1098     1.0  0.05890  0.82738  0.46929  1.0000
  H   H1099     1.0  0.03924  0.82105  0.45203  1.0000
  H   H1100     1.0  0.08703  0.78877  0.42269  1.0000
  H   H1101     1.0  0.10679  0.79532  0.43969  1.0000
  C   C924      1.0  0.07596  0.79052  0.55559  1.0000
  H   H1102     1.0  0.31241  0.91751  0.63969  1.0000
  C   C925      1.0  0.06923  0.77560  0.56750  1.0000
  H   H1103     1.0  0.09699  0.79893  0.53237  1.0000
  H   H1104     1.0  0.05773  0.77774  0.57893  1.0000
  H   H1105     1.0  0.04025  0.79816  0.54458  1.0000
  C   C926      1.0  0.37994  0.91877  0.44060  1.0000
  H   H1106     1.0  0.02043  0.82804  0.50700  1.0000
  C   C927      1.0  0.38636  0.95769  0.38487  1.0000
  C   C928      1.0  0.38711  0.94077  0.38126  1.0000
  C   C929      1.0  0.37217  0.93211  0.38923  1.0000
  C   C930      1.0  0.35653  0.94040  0.40081  1.0000
  C   C931      1.0  0.35542  0.95776  0.40353  1.0000
  H   H1107     1.0  0.11858  0.77853  0.46666  1.0000
  H   H1108     1.0  0.39926  0.93417  0.37265  1.0000
  H   H1109     1.0  0.37295  0.91875  0.38698  1.0000
  H   H1110     1.0  0.34313  0.96452  0.41191  1.0000
  H   H1111     1.0  0.39648  0.91791  0.41383  1.0000
  S   S263      1.0  0.05298  0.75149  0.44169  1.0000
  H   H1112     1.0  0.03893  0.77499  0.54846  1.0000
  S   S264      1.0  0.27997  0.94671  0.63914  1.0000
  H   H1113     1.0  0.04161  0.89561  0.44113  1.0000
  S   S265      1.0  0.29576  0.98048  0.60810  1.0000
  N   N55       1.0  0.03130  0.87348  0.43841  1.0000
  C   C932      1.0  0.00173  0.84447  0.54716  1.0000
  H   H1114     1.0  0.11287  0.75798  0.44946  1.0000
  H   H1115     1.0  0.23722  0.89323  0.64080  1.0000
  C   C933      1.0  0.02026  0.75510  0.49947  1.0000
  H   H1116     1.0  0.06434  0.93047  0.51145  1.0000
  C   C934      1.0  0.26932  0.89229  0.54538  1.0000
  C   C935      1.0  0.24970  0.89524  0.55060  1.0000
  C   C936      1.0  0.24055  0.89202  0.56906  1.0000
  C   C937      1.0  0.26976  0.88387  0.57829  1.0000
  C   C938      1.0  0.25059  0.88613  0.58285  1.0000
  H   H1117     1.0  0.28033  0.91742  0.50200  1.0000
  H   H1118     1.0  0.22554  0.89422  0.57278  1.0000
  H   H1119     1.0  0.27737  0.87989  0.58919  1.0000
  H   H1120     1.0  0.24345  0.88363  0.59715  1.0000
  H   H1121     1.0  0.25807  0.88770  0.51649  1.0000
  H   H1122     1.0  0.39516  0.98424  0.43238  1.0000
  H   H1123     1.0  0.21935  0.96492  0.48856  1.0000
  C   C939      1.0  0.00337  0.77826  0.56166  1.0000
  H   H1124     1.0  0.04041  0.87700  0.46104  1.0000
  C   C940      1.0  0.00678  0.83427  0.50445  1.0000
  C   C941      1.0  0.08299  0.85301  0.42361  1.0000
  H   H1125     1.0  0.04392  0.95051  0.53420  1.0000
  C   C942      1.0  0.31953  0.90298  0.63999  1.0000
  H   H1126     1.0  0.47372  0.93968  0.40174  1.0000
  C   C943      1.0  0.01884  0.78968  0.57780  1.0000
  C   C944      1.0  0.04943  0.85323  0.41610  1.0000
  H   H1127     1.0  0.00707  0.86689  0.45842  1.0000
  H   H1128     1.0  0.14011  0.82797  0.55765  1.0000
  S   S266      1.0  0.25196  0.96580  0.45992  1.0000
  H   H1129     1.0  0.44577  0.92734  0.39599  1.0000
  C   C945      1.0  0.27911  0.88681  0.55985  1.0000
  C   C946      1.0  0.37943  0.91743  0.45904  1.0000
  C   C947      1.0  0.15517  0.85931  0.51060  1.0000
  H   H1130     1.0  0.02624  0.77530  0.58229  1.0000
  S   S267      1.0  0.26188  0.96564  0.60231  1.0000
  H   H1131     1.0  0.99918  0.77943  0.54864  1.0000
  H   H1132     1.0  0.11289  0.74122  0.50685  1.0000
  H   H1133     1.0  0.38659  0.97242  0.34717  1.0000
  C   C948      1.0  0.06603  0.84333  0.40728  1.0000
  H   H1134     1.0  0.06775  0.87021  0.44205  1.0000
  S   S268      1.0  0.16643  0.97790  0.53565  1.0000
  C   C949      1.0  0.41869  0.97399  0.64235  1.0000
  Fe  Fe126     1.0  0.06093  0.74727  0.39167  1.0000
  H   H1135     1.0  0.08147  0.75814  0.46003  1.0000
  C   C950      1.0  0.25801  0.96690  0.52290  1.0000
  H   H1136     1.0  0.04996  0.77519  0.46740  1.0000
  N   N56       1.0  0.24514  0.98388  0.52776  1.0000
  H   H1137     1.0  0.11230  0.76744  0.52816  1.0000
  C   C951      1.0  0.09019  0.76225  0.48321  1.0000
  C   C952      1.0  0.08276  0.84314  0.41110  1.0000
  H   H1138     1.0  0.11403  0.98086  0.50690  1.0000
  H   H1139     1.0  0.20812  0.89222  0.63384  1.0000
  C   C953      1.0  0.18603  0.98004  0.55981  1.0000
  C   C954      1.0  0.12046  0.96094  0.53078  1.0000
  H   H1140     1.0  0.11981  0.77035  0.49025  1.0000
  S   S269      1.0  0.48162  0.90511  0.37957  1.0000
  C   C955      1.0  0.11020  0.96923  0.51726  1.0000
  C   C956      1.0  0.11393  0.73707  0.49386  1.0000
  H   H1141     1.0  0.09549  0.83481  0.40485  1.0000
  H   H1142     1.0  0.01572  0.87756  0.41755  1.0000
  C   C957      1.0  0.18793  0.95984  0.61942  1.0000
  C   C958      1.0  0.46774  0.96798  0.40349  1.0000
  N   N57       1.0  0.07355  0.94079  0.53009  1.0000
  C   C959      1.0  0.07106  0.92370  0.54388  1.0000
  C   C960      1.0  0.05655  0.95504  0.53397  1.0000
  C   C961      1.0  0.07539  0.93711  0.51169  1.0000
  C   C962      1.0  0.08981  0.94735  0.53042  1.0000
  C   C963      1.0  0.09505  0.96264  0.51708  1.0000
  C   C964      1.0  0.10047  0.93935  0.54414  1.0000
  N   N58       1.0  0.38228  0.96440  0.32434  1.0000
  C   C965      1.0  0.11556  0.94608  0.54419  1.0000
  H   H1143     1.0  0.22924  0.96519  0.63771  1.0000
  H   H1144     1.0  0.05682  0.96796  0.52345  1.0000
  H   H1145     1.0  0.36622  0.91922  0.46877  1.0000
  H   H1146     1.0  0.08357  0.91256  0.54189  1.0000
  C   C966      1.0  0.47844  0.92327  0.64326  1.0000
  C   C967      1.0  0.11546  0.74653  0.46134  1.0000
  N   N59       1.0  0.01363  0.79247  0.55998  1.0000
  H   H1147     1.0  0.25175  0.95473  0.52917  1.0000
  H   H1148     1.0  0.02535  0.82443  0.55367  1.0000
  H   H1149     1.0  0.05486  0.95841  0.54755  1.0000
  H   H1150     1.0  0.12357  0.93957  0.55468  1.0000
  H   H1151     1.0  0.09773  0.92766  0.55490  1.0000
  H   H1152     1.0  0.01989  0.89268  0.45652  1.0000
  C   C968      1.0  0.12180  0.76590  0.47720  1.0000
  H   H1153     1.0  0.02366  0.76070  0.47063  1.0000
  H   H1154     1.0  0.44904  0.91608  0.43453  1.0000
  H   H1155     1.0  0.15833  0.86842  0.49747  1.0000
  H   H1156     1.0  0.30465  0.89855  0.52848  1.0000
  H   H1157     1.0  0.42514  0.90863  0.45798  1.0000
  H   H1158     1.0  0.42244  0.90014  0.40118  1.0000
  H   H1159     1.0  0.12353  0.83315  0.53290  1.0000
  C   C969      1.0  0.05913  0.77339  0.47647  1.0000
  Fe  Fe127     1.0  0.31389  0.97875  0.44684  1.0000
  N   N60       1.0  0.43168  0.91061  0.41972  1.0000
  N   N61       1.0  0.27870  0.89512  0.52568  1.0000
  H   H1160     1.0  0.06811  0.92570  0.55821  1.0000
  C   C970      1.0  0.16110  0.97333  0.60580  1.0000
  H   H1161     1.0  0.06580  0.83497  0.39816  1.0000
  C   C971      1.0  0.27333  0.91465  0.51682  1.0000
  S   S270      1.0  0.40535  0.96815  0.37648  1.0000
  N   N62       1.0  0.18100  0.86539  0.52075  1.0000
  C   C972      1.0  0.19472  0.86088  0.50402  1.0000
  C   C973      1.0  0.16528  0.85641  0.52439  1.0000
  C   C974      1.0  0.15937  0.84488  0.54154  1.0000
  C   C975      1.0  0.14455  0.83655  0.54442  1.0000
  C   C976      1.0  0.13518  0.83943  0.53047  1.0000
  H   H1162     1.0  0.19679  0.84488  0.53891  1.0000
  H   H1163     1.0  0.20269  0.86683  0.53285  1.0000
  H   H1164     1.0  0.20717  0.86667  0.50154  1.0000
  H   H1165     1.0  0.18907  0.86659  0.49139  1.0000
  H   H1166     1.0  0.19944  0.84581  0.50528  1.0000
  H   H1167     1.0  0.16662  0.89090  0.50629  1.0000
  H   H1168     1.0  0.16440  0.88944  0.53030  1.0000
  H   H1169     1.0  0.16576  0.84222  0.55308  1.0000
  C   C977      1.0  0.08308  0.76994  0.49905  1.0000
  H   H1170     1.0  0.39539  0.91278  0.47934  1.0000
  H   H1171     1.0  0.36709  0.92158  0.43601  1.0000
  C   C978      1.0  0.19095  0.85987  0.53604  1.0000
  C   C979      1.0  0.17410  0.88547  0.51772  1.0000
  H   H1172     1.0  0.07146  0.74647  0.57315  1.0000
  H   H1173     1.0  0.13223  0.96605  0.53091  1.0000
  H   H1174     1.0  0.13678  0.75963  0.47330  1.0000
  C   C980      1.0  0.31087  0.97301  0.52404  1.0000
  H   H1175     1.0  0.18167  0.86375  0.54887  1.0000
  Fe  Fe128     1.0  0.27605  0.93788  0.61536  1.0000
  H   H1176     1.0  0.24125  0.90004  0.54043  1.0000
  C   C981      1.0  0.14043  0.85083  0.51361  1.0000
  H   H1177     1.0  0.18559  0.89276  0.51430  1.0000
  H   H1178     1.0  0.01523  0.79003  0.45010  1.0000
  H   H1179     1.0  0.15044  0.97180  0.59994  1.0000
  C   C982      1.0  0.09150  0.78754  0.54141  1.0000
  C   C983      1.0  0.29923  0.89006  0.52257  1.0000
  H   H1180     1.0  0.43136  0.88310  0.41937  1.0000
  H   H1181     1.0  0.27095  0.96381  0.52805  1.0000
  H   H1182     1.0  0.22209  0.97256  0.52843  1.0000
  H   H1183     1.0  0.13265  0.85355  0.50301  1.0000
  H   H1184     1.0  0.02736  0.79209  0.53184  1.0000
  H   H1185     1.0  0.44667  0.89373  0.39990  1.0000
  C   C984      1.0  0.43302  0.89630  0.40968  1.0000
  H   H1186     1.0  0.25819  0.91916  0.51738  1.0000
  H   H1187     1.0  0.24720  0.93399  0.59144  1.0000
  N   N63       1.0  0.10998  0.75306  0.47883  1.0000
  H   H1188     1.0  0.31807  0.89938  0.62753  1.0000
  H   H1189     1.0  0.30587  0.89244  0.50763  1.0000
  H   H1190     1.0  0.08881  0.92770  0.50754  1.0000
  H   H1191     1.0  0.27729  0.92357  0.52354  1.0000
  H   H1192     1.0  0.00735  0.89398  0.43166  1.0000
  H   H1193     1.0  0.30425  0.87539  0.52856  1.0000
  H   H1194     1.0  0.29164  0.88695  0.64455  1.0000
  H   H1195     1.0  0.29397  0.88474  0.55736  1.0000
  H   H1196     1.0  0.03415  0.74663  0.49906  1.0000
  H   H1197     1.0  0.33449  0.90232  0.63850  1.0000
  H   H1198     1.0  0.01049  0.76988  0.44648  1.0000
  H   H1199     1.0  0.43089  0.93949  0.41328  1.0000
  H   H1200     1.0  0.28475  0.97841  0.64823  1.0000
  H   H1201     1.0  0.44867  0.89213  0.43800  1.0000
  C   C985      1.0  0.39689  0.91654  0.42799  1.0000
  C   C986      1.0  0.44832  0.90536  0.42784  1.0000
  C   C987      1.0  0.18975  0.97735  0.62014  1.0000
  C   C988      1.0  0.01127  0.82647  0.55228  1.0000
  Fe  Fe129     1.0  0.46637  0.92476  0.35890  1.0000
  H   H1202     1.0  0.09598  0.85225  0.42708  1.0000
  C   C989      1.0  0.44956  0.96408  0.62529  1.0000
  C   C990      1.0  0.37029  0.96640  0.39554  1.0000
  H   H1203     1.0  0.42125  0.93232  0.39849  1.0000
  H   H1204     1.0  0.46139  0.90345  0.41716  1.0000
  C   C991      1.0  0.04914  0.86359  0.42882  1.0000
  H   H1205     1.0  0.27629  0.86907  0.52301  1.0000
  C   C992      1.0  0.00856  0.75742  0.51632  1.0000
  H   H1206     1.0  0.03870  0.78912  0.49474  1.0000
  Fe  Fe130     1.0  0.30713  0.95159  0.62104  1.0000
  S   S271      1.0  0.26564  0.91221  0.62151  1.0000
  C   C993      1.0  0.39590  0.91379  0.46494  1.0000
  H   H1207     1.0  0.28025  0.88531  0.50154  1.0000
  H   H1208     1.0  0.23559  0.96964  0.55542  1.0000
  C   C994      1.0  0.06650  0.86319  0.43231  1.0000
  H   H1209     1.0  0.03680  0.85204  0.41338  1.0000
  C   C995      1.0  0.43243  0.92819  0.40632  1.0000
  S   S272      1.0  0.29350  0.97054  0.47254  1.0000
  C   C996      1.0  0.03351  0.88525  0.44963  1.0000
  H   H1210     1.0  0.02822  0.79862  0.57711  1.0000
  C   C997      1.0  0.24159  0.98179  0.54796  1.0000
  H   H1211     1.0  0.05931  0.91854  0.54280  1.0000
  H   H1212     1.0  0.00864  0.85567  0.54431  1.0000
  H   H1213     1.0  0.42519  0.95833  0.62147  1.0000
  C   C998      1.0  0.41297  0.91143  0.45244  1.0000
  H   H1214     1.0  0.32064  0.86666  0.64610  1.0000
  Fe  Fe131     1.0  0.46451  0.95996  0.33070  1.0000
  H   H1215     1.0  0.19732  0.94731  0.62405  1.0000
  S   S273      1.0  0.29686  0.98256  0.55747  1.0000
  H   H1216     1.0  0.06014  0.78553  0.51512  1.0000
  S   S274      1.0  0.30135  0.96997  0.42867  1.0000
  C   C999      1.0  0.05280  0.78131  0.49183  1.0000
  C   C1000     1.0  0.06476  0.77939  0.50321  1.0000
  H   H1217     1.0  0.09180  0.76886  0.50823  1.0000
  C   C1001     1.0  0.10015  0.76972  0.53901  1.0000
  S   S275      1.0  0.30444  0.93994  0.59851  1.0000
  Fe  Fe132     1.0  0.29059  0.96854  0.58716  1.0000
  Fe  Fe133     1.0  0.26831  0.97481  0.62460  1.0000
  H   H1218     1.0  0.02842  0.89484  0.41440  1.0000
  H   H1219     1.0  0.17277  0.94452  0.61169  1.0000
  H   H1220     1.0  0.48760  0.92226  0.63001  1.0000
  Fe  Fe134     1.0  0.03565  0.74195  0.42903  1.0000
  C   C1002     1.0  0.01407  0.76335  0.48313  1.0000
  C   C1003     1.0  0.45998  0.92192  0.64632  1.0000
  C   C1004     1.0  0.02063  0.86004  0.45090  1.0000
  H   H1221     1.0  0.45485  0.91996  0.63543  1.0000
  H   H1222     1.0  0.38264  0.93739  0.34167  1.0000
  C   C1005     1.0  0.42564  0.98194  0.65252  1.0000
  C   C1006     1.0  0.47834  0.95245  0.39698  1.0000
  C   C1007     1.0  0.43061  0.96502  0.62883  1.0000
  C   C1008     1.0  0.00157  0.85328  0.49889  1.0000
  H   H1223     1.0  0.22486  0.95554  0.62115  1.0000
  C   C1009     1.0  0.00415  0.78380  0.44921  1.0000
  S   S276      1.0  0.47547  0.93063  0.32815  1.0000
  C   C1010     1.0  0.44494  0.98103  0.64942  1.0000
  H   H1224     1.0  0.40399  0.97436  0.64528  1.0000
  H   H1225     1.0  0.36498  0.93447  0.64709  1.0000
  C   C1011     1.0  0.45669  0.97177  0.63552  1.0000
  C   C1012     1.0  0.00295  0.81143  0.55520  1.0000
  N   N64       1.0  0.20486  0.98000  0.62697  1.0000
  H   H1226     1.0  0.26173  0.96788  0.50774  1.0000
  H   H1227     1.0  0.01210  0.76425  0.56483  1.0000
  H   H1228     1.0  0.01769  0.85112  0.44344  1.0000
  C   C1013     1.0  0.49494  0.95328  0.38402  1.0000
  H   H1229     1.0  0.40440  0.94420  0.33490  1.0000
  C   C1014     1.0  0.21800  0.96269  0.63274  1.0000
  H   H1230     1.0  0.20123  0.98223  0.57849  1.0000
  H   H1231     1.0  0.47158  0.96982  0.63285  1.0000
  Fe  Fe135     1.0  0.44581  0.93138  0.32896  1.0000
  H   H1232     1.0  0.36580  0.96441  0.35198  1.0000
  H   H1233     1.0  0.39417  0.98083  0.41076  1.0000
  H   H1234     1.0  0.13041  0.73985  0.45824  1.0000
  C   C1015     1.0  0.39171  0.94508  0.33016  1.0000
  H   H1235     1.0  0.36929  0.97979  0.39781  1.0000
  H   H1236     1.0  0.34251  0.98255  0.46307  1.0000
  C   C1016     1.0  0.47374  0.98437  0.39708  1.0000
  H   H1237     1.0  0.36689  0.98663  0.33796  1.0000
  H   H1238     1.0  0.35058  0.98457  0.57067  1.0000
  C   C1017     1.0  0.49041  0.98530  0.38419  1.0000
  H   H1239     1.0  0.32590  0.98655  0.57412  1.0000
  H   H1240     1.0  0.22057  0.98683  0.59936  1.0000
  H   H1241     1.0  0.31318  0.98678  0.51888  1.0000
  S   S277      1.0  0.42165  0.82883  0.95427  1.0000
  C   C1018     1.0  0.31315  0.89726  0.67322  1.0000
  Fe  Fe136     1.0  0.42848  0.85375  0.95785  1.0000
  S   S278      1.0  0.41471  0.88193  0.94439  1.0000
  H   H1242     1.0  0.48101  0.96874  0.74848  1.0000
  H   H1243     1.0  0.45631  0.92236  0.72157  1.0000
  S   S279      1.0  0.48951  0.97266  0.79344  1.0000
  H   H1244     1.0  0.47674  0.96594  0.66190  1.0000
  H   H1245     1.0  0.47409  0.94195  0.79500  1.0000
  S   S280      1.0  0.37390  0.76222  0.95603  1.0000
  C   C1019     1.0  0.47311  0.92721  0.67438  1.0000
  C   C1020     1.0  0.35248  0.93889  0.65682  1.0000
  C   C1021     1.0  0.39723  0.95348  0.77213  1.0000
  H   H1246     1.0  0.46368  0.83753  0.86759  1.0000
  H   H1247     1.0  0.44164  0.88332  0.96564  1.0000
  C   C1022     1.0  0.47065  0.96718  0.74175  1.0000
  C   C1023     1.0  0.46779  0.85059  0.89511  1.0000
  S   S281      1.0  0.41512  0.92614  0.75282  1.0000
  Fe  Fe137     1.0  0.36776  0.94632  0.71051  1.0000
  H   H1248     1.0  0.43960  0.89780  0.72872  1.0000
  S   S282      1.0  0.33893  0.94558  0.70956  1.0000
  Fe  Fe138     1.0  0.42495  0.96650  0.82894  1.0000
  C   C1024     1.0  0.47814  0.89044  0.71481  1.0000
  S   S283      1.0  0.39160  0.92236  0.71457  1.0000
  S   S284      1.0  0.46142  0.93059  0.87866  1.0000
  Fe  Fe139     1.0  0.45216  0.81756  0.95001  1.0000
  H   H1249     1.0  0.45687  0.88270  0.70609  1.0000
  C   C1025     1.0  0.29945  0.90954  0.70130  1.0000
  H   H1250     1.0  0.47560  0.87754  0.67650  1.0000
  H   H1251     1.0  0.38841  0.95867  0.76230  1.0000
  C   C1026     1.0  0.39408  0.96205  0.78691  1.0000
  C   C1027     1.0  0.29743  0.90400  0.68629  1.0000
  H   H1252     1.0  0.41132  0.74291  0.95862  1.0000
  C   C1028     1.0  0.35358  0.93932  0.67452  1.0000
  C   C1029     1.0  0.31700  0.90853  0.70378  1.0000
  C   C1030     1.0  0.49104  0.92969  0.77246  1.0000
  C   C1031     1.0  0.47546  0.93142  0.93155  1.0000
  H   H1253     1.0  0.46672  0.88238  0.87492  1.0000
  C   C1032     1.0  0.45466  0.92607  0.67738  1.0000
  Fe  Fe140     1.0  0.39118  0.97396  0.70248  1.0000
  H   H1254     1.0  0.45618  0.97306  0.77587  1.0000
  C   C1033     1.0  0.45904  0.91141  0.95739  1.0000
  C   C1034     1.0  0.32218  0.87199  0.65749  1.0000
  C   C1035     1.0  0.43845  0.76254  0.95543  1.0000
  H   H1255     1.0  0.31732  0.86282  0.67071  1.0000
  C   C1036     1.0  0.49653  0.89320  0.70843  1.0000
  N   N65       1.0  0.31165  0.89113  0.65720  1.0000
  C   C1037     1.0  0.33758  0.94517  0.68721  1.0000
  C   C1038     1.0  0.42127  0.88858  0.85924  1.0000
  H   H1256     1.0  0.48790  0.88442  0.97058  1.0000
  H   H1257     1.0  0.47828  0.92829  0.68550  1.0000
  Fe  Fe141     1.0  0.46509  0.96953  0.81678  1.0000
  C   C1039     1.0  0.32038  0.95017  0.68217  1.0000
  N   N66       1.0  0.45859  0.89645  0.97395  1.0000
  C   C1040     1.0  0.49337  0.78648  0.94413  1.0000
  H   H1258     1.0  0.45670  0.96307  0.67991  1.0000
  H   H1259     1.0  0.30791  0.95454  0.69194  1.0000
  Fe  Fe142     1.0  0.42161  0.81779  0.98411  1.0000
  H   H1260     1.0  0.28377  0.90598  0.65531  1.0000
  C   C1041     1.0  0.43884  0.97395  0.73965  1.0000
  C   C1042     1.0  0.47537  0.91790  0.94769  1.0000
  H   H1261     1.0  0.42261  0.84846  0.90440  1.0000
  H   H1262     1.0  0.41669  0.75897  0.93752  1.0000
  H   H1263     1.0  0.44045  0.83466  0.87809  1.0000
  S   S285      1.0  0.42192  0.97175  0.85699  1.0000
  H   H1264     1.0  0.28734  0.91498  0.71094  1.0000
  H   H1265     1.0  0.33728  0.87064  0.65584  1.0000
  H   H1266     1.0  0.47951  0.85152  0.88295  1.0000
  N   N67       1.0  0.45031  0.85167  0.88974  1.0000
  H   H1267     1.0  0.42153  0.93241  0.89064  1.0000
  H   H1268     1.0  0.43362  0.91911  0.78226  1.0000
  H   H1269     1.0  0.49042  0.88832  0.74597  1.0000
  C   C1043     1.0  0.41977  0.93998  0.79799  1.0000
  C   C1044     1.0  0.47090  0.88454  0.70283  1.0000
  S   S286      1.0  0.45920  0.84314  0.95136  1.0000
  H   H1270     1.0  0.47058  0.97827  0.67991  1.0000
  C   C1045     1.0  0.42770  0.89477  0.92533  1.0000
  C   C1046     1.0  0.44704  0.89049  0.92165  1.0000
  C   C1047     1.0  0.45714  0.90147  0.90713  1.0000
  C   C1048     1.0  0.44802  0.91667  0.89593  1.0000
  C   C1049     1.0  0.42868  0.92071  0.89921  1.0000
  C   C1050     1.0  0.41855  0.90987  0.91401  1.0000
  H   H1271     1.0  0.45427  0.87906  0.93026  1.0000
  H   H1272     1.0  0.47209  0.89837  0.90472  1.0000
  H   H1273     1.0  0.40357  0.91326  0.91675  1.0000
  C   C1051     1.0  0.43132  0.90227  0.85339  1.0000
  H   H1274     1.0  0.47200  0.83737  0.90461  1.0000
  C   C1052     1.0  0.47606  0.89040  0.98079  1.0000
  C   C1053     1.0  0.38224  0.77166  0.96964  1.0000
  C   C1054     1.0  0.38327  0.79006  0.96383  1.0000
  C   C1055     1.0  0.38996  0.79827  0.97400  1.0000
  H   H1275     1.0  0.48091  0.76901  0.91455  1.0000
  C   C1056     1.0  0.45943  0.93890  0.92467  1.0000
  H   H1276     1.0  0.37878  0.79808  0.95140  1.0000
  H   H1277     1.0  0.39020  0.81261  0.96957  1.0000
  C   C1057     1.0  0.42269  0.93120  0.78342  1.0000
  S   S287      1.0  0.49353  0.94706  0.69966  1.0000
  H   H1278     1.0  0.48270  0.91981  0.77469  1.0000
  N   N68       1.0  0.45203  0.97818  0.74804  1.0000
  C   C1058     1.0  0.44318  0.93301  0.93395  1.0000
  C   C1059     1.0  0.41133  0.93783  0.77056  1.0000
  S   S288      1.0  0.38307  0.96100  0.68435  1.0000
  H   H1279     1.0  0.18833  0.98036  0.65429  1.0000
  H   H1280     1.0  0.43086  0.93852  0.92826  1.0000
  H   H1281     1.0  0.28342  0.90539  0.68512  1.0000
  H   H1282     1.0  0.45022  0.87455  0.73844  1.0000
  S   S289      1.0  0.37404  0.96121  0.72866  1.0000
  C   C1060     1.0  0.31925  0.94947  0.66449  1.0000
  Fe  Fe143     1.0  0.40729  0.93816  0.68943  1.0000
  H   H1283     1.0  0.41922  0.86201  0.87515  1.0000
  C   C1061     1.0  0.40528  0.95527  0.79990  1.0000
  Fe  Fe144     1.0  0.44990  0.95255  0.85629  1.0000
  H   H1284     1.0  0.44513  0.95770  0.77224  1.0000
  C   C1062     1.0  0.45410  0.88326  0.87081  1.0000
  S   S290      1.0  0.41726  0.95296  0.70475  1.0000
  H   H1285     1.0  0.42839  0.93459  0.80802  1.0000
  H   H1286     1.0  0.40845  0.89079  0.85483  1.0000
  Fe  Fe145     1.0  0.39974  0.93890  0.72981  1.0000
  S   S291      1.0  0.46428  0.80246  0.92709  1.0000
  H   H1287     1.0  0.42826  0.76402  0.96856  1.0000
  C   C1063     1.0  0.45524  0.88042  0.96952  1.0000
  H   H1288     1.0  0.45541  0.86854  0.98132  1.0000
  H   H1289     1.0  0.46914  0.88562  0.76144  1.0000
  H   H1290     1.0  0.36683  0.93476  0.67842  1.0000
  S   S292      1.0  0.42445  0.92452  0.66629  1.0000
  C   C1064     1.0  0.48488  0.92638  0.65718  1.0000
  H   H1291     1.0  0.43021  0.91465  0.95607  1.0000
  H   H1292     1.0  0.47570  0.97160  0.72668  1.0000
  H   H1293     1.0  0.44575  0.92637  0.69077  1.0000
  H   H1294     1.0  0.45554  0.91746  0.74580  1.0000
  H   H1295     1.0  0.47075  0.95233  0.74478  1.0000
  C   C1065     1.0  0.44794  0.92397  0.66319  1.0000
  H   H1296     1.0  0.45285  0.75501  0.92261  1.0000
  H   H1297     1.0  0.28551  0.88297  0.66911  1.0000
  Fe  Fe146     1.0  0.45541  0.83181  0.98182  1.0000
  C   C1066     1.0  0.33264  0.90216  0.69116  1.0000
  H   H1298     1.0  0.45207  0.76421  0.95639  1.0000
  C   C1067     1.0  0.44773  0.89954  0.85909  1.0000
  N   N69       1.0  0.46717  0.89423  0.73290  1.0000
  H   H1299     1.0  0.48811  0.93594  0.92409  1.0000
  H   H1300     1.0  0.42472  0.98250  0.74318  1.0000
  H   H1301     1.0  0.43387  0.77445  0.94467  1.0000
  C   C1068     1.0  0.44414  0.86904  0.87713  1.0000
  S   S293      1.0  0.45160  0.94560  0.82932  1.0000
  C   C1069     1.0  0.46391  0.91402  0.73247  1.0000
  H   H1302     1.0  0.30596  0.95317  0.66080  1.0000
  C   C1070     1.0  0.38806  0.76136  0.98574  1.0000
  C   C1071     1.0  0.43583  0.84950  0.90683  1.0000
  C   C1072     1.0  0.45494  0.74305  0.93414  1.0000
  C   C1073     1.0  0.46478  0.97331  0.67096  1.0000
  H   H1303     1.0  0.42632  0.91508  0.84453  1.0000
  H   H1304     1.0  0.45548  0.91025  0.85473  1.0000
  S   S294      1.0  0.40047  0.96569  0.81877  1.0000
  H   H1305     1.0  0.38281  0.97383  0.78837  1.0000
  C   C1074     1.0  0.45338  0.83604  0.88088  1.0000
  H   H1306     1.0  0.34337  0.89253  0.66630  1.0000
  H   H1307     1.0  0.45486  0.74200  0.98097  1.0000
  H   H1308     1.0  0.45867  0.82278  0.88979  1.0000
  H   H1309     1.0  0.47706  0.91857  0.72979  1.0000
  C   C1075     1.0  0.44882  0.88924  0.73818  1.0000
  C   C1076     1.0  0.49647  0.95552  0.78066  1.0000
  C   C1077     1.0  0.48157  0.88144  0.68569  1.0000
  C   C1078     1.0  0.33081  0.89674  0.67602  1.0000
  S   S295      1.0  0.45184  0.80483  0.97963  1.0000
  C   C1079     1.0  0.48833  0.76980  0.92425  1.0000
  H   H1310     1.0  0.34623  0.90209  0.69280  1.0000
  H   H1311     1.0  0.44026  0.83682  0.91678  1.0000
  S   S296      1.0  0.46564  0.97499  0.84352  1.0000
  H   H1312     1.0  0.43269  0.86125  0.91367  1.0000
  H   H1313     1.0  0.46866  0.74158  0.93717  1.0000
  H   H1314     1.0  0.48126  0.86892  0.74751  1.0000
  H   H1315     1.0  0.43754  0.95942  0.74464  1.0000
  H   H1316     1.0  0.31854  0.91333  0.71513  1.0000
  C   C1080     1.0  0.47744  0.88380  0.74754  1.0000
  C   C1081     1.0  0.42756  0.87217  0.87090  1.0000
  H   H1317     1.0  0.44340  0.97593  0.72444  1.0000
  C   C1082     1.0  0.44296  0.91936  0.94996  1.0000
  H   H1318     1.0  0.44120  0.89158  0.75213  1.0000
  H   H1319     1.0  0.46628  0.86155  0.90251  1.0000
  H   H1320     1.0  0.48984  0.79856  0.94987  1.0000
  C   C1083     1.0  0.48614  0.94226  0.78396  1.0000
  C   C1084     1.0  0.44617  0.97227  0.76828  1.0000
  H   H1321     1.0  0.47952  0.90186  0.98432  1.0000
  H   H1322     1.0  0.43241  0.98062  0.77362  1.0000
  H   H1323     1.0  0.48833  0.91256  0.95209  1.0000
  C   C1085     1.0  0.48341  0.78522  0.93201  1.0000
  N   N70       1.0  0.43991  0.74482  0.95065  1.0000
  H   H1324     1.0  0.46617  0.87598  0.95781  1.0000
  H   H1325     1.0  0.45968  0.94897  0.91184  1.0000
  C   C1086     1.0  0.42215  0.74553  0.94598  1.0000
  C   C1087     1.0  0.29230  0.89177  0.65666  1.0000
  H   H1326     1.0  0.63028  0.00074  0.23983  1.0000
  C   C1088     1.0  0.57892  0.02254  0.24147  1.0000
  Fe  Fe147     1.0  0.53905  0.19560  0.10464  1.0000
  H   H1327     1.0  0.58577  0.21341  0.03228  1.0000
  S   S297      1.0  0.51175  0.11622  0.18026  1.0000
  H   H1328     1.0  0.50005  0.19630  0.14680  1.0000
  S   S298      1.0  0.54616  0.20706  0.07407  1.0000
  C   C1089     1.0  0.51091  0.20401  0.03590  1.0000
  C   C1090     1.0  0.53902  0.19100  0.01595  1.0000
  C   C1091     1.0  0.56898  0.99868  0.23440  1.0000
  H   H1329     1.0  0.57659  0.03703  0.24078  1.0000
  H   H1330     1.0  0.52147  0.03027  0.26781  1.0000
  Fe  Fe148     1.0  0.51547  0.21299  0.07598  1.0000
  H   H1331     1.0  0.55380  0.18547  0.01333  1.0000
  C   C1092     1.0  0.56694  0.01706  0.23431  1.0000
  C   C1093     1.0  0.59328  0.00957  0.24925  1.0000
  H   H1332     1.0  0.51086  0.05843  0.19740  1.0000
  S   S299      1.0  0.57026  0.11119  0.31047  1.0000
  H   H1333     1.0  0.52728  0.08479  0.16410  1.0000
  C   C1094     1.0  0.59961  0.03368  0.26064  1.0000
  Fe  Fe149     1.0  0.51756  0.10120  0.20822  1.0000
  S   S300      1.0  0.53566  0.07316  0.21475  1.0000
  H   H1334     1.0  0.52157  0.23377  0.00853  1.0000
  H   H1335     1.0  0.53502  0.03967  0.15504  1.0000
  Fe  Fe150     1.0  0.50621  0.22655  0.11148  1.0000
  H   H1336     1.0  0.58558  0.03521  0.26984  1.0000
  Fe  Fe151     1.0  0.53814  0.08283  0.23892  1.0000
  S   S301      1.0  0.56505  0.07440  0.24857  1.0000
  S   S302      1.0  0.50882  0.19919  0.10574  1.0000
  N   N71       1.0  0.60639  0.01502  0.25662  1.0000
  S   S303      1.0  0.52222  0.11170  0.23069  1.0000
  C   C1095     1.0  0.59892  0.03409  0.31251  1.0000
  C   C1096     1.0  0.51889  0.00292  0.26976  1.0000
  H   H1337     1.0  0.61854  0.98864  0.27180  1.0000
  H   H1338     1.0  0.53052  0.08531  0.31560  1.0000
  C   C1097     1.0  0.56894  0.10144  0.29287  1.0000
  C   C1098     1.0  0.58329  0.08744  0.28686  1.0000
  C   C1099     1.0  0.58219  0.07968  0.27286  1.0000
  C   C1100     1.0  0.56657  0.08557  0.26502  1.0000
  C   C1101     1.0  0.55209  0.09949  0.27114  1.0000
  C   C1102     1.0  0.55335  0.10752  0.28494  1.0000
  H   H1339     1.0  0.59544  0.08280  0.29277  1.0000
  H   H1340     1.0  0.59353  0.06912  0.26812  1.0000
  H   H1341     1.0  0.53995  0.10411  0.26523  1.0000
  H   H1342     1.0  0.54222  0.11839  0.28950  1.0000
  H   H1343     1.0  0.53793  0.06510  0.28419  1.0000
  C   C1103     1.0  0.54405  0.01019  0.27767  1.0000
  C   C1104     1.0  0.52898  0.19215  0.00284  1.0000
  H   H1344     1.0  0.55589  0.02718  0.22883  1.0000
  C   C1105     1.0  0.52659  0.07117  0.16252  1.0000
  H   H1345     1.0  0.66975  0.01494  0.31672  1.0000
  H   H1346     1.0  0.60889  0.03693  0.26759  1.0000
  H   H1347     1.0  0.61354  0.22590  0.01063  1.0000
  C   C1106     1.0  0.55215  0.99166  0.28176  1.0000
  H   H1348     1.0  0.59667  0.00012  0.28373  1.0000
  C   C1107     1.0  0.58601  0.00733  0.31904  1.0000
  C   C1108     1.0  0.52505  0.13055  0.16353  1.0000
  C   C1109     1.0  0.54255  0.13149  0.16480  1.0000
  C   C1110     1.0  0.55233  0.14360  0.15118  1.0000
  C   C1111     1.0  0.54443  0.15507  0.13658  1.0000
  C   C1112     1.0  0.52704  0.15390  0.13531  1.0000
  C   C1113     1.0  0.51747  0.14158  0.14864  1.0000
  H   H1349     1.0  0.54853  0.12296  0.17622  1.0000
  H   H1350     1.0  0.52105  0.16229  0.12390  1.0000
  C   C1114     1.0  0.61549  0.02311  0.31687  1.0000
  H   H1351     1.0  0.52668  0.02406  0.31442  1.0000
  H   H1352     1.0  0.50189  0.19936  0.99674  1.0000
  H   H1353     1.0  0.61770  0.00726  0.28116  1.0000
  S   S304      1.0  0.63292  0.03319  0.31765  1.0000
  C   C1115     1.0  0.50982  0.19889  0.00650  1.0000
  H   H1354     1.0  0.59754  0.04870  0.30790  1.0000
  N   N72       1.0  0.50241  0.19044  0.17507  1.0000
  H   H1355     1.0  0.52475  0.16714  0.17059  1.0000
  C   C1116     1.0  0.51093  0.05238  0.31055  1.0000
  H   H1356     1.0  0.50350  0.01126  0.30892  1.0000
  H   H1357     1.0  0.53789  0.19621  0.04235  1.0000
  H   H1358     1.0  0.55074  0.02020  0.27897  1.0000
  C   C1117     1.0  0.53004  0.19704  0.03239  1.0000
  C   C1118     1.0  0.52351  0.99614  0.20184  1.0000
  S   S305      1.0  0.53587  0.22224  0.11261  1.0000
  H   H1359     1.0  0.52949  0.18248  0.18136  1.0000
  S   S306      1.0  0.49929  0.21283  0.05570  1.0000
  H   H1360     1.0  0.54776  0.00768  0.19260  1.0000
  C   C1119     1.0  0.52764  0.01581  0.27137  1.0000
  C   C1120     1.0  0.54166  0.05779  0.29760  1.0000
  H   H1361     1.0  0.53451  0.03225  0.21058  1.0000
  C   C1121     1.0  0.52645  0.02261  0.21125  1.0000
  C   C1122     1.0  0.50857  0.02391  0.22227  1.0000
  H   H1362     1.0  0.56370  0.22938  0.03653  1.0000
  H   H1363     1.0  0.59904  0.04453  0.24791  1.0000
  H   H1364     1.0  0.56585  0.14438  0.15217  1.0000
  H   H1365     1.0  0.52962  0.18834  0.15709  1.0000
  C   C1123     1.0  0.57118  0.22429  0.00021  1.0000
  H   H1366     1.0  0.69323  0.00249  0.31439  1.0000
  C   C1124     1.0  0.59524  0.99098  0.24872  1.0000
  H   H1367     1.0  0.51640  0.08834  0.29982  1.0000
  H   H1368     1.0  0.63452  0.01856  0.24784  1.0000
  H   H1369     1.0  0.58237  0.23056  0.04512  1.0000
  S   S307      1.0  0.55620  0.17111  0.12043  1.0000
  C   C1125     1.0  0.60992  0.00221  0.27401  1.0000
  H   H1370     1.0  0.62212  0.02422  0.22967  1.0000
  C   C1126     1.0  0.53391  0.00873  0.20105  1.0000
  H   H1371     1.0  0.53136  0.01001  0.15415  1.0000
  C   C1127     1.0  0.62413  0.01462  0.24290  1.0000
  H   H1372     1.0  0.53650  0.06090  0.17031  1.0000
  H   H1373     1.0  0.56499  0.21643  0.01309  1.0000
  C   C1128     1.0  0.57899  0.22788  0.03308  1.0000
  H   H1374     1.0  0.57125  0.03488  0.31124  1.0000
  N   N73       1.0  0.52543  0.06018  0.31298  1.0000
  H   H1375     1.0  0.55305  0.06331  0.29892  1.0000
  C   C1129     1.0  0.50091  0.21018  0.17383  1.0000
  H   H1376     1.0  0.50612  0.00826  0.26499  1.0000
  H   H1377     1.0  0.54728  0.04323  0.29676  1.0000
  H   H1378     1.0  0.50115  0.00134  0.16626  1.0000
  C   C1130     1.0  0.52240  0.18178  0.17087  1.0000
  C   C1131     1.0  0.50549  0.99781  0.21249  1.0000
  S   S308      1.0  0.62288  0.08682  0.31662  1.0000
  Fe  Fe152     1.0  0.51009  0.06504  0.23358  1.0000
  C   C1132     1.0  0.51398  0.03331  0.31153  1.0000
  S   S309      1.0  0.51389  0.07237  0.25828  1.0000
  H   H1379     1.0  0.55956  0.99451  0.22895  1.0000
  H   H1380     1.0  0.50791  0.21680  0.15999  1.0000
  H   H1381     1.0  0.50401  0.14079  0.14751  1.0000
  H   H1382     1.0  0.50758  0.21232  0.18394  1.0000
  C   C1133     1.0  0.52128  0.03702  0.16012  1.0000
  C   C1134     1.0  0.51935  0.01991  0.15931  1.0000
  N   N74       1.0  0.50752  0.06782  0.16949  1.0000
  C   C1135     1.0  0.50082  0.20477  0.02300  1.0000
  C   C1136     1.0  0.50595  0.04980  0.16783  1.0000
  Fe  Fe153     1.0  0.54041  0.23402  0.08231  1.0000
  C   C1137     1.0  0.51949  0.08000  0.31323  1.0000
  H   H1383     1.0  0.53157  0.07108  0.14761  1.0000
  C   C1138     1.0  0.58411  0.02625  0.31402  1.0000
  H   H1384     1.0  0.56521  0.98730  0.28616  1.0000
  H   H1385     1.0  0.50284  0.08255  0.19079  1.0000
  H   H1386     1.0  0.50017  0.15428  0.18579  1.0000
  C   C1139     1.0  0.50229  0.01497  0.16615  1.0000
  C   C1140     1.0  0.50186  0.06918  0.18908  1.0000
  C   C1141     1.0  0.50088  0.02584  0.30827  1.0000
  H   H1387     1.0  0.49848  0.98725  0.25555  1.0000
  H   H1388     1.0  0.49852  0.08176  0.14434  1.0000
  C   C1142     1.0  0.49808  0.01161  0.22266  1.0000
  S   S310      1.0  0.49870  0.04038  0.23606  1.0000
  H   H1389     1.0  0.53624  0.13352  0.36111  1.0000
  Fe  Fe154     1.0  0.81622  0.12956  0.47028  1.0000
  S   S311      1.0  0.81738  0.14836  0.48742  1.0000
  S   S312      1.0  0.80344  0.14180  0.44540  1.0000
  Fe  Fe155     1.0  0.82801  0.09528  0.49791  1.0000
  S   S313      1.0  0.83000  0.11115  0.51738  1.0000
  S   S314      1.0  0.83087  0.06485  0.50841  1.0000
  Fe  Fe156     1.0  0.80344  0.12918  0.51087  1.0000
  S   S315      1.0  0.78068  0.13932  0.53346  1.0000
  Fe  Fe157     1.0  0.84402  0.12895  0.49242  1.0000
  S   S316      1.0  0.87068  0.13628  0.49298  1.0000
  S   S317      1.0  0.80020  0.11196  0.49352  1.0000
  S   S318      1.0  0.84413  0.11144  0.47312  1.0000
  S   S319      1.0  0.81669  0.01911  0.45920  1.0000
  S   S320      1.0  0.63860  0.01578  0.60237  1.0000
  Fe  Fe158     1.0  0.72827  0.09326  0.38588  1.0000
  S   S321      1.0  0.70749  0.08592  0.41161  1.0000
  S   S322      1.0  0.72087  0.09982  0.35811  1.0000
  Fe  Fe159     1.0  0.75825  0.08884  0.40717  1.0000
  S   S323      1.0  0.73950  0.08115  0.43440  1.0000
  S   S324      1.0  0.78794  0.08567  0.40830  1.0000
  Fe  Fe160     1.0  0.73116  0.06414  0.42019  1.0000
  S   S325      1.0  0.72877  0.03526  0.43206  1.0000
  Fe  Fe161     1.0  0.71814  0.10388  0.42265  1.0000
  S   S326      1.0  0.69875  0.12413  0.43876  1.0000
  S   S327      1.0  0.75136  0.07004  0.39372  1.0000
  S   S328      1.0  0.73744  0.11310  0.39629  1.0000
  Fe  Fe162     1.0  0.69018  0.07924  0.56938  1.0000
  S   S329      1.0  0.66268  0.07693  0.56679  1.0000
  S   S330      1.0  0.70560  0.05358  0.58481  1.0000
  Fe  Fe163     1.0  0.68617  0.11763  0.54718  1.0000
  S   S331      1.0  0.65847  0.11850  0.54240  1.0000
  S   S332      1.0  0.69744  0.14293  0.53552  1.0000
  Fe  Fe164     1.0  0.65241  0.10507  0.57221  1.0000
  S   S333      1.0  0.62398  0.11462  0.58853  1.0000
  Fe  Fe165     1.0  0.67123  0.09030  0.53742  1.0000
  S   S334      1.0  0.66655  0.07864  0.51592  1.0000
  S   S335      1.0  0.67914  0.10646  0.57762  1.0000
  S   S336      1.0  0.69972  0.09048  0.53943  1.0000
  Fe  Fe166     1.0  0.90321  0.20910  0.52781  1.0000
  S   S337      1.0  0.91460  0.19197  0.55246  1.0000
  S   S338      1.0  0.87959  0.20496  0.51778  1.0000
  H   H1390     1.0  0.98970  0.23161  0.65106  1.0000
  S   S339      1.0  0.68226  0.01516  0.38821  1.0000
  Fe  Fe167     1.0  0.94205  0.19775  0.53541  1.0000
  S   S340      1.0  0.97099  0.18044  0.53167  1.0000
  C   C1143     1.0  0.60297  0.99621  0.32245  1.0000
  S   S341      1.0  0.63992  0.99204  0.41044  1.0000
  H   H1391     1.0  0.52192  0.00313  0.63460  1.0000
  H   H1392     1.0  0.67098  0.12985  0.40630  1.0000
  N   N75       1.0  0.68358  0.14744  0.38229  1.0000
  Fe  Fe168     1.0  0.59273  0.06839  0.36398  1.0000
  C   C1144     1.0  0.69501  0.01420  0.46731  1.0000
  C   C1145     1.0  0.63982  0.11805  0.62750  1.0000
  H   H1393     1.0  0.71129  0.00803  0.54362  1.0000
  C   C1146     1.0  0.98335  0.18634  0.54443  1.0000
  C   C1147     1.0  0.97553  0.18755  0.56275  1.0000
  H   H1394     1.0  0.69952  0.06830  0.33652  1.0000
  H   H1395     1.0  0.96183  0.18492  0.56900  1.0000
  H   H1396     1.0  0.75309  0.01771  0.36786  1.0000
  C   C1148     1.0  0.68840  0.11189  0.45982  1.0000
  C   C1149     1.0  0.68941  0.09320  0.46213  1.0000
  C   C1150     1.0  0.68172  0.08323  0.47913  1.0000
  C   C1151     1.0  0.67353  0.09180  0.49406  1.0000
  C   C1152     1.0  0.67254  0.11049  0.49178  1.0000
  C   C1153     1.0  0.67972  0.12060  0.47458  1.0000
  H   H1397     1.0  0.69639  0.08631  0.45091  1.0000
  H   H1398     1.0  0.68300  0.06872  0.48090  1.0000
  H   H1399     1.0  0.66635  0.11717  0.50327  1.0000
  H   H1400     1.0  0.67896  0.13504  0.47287  1.0000
  C   C1154     1.0  0.65886  0.02392  0.59788  1.0000
  C   C1155     1.0  0.67047  0.02575  0.58039  1.0000
  C   C1156     1.0  0.68569  0.03379  0.57667  1.0000
  C   C1157     1.0  0.68951  0.03973  0.59055  1.0000
  C   C1158     1.0  0.67839  0.03716  0.60826  1.0000
  C   C1159     1.0  0.66305  0.02931  0.61190  1.0000
  H   H1401     1.0  0.51019  0.03501  0.62266  1.0000
  H   H1402     1.0  0.69401  0.03612  0.56285  1.0000
  H   H1403     1.0  0.68101  0.04217  0.61888  1.0000
  H   H1404     1.0  0.65409  0.02800  0.62544  1.0000
  C   C1160     1.0  0.69813  0.01950  0.39811  1.0000
  C   C1161     1.0  0.70383  0.03611  0.39200  1.0000
  C   C1162     1.0  0.71435  0.04054  0.40176  1.0000
  C   C1163     1.0  0.71892  0.02848  0.41773  1.0000
  C   C1164     1.0  0.71433  0.01138  0.42300  1.0000
  C   C1165     1.0  0.70393  0.00691  0.41322  1.0000
  H   H1405     1.0  0.69941  0.04589  0.38030  1.0000
  H   H1406     1.0  0.71837  0.05354  0.39720  1.0000
  H   H1407     1.0  0.71850  0.00174  0.43488  1.0000
  H   H1408     1.0  0.55247  0.02604  0.35929  1.0000
  C   C1166     1.0  0.87250  0.15495  0.50110  1.0000
  C   C1167     1.0  0.85764  0.16979  0.50377  1.0000
  C   C1168     1.0  0.85999  0.18480  0.50920  1.0000
  C   C1169     1.0  0.87708  0.18503  0.51240  1.0000
  C   C1170     1.0  0.89187  0.17006  0.51003  1.0000
  C   C1171     1.0  0.88962  0.15520  0.50424  1.0000
  H   H1409     1.0  0.84442  0.16983  0.50135  1.0000
  H   H1410     1.0  0.84846  0.19633  0.51093  1.0000
  H   H1411     1.0  0.90511  0.17002  0.51240  1.0000
  H   H1412     1.0  0.90121  0.14379  0.50222  1.0000
  C   C1172     1.0  0.75773  0.13859  0.53483  1.0000
  C   C1173     1.0  0.75325  0.12890  0.52435  1.0000
  C   C1174     1.0  0.73466  0.12907  0.52554  1.0000
  C   C1175     1.0  0.72056  0.13952  0.53668  1.0000
  C   C1176     1.0  0.72504  0.14910  0.54719  1.0000
  C   C1177     1.0  0.74359  0.14834  0.54653  1.0000
  H   H1413     1.0  0.76401  0.12144  0.51519  1.0000
  H   H1414     1.0  0.73118  0.12187  0.51719  1.0000
  H   H1415     1.0  0.71414  0.15732  0.55566  1.0000
  H   H1416     1.0  0.74698  0.15586  0.55465  1.0000
  C   C1178     1.0  0.79969  0.12627  0.43463  1.0000
  C   C1179     1.0  0.81150  0.10905  0.43443  1.0000
  C   C1180     1.0  0.80815  0.09692  0.42572  1.0000
  C   C1181     1.0  0.79246  0.10155  0.41809  1.0000
  C   C1182     1.0  0.78055  0.11869  0.41847  1.0000
  C   C1183     1.0  0.78448  0.13121  0.42625  1.0000
  H   H1417     1.0  0.82342  0.10523  0.44062  1.0000
  H   H1418     1.0  0.81756  0.08377  0.42520  1.0000
  H   H1419     1.0  0.76863  0.12249  0.41229  1.0000
  H   H1420     1.0  0.77567  0.14472  0.42582  1.0000
  C   C1184     1.0  0.82894  0.05171  0.49401  1.0000
  C   C1185     1.0  0.82519  0.03433  0.50192  1.0000
  C   C1186     1.0  0.82173  0.02414  0.49125  1.0000
  C   C1187     1.0  0.82245  0.03106  0.47249  1.0000
  C   C1188     1.0  0.82710  0.04809  0.46436  1.0000
  C   C1189     1.0  0.83016  0.05852  0.47513  1.0000
  H   H1421     1.0  0.82475  0.02879  0.51640  1.0000
  H   H1422     1.0  0.81870  0.01086  0.49755  1.0000
  H   H1423     1.0  0.82802  0.05339  0.44976  1.0000
  H   H1424     1.0  0.83332  0.07184  0.46887  1.0000
  C   C1190     1.0  0.60078  0.07674  0.64084  1.0000
  C   C1191     1.0  0.61903  0.07126  0.63135  1.0000
  C   C1192     1.0  0.62636  0.08258  0.61496  1.0000
  C   C1193     1.0  0.61546  0.09946  0.60829  1.0000
  C   C1194     1.0  0.59713  0.10458  0.61752  1.0000
  C   C1195     1.0  0.58978  0.09314  0.63355  1.0000
  H   H1425     1.0  0.66926  0.99484  0.48509  1.0000
  H   H1426     1.0  0.64054  0.07847  0.60781  1.0000
  H   H1427     1.0  0.58859  0.11749  0.61221  1.0000
  H   H1428     1.0  0.71171  0.01017  0.34940  1.0000
  C   C1196     1.0  0.69919  0.09744  0.35650  1.0000
  C   C1197     1.0  0.69312  0.10548  0.34004  1.0000
  C   C1198     1.0  0.74060  0.14177  0.45902  1.0000
  C   C1199     1.0  0.72015  0.05800  0.50172  1.0000
  H   H1429     1.0  0.67587  0.16110  0.40504  1.0000
  C   C1200     1.0  0.75326  0.05119  0.48974  1.0000
  C   C1201     1.0  0.65404  0.17149  0.37815  1.0000
  H   H1430     1.0  0.69923  0.03060  0.49197  1.0000
  C   C1202     1.0  0.53115  0.03529  0.38141  1.0000
  C   C1203     1.0  0.54909  0.03294  0.37058  1.0000
  C   C1204     1.0  0.54030  0.05102  0.39958  1.0000
  C   C1205     1.0  0.52677  0.04423  0.39602  1.0000
  H   H1431     1.0  0.53689  0.05787  0.41092  1.0000
  H   H1432     1.0  0.74693  0.01293  0.57273  1.0000
  N   N76       1.0  0.79026  0.02220  0.41604  1.0000
  C   C1206     1.0  0.80359  0.03444  0.40844  1.0000
  C   C1207     1.0  0.77640  0.02941  0.43138  1.0000
  C   C1208     1.0  0.61767  0.00410  0.32149  1.0000
  C   C1209     1.0  0.78064  0.02086  0.40240  1.0000
  C   C1210     1.0  0.76828  0.00885  0.40738  1.0000
  C   C1211     1.0  0.78283  0.03148  0.38415  1.0000
  C   C1212     1.0  0.75877  0.00754  0.39491  1.0000
  H   H1433     1.0  0.56442  0.99055  0.37349  1.0000
  C   C1213     1.0  0.76096  0.01836  0.37726  1.0000
  H   H1434     1.0  0.81463  0.02972  0.39696  1.0000
  H   H1435     1.0  0.79651  0.04880  0.40353  1.0000
  H   H1436     1.0  0.81064  0.03502  0.41908  1.0000
  H   H1437     1.0  0.76808  0.04311  0.42629  1.0000
  H   H1438     1.0  0.78310  0.03079  0.44188  1.0000
  H   H1439     1.0  0.76647  0.02041  0.43858  1.0000
  S   S342      1.0  0.77445  0.99822  0.47505  1.0000
  H   H1440     1.0  0.80921  0.00444  0.43276  1.0000
  H   H1441     1.0  0.55491  0.98832  0.40425  1.0000
  C   C1214     1.0  0.52468  0.98792  0.35842  1.0000
  H   H1442     1.0  0.74921  0.99845  0.39922  1.0000
  S   S343      1.0  0.63903  0.10402  0.35468  1.0000
  H   H1443     1.0  0.54946  0.09048  0.34213  1.0000
  H   H1444     1.0  0.94112  0.20451  0.47060  1.0000
  H   H1445     1.0  0.80466  0.07826  0.56234  1.0000
  C   C1215     1.0  0.68342  0.12931  0.39482  1.0000
  C   C1216     1.0  0.73669  0.04531  0.49797  1.0000
  H   H1446     1.0  0.76284  0.10371  0.48101  1.0000
  H   H1447     1.0  0.78717  0.05534  0.49450  1.0000
  H   H1448     1.0  0.76581  0.04077  0.48775  1.0000
  H   H1449     1.0  0.73675  0.03082  0.50166  1.0000
  H   H1450     1.0  0.77446  0.03889  0.35821  1.0000
  N   N77       1.0  0.68295  0.01540  0.48574  1.0000
  H   H1451     1.0  0.63089  0.14608  0.61476  1.0000
  C   C1217     1.0  0.55271  0.02947  0.63142  1.0000
  C   C1218     1.0  0.55382  0.04660  0.63375  1.0000
  C   C1219     1.0  0.56975  0.01747  0.62558  1.0000
  C   C1220     1.0  0.57085  0.05134  0.63063  1.0000
  H   H1452     1.0  0.57565  0.09718  0.64030  1.0000
  H   H1453     1.0  0.68823  0.17316  0.38369  1.0000
  H   H1454     1.0  0.66153  0.04065  0.33018  1.0000
  H   H1455     1.0  0.53806  0.09117  0.39306  1.0000
  H   H1456     1.0  0.57043  0.00425  0.62314  1.0000
  H   H1457     1.0  0.54168  0.05661  0.33305  1.0000
  H   H1458     1.0  0.63130  0.04640  0.46074  1.0000
  C   C1221     1.0  0.59271  0.03146  0.47807  1.0000
  H   H1459     1.0  0.68691  0.01684  0.51187  1.0000
  N   N78       1.0  0.53047  0.10867  0.35916  1.0000
  C   C1222     1.0  0.54094  0.09014  0.35634  1.0000
  C   C1223     1.0  0.60623  0.05942  0.42739  1.0000
  H   H1460     1.0  0.60922  0.04926  0.43999  1.0000
  C   C1224     1.0  0.98067  0.22971  0.62057  1.0000
  C   C1225     1.0  0.66646  0.03052  0.48423  1.0000
  C   C1226     1.0  0.66017  0.04345  0.49579  1.0000
  C   C1227     1.0  0.65555  0.03205  0.47154  1.0000
  C   C1228     1.0  0.64425  0.05726  0.49427  1.0000
  C   C1229     1.0  0.63961  0.04584  0.47023  1.0000
  C   C1230     1.0  0.63397  0.05843  0.48156  1.0000
  H   H1461     1.0  0.70213  0.11217  0.32835  1.0000
  C   C1231     1.0  0.92360  0.23033  0.45918  1.0000
  C   C1232     1.0  0.98556  0.19172  0.57315  1.0000
  H   H1462     1.0  0.67447  0.99070  0.32432  1.0000
  C   C1233     1.0  0.59240  0.00513  0.40172  1.0000
  H   H1463     1.0  0.68880  0.00931  0.45863  1.0000
  S   S344      1.0  0.59309  0.09796  0.35350  1.0000
  H   H1464     1.0  0.69808  0.02774  0.45979  1.0000
  Fe  Fe169     1.0  0.61841  0.01541  0.54469  1.0000
  H   H1465     1.0  0.66728  0.04331  0.50611  1.0000
  H   H1466     1.0  0.51153  0.10980  0.34270  1.0000
  H   H1467     1.0  0.63976  0.06701  0.50317  1.0000
  C   C1234     1.0  0.70731  0.03897  0.34294  1.0000
  H   H1468     1.0  0.62137  0.06884  0.48082  1.0000
  H   H1469     1.0  0.51638  0.08739  0.42278  1.0000
  C   C1235     1.0  0.60715  0.01739  0.47229  1.0000
  H   H1470     1.0  0.66897  0.13073  0.36418  1.0000
  H   H1471     1.0  0.63043  0.00815  0.50658  1.0000
  C   C1236     1.0  0.56365  0.99547  0.40716  1.0000
  C   C1237     1.0  0.68547  0.02236  0.34026  1.0000
  C   C1238     1.0  0.69934  0.14546  0.36631  1.0000
  H   H1472     1.0  0.65001  0.01687  0.34776  1.0000
  H   H1473     1.0  0.78601  0.05222  0.46463  1.0000
  C   C1239     1.0  0.77300  0.03027  0.37188  1.0000
  C   C1240     1.0  0.62921  0.04267  0.40652  1.0000
  H   H1474     1.0  0.53141  0.08078  0.35891  1.0000
  C   C1241     1.0  0.68740  0.08883  0.37152  1.0000
  H   H1475     1.0  0.57287  0.14853  0.64963  1.0000
  C   C1242     1.0  0.66062  0.00588  0.35385  1.0000
  H   H1476     1.0  0.97772  0.22576  0.54350  1.0000
  C   C1243     1.0  0.90765  0.20445  0.47256  1.0000
  H   H1477     1.0  0.63217  0.03086  0.41799  1.0000
  C   C1244     1.0  0.52357  0.09744  0.39349  1.0000
  H   H1478     1.0  0.55086  0.08379  0.36552  1.0000
  H   H1479     1.0  0.69572  0.12442  0.40114  1.0000
  C   C1245     1.0  0.58459  0.01483  0.41582  1.0000
  C   C1246     1.0  0.66603  0.15436  0.37577  1.0000
  C   C1247     1.0  0.61096  0.13762  0.63924  1.0000
  H   H1480     1.0  0.69200  0.08220  0.38414  1.0000
  C   C1248     1.0  0.67931  0.05598  0.33277  1.0000
  C   C1249     1.0  0.61974  0.01442  0.49884  1.0000
  H   H1481     1.0  0.60640  0.00592  0.39464  1.0000
  N   N79       1.0  0.77980  0.07318  0.55843  1.0000
  C   C1250     1.0  0.77361  0.09265  0.54997  1.0000
  C   C1251     1.0  0.77185  0.07037  0.57850  1.0000
  C   C1252     1.0  0.80026  0.06943  0.55584  1.0000
  C   C1253     1.0  0.77332  0.06157  0.55017  1.0000
  C   C1254     1.0  0.75406  0.06310  0.55209  1.0000
  C   C1255     1.0  0.78565  0.04854  0.54009  1.0000
  C   C1256     1.0  0.74759  0.05203  0.54479  1.0000
  C   C1257     1.0  0.77900  0.03742  0.53299  1.0000
  C   C1258     1.0  0.76003  0.03913  0.53536  1.0000
  H   H1482     1.0  0.75828  0.09713  0.55236  1.0000
  H   H1483     1.0  0.77845  0.10191  0.55556  1.0000
  H   H1484     1.0  0.77926  0.09528  0.53486  1.0000
  H   H1485     1.0  0.77550  0.05569  0.58525  1.0000
  H   H1486     1.0  0.75650  0.07480  0.58168  1.0000
  H   H1487     1.0  0.77701  0.07842  0.58522  1.0000
  H   H1488     1.0  0.80711  0.07245  0.54103  1.0000
  H   H1489     1.0  0.74378  0.07286  0.55933  1.0000
  H   H1490     1.0  0.80052  0.04672  0.53742  1.0000
  H   H1491     1.0  0.73279  0.05341  0.54660  1.0000
  H   H1492     1.0  0.78864  0.02746  0.52546  1.0000
  H   H1493     1.0  0.75498  0.03046  0.52983  1.0000
  N   N80       1.0  0.62337  0.06023  0.41286  1.0000
  H   H1494     1.0  0.70734  0.08643  0.50021  1.0000
  C   C1259     1.0  0.49808  0.11545  0.37927  1.0000
  C   C1260     1.0  0.61890  0.07502  0.39704  1.0000
  C   C1261     1.0  0.63762  0.06405  0.42005  1.0000
  C   C1262     1.0  0.63384  0.08001  0.42728  1.0000
  C   C1263     1.0  0.65538  0.05224  0.42031  1.0000
  C   C1264     1.0  0.64688  0.08374  0.43454  1.0000
  C   C1265     1.0  0.66824  0.05608  0.42770  1.0000
  C   C1266     1.0  0.66400  0.07173  0.43485  1.0000
  N   N81       1.0  0.67952  0.00524  0.34206  1.0000
  H   H1495     1.0  0.54149  0.05656  0.63788  1.0000
  C   C1267     1.0  0.68699  0.15948  0.39250  1.0000
  H   H1496     1.0  0.71642  0.13038  0.46626  1.0000
  H   H1497     1.0  0.79149  0.99442  0.43169  1.0000
  H   H1498     1.0  0.59947  0.07279  0.43133  1.0000
  H   H1499     1.0  0.63123  0.07554  0.38551  1.0000
  H   H1500     1.0  0.60764  0.07299  0.39179  1.0000
  H   H1501     1.0  0.61415  0.08877  0.40048  1.0000
  H   H1502     1.0  0.62074  0.08970  0.42737  1.0000
  H   H1503     1.0  0.65974  0.03993  0.41489  1.0000
  H   H1504     1.0  0.64369  0.09593  0.44010  1.0000
  H   H1505     1.0  0.68157  0.04678  0.42801  1.0000
  H   H1506     1.0  0.67398  0.07448  0.44073  1.0000
  N   N82       1.0  0.75129  0.17408  0.48215  1.0000
  C   C1268     1.0  0.75288  0.18980  0.46639  1.0000
  C   C1269     1.0  0.74158  0.18146  0.49895  1.0000
  C   C1270     1.0  0.77020  0.16414  0.48459  1.0000
  C   C1271     1.0  0.74167  0.16181  0.47834  1.0000
  C   C1272     1.0  0.74968  0.15290  0.46332  1.0000
  C   C1273     1.0  0.72403  0.15880  0.48882  1.0000
  C   C1274     1.0  0.71522  0.14739  0.48459  1.0000
  H   H1507     1.0  0.73901  0.19736  0.46368  1.0000
  H   H1508     1.0  0.75967  0.19959  0.46890  1.0000
  H   H1509     1.0  0.76141  0.18541  0.45352  1.0000
  H   H1510     1.0  0.72765  0.19014  0.49769  1.0000
  H   H1511     1.0  0.74941  0.19010  0.50185  1.0000
  H   H1512     1.0  0.73996  0.17023  0.51129  1.0000
  H   H1513     1.0  0.77945  0.16054  0.47171  1.0000
  H   H1514     1.0  0.77724  0.17237  0.48915  1.0000
  H   H1515     1.0  0.76990  0.15125  0.49505  1.0000
  H   H1516     1.0  0.76299  0.15468  0.45467  1.0000
  H   H1517     1.0  0.71676  0.16485  0.50056  1.0000
  H   H1518     1.0  0.70190  0.14508  0.49302  1.0000
  C   C1275     1.0  0.63761  0.17755  0.37167  1.0000
  H   H1519     1.0  0.51431  0.99913  0.35211  1.0000
  Fe  Fe170     1.0  0.59191  0.09384  0.32627  1.0000
  H   H1520     1.0  0.63786  0.05484  0.56938  1.0000
  C   C1276     1.0  0.58672  0.02237  0.62247  1.0000
  C   C1277     1.0  0.58728  0.03929  0.62492  1.0000
  H   H1521     1.0  0.93116  0.23226  0.61381  1.0000
  H   H1522     1.0  0.70731  0.05352  0.50832  1.0000
  C   C1278     1.0  0.72343  0.13898  0.46967  1.0000
  H   H1523     1.0  0.71993  0.03881  0.34673  1.0000
  H   H1524     1.0  0.54265  0.00486  0.61743  1.0000
  H   H1525     1.0  0.96867  0.21637  0.46442  1.0000
  H   H1526     1.0  0.61429  0.04712  0.55158  1.0000
  C   C1279     1.0  0.95816  0.21534  0.61558  1.0000
  H   H1527     1.0  0.80607  0.05499  0.56190  1.0000
  C   C1280     1.0  0.55807  0.04925  0.38830  1.0000
  H   H1528     1.0  0.59955  0.01295  0.61809  1.0000
  C   C1281     1.0  0.66298  0.09801  0.35417  1.0000
  H   H1529     1.0  0.53757  0.03592  0.33109  1.0000
  H   H1530     1.0  0.74681  0.13539  0.44726  1.0000
  H   H1531     1.0  0.61821  0.04023  0.40119  1.0000
  C   C1282     1.0  0.70239  0.02252  0.34434  1.0000
  C   C1283     1.0  0.67510  0.10582  0.33890  1.0000
  C   C1284     1.0  0.63267  0.16685  0.36271  1.0000
  H   H1532     1.0  0.59565  0.05529  0.42286  1.0000
  H   H1533     1.0  0.53802  0.98767  0.34819  1.0000
  H   H1534     1.0  0.79168  0.04120  0.37917  1.0000
  C   C1285     1.0  0.54365  0.11958  0.35884  1.0000
  H   H1535     1.0  0.73443  0.00782  0.55893  1.0000
  H   H1536     1.0  0.62265  0.06733  0.58608  1.0000
  H   H1537     1.0  0.58336  0.05823  0.55658  1.0000
  H   H1538     1.0  0.55375  0.12120  0.34540  1.0000
  H   H1539     1.0  0.72259  0.01490  0.58005  1.0000
  H   H1540     1.0  0.52667  0.99159  0.37059  1.0000
  C   C1286     1.0  0.62303  0.05973  0.57562  1.0000
  H   H1541     1.0  0.63198  0.05928  0.53957  1.0000
  H   H1542     1.0  0.55128  0.06366  0.57279  1.0000
  S   S345      1.0  0.93111  0.21284  0.51013  1.0000
  Fe  Fe171     1.0  0.61964  0.05804  0.32988  1.0000
  C   C1287     1.0  0.69450  0.01748  0.49733  1.0000
  S   S346      1.0  0.64651  0.01414  0.54881  1.0000
  C   C1288     1.0  0.56253  0.03987  0.37402  1.0000
  C   C1289     1.0  0.95632  0.22534  0.46023  1.0000
  C   C1290     1.0  0.80073  0.00381  0.42345  1.0000
  C   C1291     1.0  0.61701  0.06109  0.54643  1.0000
  C   C1292     1.0  0.57948  0.06666  0.56670  1.0000
  H   H1543     1.0  0.61745  0.04735  0.58308  1.0000
  H   H1544     1.0  0.60905  0.06855  0.53558  1.0000
  C   C1293     1.0  0.78249  0.07044  0.49075  1.0000
  N   N83       1.0  0.73854  0.98703  0.58305  1.0000
  H   H1545     1.0  0.79518  0.07614  0.48596  1.0000
  C   C1294     1.0  0.62078  0.00893  0.48258  1.0000
  N   N84       1.0  0.61235  0.07099  0.56161  1.0000
  C   C1295     1.0  0.59243  0.07439  0.57054  1.0000
  C   C1296     1.0  0.56091  0.06961  0.57603  1.0000
  C   C1297     1.0  0.76906  0.09612  0.46968  1.0000
  C   C1298     1.0  0.59196  0.03726  0.49397  1.0000
  H   H1546     1.0  0.77450  0.07537  0.50350  1.0000
  H   H1547     1.0  0.60205  0.15109  0.63767  1.0000
  H   H1548     1.0  0.97955  0.19227  0.58741  1.0000
  C   C1299     1.0  0.51130  0.09531  0.41061  1.0000
  H   H1549     1.0  0.64031  0.14167  0.35317  1.0000
  H   H1550     1.0  0.66009  0.00831  0.36755  1.0000
  S   S347      1.0  0.62354  0.05869  0.35745  1.0000
  S   S348      1.0  0.50928  0.08340  0.64759  1.0000
  H   H1551     1.0  0.63299  0.08649  0.54564  1.0000
  N   N85       1.0  0.53443  0.02497  0.63446  1.0000
  N   N86       1.0  0.77134  0.07602  0.47649  1.0000
  C   C1300     1.0  0.75361  0.07009  0.48452  1.0000
  H   H1552     1.0  0.78262  0.10000  0.46316  1.0000
  Fe  Fe172     1.0  0.91062  0.21889  0.56043  1.0000
  S   S349      1.0  0.60413  0.03666  0.52410  1.0000
  H   H1553     1.0  0.58085  0.04828  0.49825  1.0000
  C   C1301     1.0  0.56646  0.01492  0.42553  1.0000
  S   S350      1.0  0.89736  0.23576  0.53710  1.0000
  S   S351      1.0  0.57420  0.05990  0.39123  1.0000
  C   C1302     1.0  0.61846  0.08855  0.55373  1.0000
  C   C1303     1.0  0.58567  0.08493  0.58434  1.0000
  C   C1304     1.0  0.55472  0.08018  0.58942  1.0000
  S   S352      1.0  0.93890  0.22275  0.54588  1.0000
  H   H1554     1.0  0.57644  0.03769  0.36582  1.0000
  H   H1555     1.0  0.89736  0.23294  0.48966  1.0000
  S   S353      1.0  0.58873  0.06513  0.33768  1.0000
  H   H1556     1.0  0.57131  0.06448  0.63261  1.0000
  H   H1557     1.0  0.69833  0.13589  0.35840  1.0000
  S   S354      1.0  0.89914  0.22348  0.58933  1.0000
  C   C1305     1.0  0.56709  0.08783  0.59355  1.0000
  H   H1558     1.0  0.59483  0.09088  0.58818  1.0000
  H   H1559     1.0  0.54033  0.08245  0.59663  1.0000
  H   H1560     1.0  0.76054  0.10118  0.45903  1.0000
  H   H1561     1.0  0.64173  0.04246  0.39508  1.0000
  H   H1562     1.0  0.65898  0.02230  0.46286  1.0000
  H   H1563     1.0  0.60049  0.04301  0.62248  1.0000
  H   H1564     1.0  0.61816  0.09579  0.56441  1.0000
  H   H1565     1.0  0.60958  0.09796  0.54436  1.0000
  H   H1566     1.0  0.56232  0.09598  0.60402  1.0000
  H   H1567     1.0  0.89418  0.20024  0.47576  1.0000
  H   H1568     1.0  0.73527  0.09725  0.48535  1.0000
  H   H1569     1.0  0.76546  0.00072  0.42115  1.0000
  H   H1570     1.0  0.70004  0.15880  0.35656  1.0000
  Fe  Fe173     1.0  0.63396  0.00672  0.57900  1.0000
  C   C1306     1.0  0.67676  0.99798  0.49391  1.0000
  C   C1307     1.0  0.72013  0.07658  0.49708  1.0000
  H   H1571     1.0  0.65244  0.11596  0.61706  1.0000
  C   C1308     1.0  0.78183  0.06732  0.46069  1.0000
  C   C1309     1.0  0.73647  0.08264  0.48854  1.0000
  H   H1572     1.0  0.79500  0.07194  0.45420  1.0000
  S   S355      1.0  0.66170  0.99889  0.43824  1.0000
  H   H1573     1.0  0.62761  0.05845  0.63678  1.0000
  H   H1574     1.0  0.77372  0.07073  0.44985  1.0000
  C   C1310     1.0  0.60535  0.02869  0.50447  1.0000
  Fe  Fe174     1.0  0.63433  0.99325  0.44013  1.0000
  S   S356      1.0  0.60787  0.01111  0.45189  1.0000
  H   H1575     1.0  0.91769  0.19561  0.46344  1.0000
  H   H1576     1.0  0.65998  0.08368  0.38253  1.0000
  C   C1311     1.0  0.66055  0.14385  0.36656  1.0000
  H   H1577     1.0  0.53174  0.11821  0.32993  1.0000
  H   H1578     1.0  0.70851  0.00433  0.46813  1.0000
  H   H1579     1.0  0.68374  0.11858  0.38764  1.0000
  H   H1580     1.0  0.51905  0.05165  0.34233  1.0000
  C   C1312     1.0  0.66929  0.08933  0.37044  1.0000
  C   C1313     1.0  0.97587  0.21433  0.61792  1.0000
  Fe  Fe175     1.0  0.62394  0.08826  0.34512  1.0000
  C   C1314     1.0  0.94025  0.21869  0.46376  1.0000
  C   C1315     1.0  0.53117  0.05065  0.33057  1.0000
  H   H1581     1.0  0.70019  0.15361  0.39742  1.0000
  H   H1582     1.0  0.66746  0.02151  0.56955  1.0000
  H   H1583     1.0  0.53158  0.03872  0.60695  1.0000
  H   H1584     1.0  0.55188  0.11311  0.36961  1.0000
  N   N87       1.0  0.90595  0.22420  0.46391  1.0000
  H   H1585     1.0  0.61129  0.99868  0.36646  1.0000
  H   H1586     1.0  0.71284  0.13986  0.37062  1.0000
  H   H1587     1.0  0.58214  0.03801  0.47017  1.0000
  C   C1316     1.0  0.69575  0.05563  0.33729  1.0000
  H   H1588     1.0  0.52040  0.05249  0.62391  1.0000
  H   H1589     1.0  0.51406  0.13191  0.34381  1.0000
  S   S357      1.0  0.60517  0.01122  0.57475  1.0000
  C   C1317     1.0  0.55594  0.00537  0.42111  1.0000
  C   C1318     1.0  0.52146  0.11754  0.34329  1.0000
  S   S358      1.0  0.74901  0.99559  0.52517  1.0000
  S   S359      1.0  0.51451  0.02693  0.37639  1.0000
  C   C1319     1.0  0.51726  0.10720  0.37720  1.0000
  C   C1320     1.0  0.52372  0.03836  0.62141  1.0000
  H   H1590     1.0  0.63212  0.99826  0.47798  1.0000
  H   H1591     1.0  0.98562  0.20142  0.61731  1.0000
  C   C1321     1.0  0.67924  0.00323  0.32360  1.0000
  H   H1592     1.0  0.65701  0.18045  0.38496  1.0000
  H   H1593     1.0  0.58049  0.00487  0.36093  1.0000
  H   H1594     1.0  0.81026  0.99731  0.41217  1.0000
  C   C1322     1.0  0.69181  0.98850  0.35038  1.0000
  H   H1595     1.0  0.65602  0.99294  0.35605  1.0000
  H   H1596     1.0  0.59256  0.02255  0.41915  1.0000
  C   C1323     1.0  0.57934  0.99067  0.36817  1.0000
  C   C1324     1.0  0.73548  0.00647  0.57331  1.0000
  Fe  Fe176     1.0  0.66837  0.99470  0.40948  1.0000
  C   C1325     1.0  0.58220  0.99491  0.39712  1.0000
  H   H1597     1.0  0.56050  0.02266  0.43629  1.0000
  H   H1598     1.0  0.68314  0.99620  0.54908  1.0000
  H   H1599     1.0  0.95470  0.20345  0.61364  1.0000
  H   H1600     1.0  0.62864  0.19066  0.37359  1.0000
  H   H1601     1.0  0.88586  0.22220  0.45014  1.0000
  C   C1326     1.0  0.64413  0.15003  0.36016  1.0000
  C   C1327     1.0  0.62758  0.13502  0.62620  1.0000
  H   H1602     1.0  0.91185  0.20112  0.48598  1.0000
  H   H1603     1.0  0.51303  0.04571  0.40473  1.0000
  H   H1604     1.0  0.54167  0.00582  0.42841  1.0000
  H   H1605     1.0  0.90910  0.22054  0.43654  1.0000
  H   H1606     1.0  0.67034  0.06901  0.32838  1.0000
  Fe  Fe177     1.0  0.80448  0.99455  0.47459  1.0000
  H   H1607     1.0  0.69258  0.98914  0.36437  1.0000
  C   C1328     1.0  0.94487  0.23162  0.61554  1.0000
  H   H1608     1.0  0.63056  0.99545  0.32465  1.0000
  H   H1609     1.0  0.62433  0.01772  0.64133  1.0000
  H   H1610     1.0  0.75078  0.99128  0.60321  1.0000
  H   H1611     1.0  0.99606  0.23237  0.52498  1.0000
  H   H1612     1.0  0.70011  0.99380  0.41762  1.0000
  H   H1613     1.0  0.61996  0.17157  0.35768  1.0000
  H   H1614     1.0  0.87887  0.23002  0.48159  1.0000
  H   H1615     1.0  0.64496  0.09034  0.64259  1.0000
  C   C1329     1.0  0.63554  0.10363  0.64189  1.0000
  C   C1330     1.0  0.53579  0.00636  0.63180  1.0000
  H   H1616     1.0  0.57283  0.12617  0.64754  1.0000
  H   H1617     1.0  0.67022  0.11308  0.32647  1.0000
  C   C1331     1.0  0.89870  0.22748  0.44710  1.0000
  H   H1618     1.0  0.66735  0.99843  0.50764  1.0000
  C   C1332     1.0  0.67430  0.03963  0.33404  1.0000
  H   H1619     1.0  0.50702  0.08278  0.32435  1.0000
  H   H1620     1.0  0.99321  0.14086  0.55293  1.0000
  C   C1333     1.0  0.71199  0.99631  0.53825  1.0000
  H   H1621     1.0  0.54371  0.99559  0.64129  1.0000
  H   H1622     1.0  0.70134  0.99763  0.59759  1.0000
  H   H1623     1.0  0.72623  0.99468  0.60942  1.0000
  H   H1624     1.0  0.70713  0.00625  0.49770  1.0000
  S   S360      1.0  0.56735  0.99778  0.32035  1.0000
  C   C1334     1.0  0.89218  0.23470  0.47702  1.0000
  C   C1335     1.0  0.69593  0.98977  0.54115  1.0000
  C   C1336     1.0  0.72883  0.98766  0.52848  1.0000
  C   C1337     1.0  0.61890  0.00710  0.65203  1.0000
  Fe  Fe178     1.0  0.52428  0.19256  0.95982  1.0000
  S   S361      1.0  0.53805  0.19890  0.92987  1.0000
  Fe  Fe179     1.0  0.53338  0.10183  0.69471  1.0000
  H   H1625     1.0  0.59520  0.02582  0.66266  1.0000
  Fe  Fe180     1.0  0.53116  0.06260  0.70664  1.0000
  S   S362      1.0  0.52502  0.12569  0.78651  1.0000
  C   C1338     1.0  0.50714  0.14083  0.87671  1.0000
  C   C1339     1.0  0.62832  0.98895  0.65298  1.0000
  H   H1626     1.0  0.50535  0.03782  0.82109  1.0000
  S   S363      1.0  0.51004  0.08798  0.69899  1.0000
  H   H1627     1.0  0.53473  0.13671  0.82363  1.0000
  C   C1340     1.0  0.51366  0.04221  0.80771  1.0000
  H   H1628     1.0  0.51316  0.14318  0.83915  1.0000
  H   H1629     1.0  0.56426  0.02166  0.66905  1.0000
  C   C1341     1.0  0.52121  0.05727  0.80568  1.0000
  C   C1342     1.0  0.53365  0.13924  0.74980  1.0000
  H   H1630     1.0  0.51713  0.00268  0.73853  1.0000
  C   C1343     1.0  0.52582  0.12596  0.76348  1.0000
  S   S364      1.0  0.59199  0.06346  0.66213  1.0000
  C   C1344     1.0  0.58379  0.10904  0.68008  1.0000
  H   H1631     1.0  0.51385  0.14417  0.81562  1.0000
  H   H1632     1.0  0.59993  0.13312  0.68578  1.0000
  H   H1633     1.0  0.53125  0.01616  0.66382  1.0000
  H   H1634     1.0  0.52096  0.03988  0.65639  1.0000
  H   H1635     1.0  0.52697  0.23404  0.97874  1.0000
  H   H1636     1.0  0.55522  0.23394  0.91343  1.0000
  H   H1637     1.0  0.57797  0.03115  0.68924  1.0000
  H   H1638     1.0  0.53686  0.18378  0.79748  1.0000
  S   S365      1.0  0.55359  0.07664  0.70471  1.0000
  S   S366      1.0  0.52754  0.16292  0.90718  1.0000
  H   H1639     1.0  0.54099  0.15030  0.72081  1.0000
  C   C1345     1.0  0.52210  0.11292  0.73969  1.0000
  H   H1640     1.0  0.55874  0.13524  0.66716  1.0000
  H   H1641     1.0  0.53146  0.99835  0.80570  1.0000
  C   C1346     1.0  0.61881  0.10597  0.65482  1.0000
  Fe  Fe181     1.0  0.52242  0.08376  0.67011  1.0000
  Fe  Fe182     1.0  0.56221  0.07404  0.67519  1.0000
  H   H1642     1.0  0.52803  0.16765  0.79106  1.0000
  H   H1643     1.0  0.57006  0.11164  0.68964  1.0000
  S   S367      1.0  0.54078  0.18570  0.98178  1.0000
  C   C1347     1.0  0.57573  0.23077  0.96701  1.0000
  Fe  Fe183     1.0  0.50099  0.11800  0.80887  1.0000
  H   H1644     1.0  0.56145  0.99867  0.67360  1.0000
  C   C1348     1.0  0.53523  0.13973  0.73122  1.0000
  H   H1645     1.0  0.53133  0.13441  0.88831  1.0000
  N   N88       1.0  0.58799  0.12610  0.66720  1.0000
  S   S368      1.0  0.53143  0.12814  0.70255  1.0000
  H   H1646     1.0  0.58346  0.09886  0.67250  1.0000
  C   C1349     1.0  0.55000  0.15823  0.83572  1.0000
  H   H1647     1.0  0.51377  0.10255  0.76897  1.0000
  H   H1648     1.0  0.51041  0.02007  0.76551  1.0000
  C   C1350     1.0  0.52866  0.04018  0.77621  1.0000
  C   C1351     1.0  0.51296  0.15937  0.89479  1.0000
  C   C1352     1.0  0.53594  0.05540  0.77426  1.0000
  C   C1353     1.0  0.53216  0.06398  0.78896  1.0000
  H   H1649     1.0  0.51004  0.19047  0.84451  1.0000
  C   C1354     1.0  0.52969  0.12650  0.72608  1.0000
  C   C1355     1.0  0.51980  0.11287  0.75845  1.0000
  C   C1356     1.0  0.56837  0.22120  0.98424  1.0000
  C   C1357     1.0  0.52430  0.00084  0.79424  1.0000
  H   H1650     1.0  0.53490  0.00203  0.78116  1.0000
  H   H1651     1.0  0.57353  0.22827  0.95469  1.0000
  C   C1358     1.0  0.53218  0.16887  0.83355  1.0000
  N   N89       1.0  0.52315  0.16591  0.82026  1.0000
  Fe  Fe184     1.0  0.51447  0.22331  0.92851  1.0000
  C   C1359     1.0  0.50384  0.03866  0.70502  1.0000
  C   C1360     1.0  0.60224  0.01161  0.66446  1.0000
  H   H1652     1.0  0.54459  0.06054  0.76128  1.0000
  H   H1653     1.0  0.53777  0.07581  0.78746  1.0000
  H   H1654     1.0  0.50470  0.19246  0.81597  1.0000
  Fe  Fe185     1.0  0.51874  0.18409  0.92515  1.0000
  S   S369      1.0  0.54180  0.05731  0.67825  1.0000
  C   C1361     1.0  0.51690  0.03336  0.79287  1.0000
  C   C1362     1.0  0.51198  0.02872  0.71988  1.0000
  S   S370      1.0  0.50515  0.10723  0.83784  1.0000
  C   C1363     1.0  0.51840  0.14399  0.88671  1.0000
  H   H1655     1.0  0.53841  0.14929  0.75361  1.0000
  H   H1656     1.0  0.50407  0.05292  0.69973  1.0000
  C   C1364     1.0  0.53463  0.16956  0.80140  1.0000
  C   C1365     1.0  0.51107  0.01040  0.72691  1.0000
  S   S371      1.0  0.52416  0.03897  0.72889  1.0000
  H   H1657     1.0  0.49934  0.10767  0.90912  1.0000
  C   C1366     1.0  0.50434  0.17770  0.82005  1.0000
  H   H1658     1.0  0.52569  0.19383  0.86630  1.0000
  H   H1659     1.0  0.54845  0.16008  0.79999  1.0000
  C   C1367     1.0  0.52122  0.14668  0.82490  1.0000
  C   C1368     1.0  0.58839  0.13877  0.67833  1.0000
  S   S372      1.0  0.54360  0.10041  0.66495  1.0000
  N   N90       1.0  0.50913  0.01739  0.79449  1.0000
  C   C1369     1.0  0.57251  0.13436  0.65745  1.0000
  H   H1660     1.0  0.53234  0.03378  0.76453  1.0000
  C   C1370     1.0  0.60587  0.12307  0.65378  1.0000
  H   H1661     1.0  0.59407  0.10269  0.68894  1.0000
  H   H1662     1.0  0.57199  0.15176  0.85034  1.0000
  H   H1663     1.0  0.55726  0.14792  0.82774  1.0000
  C   C1371     1.0  0.53259  0.18419  0.85739  1.0000
  H   H1664     1.0  0.55628  0.17453  0.86978  1.0000
  H   H1665     1.0  0.61618  0.09397  0.66517  1.0000
  H   H1666     1.0  0.57520  0.14123  0.68876  1.0000
  C   C1372     1.0  0.54989  0.17328  0.85940  1.0000
  H   H1667     1.0  0.51002  0.02257  0.65618  1.0000
  C   C1373     1.0  0.50026  0.02014  0.77882  1.0000
  C   C1374     1.0  0.52372  0.18202  0.84478  1.0000
  C   C1375     1.0  0.55862  0.16037  0.84854  1.0000
  H   H1668     1.0  0.51129  0.12869  0.87099  1.0000
  C   C1376     1.0  0.56184  0.00960  0.68024  1.0000
  H   H1669     1.0  0.59039  0.15233  0.66971  1.0000
  H   H1670     1.0  0.51845  0.06383  0.81721  1.0000
  H   H1671     1.0  0.50429  0.07482  0.74913  1.0000
  S   S373      1.0  0.50179  0.21784  0.95858  1.0000
  H   H1672     1.0  0.55810  0.99241  0.71577  1.0000
  H   H1673     1.0  0.58832  0.01438  0.70661  1.0000
  C   C1377     1.0  0.57662  0.01821  0.69947  1.0000
  C   C1378     1.0  0.59457  0.99806  0.67850  1.0000
  H   H1674     1.0  0.56350  0.02171  0.70966  1.0000
  S   S374      1.0  0.50749  0.17526  0.95541  1.0000
  N   N91       1.0  0.57649  0.00321  0.69100  1.0000
  H   H1675     1.0  0.54790  0.01353  0.68909  1.0000
  H   H1676     1.0  0.50093  0.00974  0.82413  1.0000
  C   C1379     1.0  0.50260  0.00189  0.71864  1.0000
  H   H1677     1.0  0.56059  0.21117  0.98515  1.0000
  C   C1380     1.0  0.52381  0.02598  0.65348  1.0000
  H   H1678     1.0  0.51768  0.10272  0.73577  1.0000
  C   C1381     1.0  0.57142  0.98791  0.70625  1.0000
  H   H1679     1.0  0.51902  0.98840  0.79572  1.0000
  H   H1680     1.0  0.50161  0.98786  0.72434  1.0000
  H   H1681     1.0  0.49793  0.15851  0.70685  1.0000
  Fe  Fe186     1.0  0.60194  0.31499  0.09278  1.0000
  S   S375      1.0  0.57762  0.33555  0.08383  1.0000
  Fe  Fe187     1.0  0.62622  0.34303  0.08109  1.0000
  S   S376      1.0  0.60356  0.36591  0.07175  1.0000
  S   S377      1.0  0.65429  0.34994  0.07393  1.0000
  Fe  Fe188     1.0  0.58529  0.35370  0.09728  1.0000
  S   S378      1.0  0.56140  0.36983  0.11427  1.0000
  Fe  Fe189     1.0  0.59809  0.34574  0.05922  1.0000
  S   S379      1.0  0.59242  0.35566  0.03090  1.0000
  S   S380      1.0  0.60830  0.33257  0.10816  1.0000
  S   S381      1.0  0.62202  0.32341  0.06667  1.0000
  Fe  Fe190     1.0  0.67714  0.42223  0.10756  1.0000
  S   S382      1.0  0.66174  0.44308  0.08759  1.0000
  S   S383      1.0  0.66543  0.39754  0.12322  1.0000
  Fe  Fe191     1.0  0.70749  0.44327  0.10009  1.0000
  S   S384      1.0  0.69443  0.46589  0.07972  1.0000
  S   S385      1.0  0.73655  0.44344  0.10099  1.0000
  Fe  Fe192     1.0  0.66763  0.46339  0.09969  1.0000
  C   C1382     1.0  0.52673  0.28531  0.13417  1.0000
  Fe  Fe193     1.0  0.68969  0.44377  0.06943  1.0000
  S   S386      1.0  0.69423  0.44834  0.03895  1.0000
  S   S387      1.0  0.68092  0.44264  0.12146  1.0000
  S   S388      1.0  0.70483  0.42098  0.08809  1.0000
  S   S389      1.0  0.64488  0.41418  0.01133  1.0000
  C   C1383     1.0  0.58181  0.23704  0.99926  1.0000
  H   H1682     1.0  0.50367  0.38513  0.03292  1.0000
  H   H1683     1.0  0.75026  0.42015  0.05684  1.0000
  H   H1684     1.0  0.55410  0.33387  0.12781  1.0000
  H   H1685     1.0  0.54788  0.31249  0.10200  1.0000
  H   H1686     1.0  0.65065  0.29137  0.00081  1.0000
  H   H1687     1.0  0.60676  0.41399  0.99113  1.0000
  H   H1688     1.0  0.70842  0.46556  0.99194  1.0000
  H   H1689     1.0  0.72879  0.43213  0.05029  1.0000
  H   H1690     1.0  0.65444  0.44937  0.99931  1.0000
  H   H1691     1.0  0.93369  0.48039  0.18045  1.0000
  H   H1692     1.0  0.57347  0.28620  0.05464  1.0000
  H   H1693     1.0  0.63309  0.48194  0.04688  1.0000
  H   H1694     1.0  0.61422  0.43287  0.03718  1.0000
  H   H1695     1.0  0.67696  0.35256  0.00917  1.0000
  N   N92       1.0  0.71912  0.39475  0.00212  1.0000
  C   C1384     1.0  0.67783  0.44044  0.03321  1.0000
  C   C1385     1.0  0.67146  0.44939  0.01715  1.0000
  C   C1386     1.0  0.65977  0.44215  0.01141  1.0000
  C   C1387     1.0  0.65512  0.42556  0.02121  1.0000
  C   C1388     1.0  0.66056  0.41715  0.03789  1.0000
  C   C1389     1.0  0.67181  0.42472  0.04400  1.0000
  H   H1696     1.0  0.67578  0.46175  0.00895  1.0000
  C   C1390     1.0  0.52099  0.35794  0.03632  1.0000
  H   H1697     1.0  0.65681  0.40437  0.04561  1.0000
  H   H1698     1.0  0.67664  0.41788  0.05649  1.0000
  C   C1391     1.0  0.73028  0.48367  0.12806  1.0000
  H   H1699     1.0  0.71324  0.39642  0.06338  1.0000
  C   C1392     1.0  0.52117  0.26671  0.02970  1.0000
  H   H1700     1.0  0.94048  0.47663  0.28075  1.0000
  C   C1393     1.0  0.73512  0.40379  0.99548  1.0000
  H   H1701     1.0  0.52697  0.36101  0.04597  1.0000
  C   C1394     1.0  0.76118  0.47969  0.10894  1.0000
  H   H1702     1.0  0.58422  0.40233  0.01836  1.0000
  H   H1703     1.0  0.56286  0.38033  0.07558  1.0000
  C   C1395     1.0  0.64471  0.48337  0.05198  1.0000
  C   C1396     1.0  0.74036  0.46093  0.10908  1.0000
  C   C1397     1.0  0.72659  0.47005  0.12158  1.0000
  H   H1704     1.0  0.85949  0.46234  0.18862  1.0000
  C   C1398     1.0  0.72163  0.38192  0.98999  1.0000
  H   H1705     1.0  0.58355  0.25372  0.11664  1.0000
  C   C1399     1.0  0.75767  0.46574  0.10286  1.0000
  H   H1706     1.0  0.71323  0.46638  0.12652  1.0000
  C   C1400     1.0  0.51333  0.26290  0.99721  1.0000
  S   S390      1.0  0.51030  0.24074  0.08199  1.0000
  H   H1707     1.0  0.76838  0.45870  0.09328  1.0000
  C   C1401     1.0  0.65780  0.36263  0.08791  1.0000
  C   C1402     1.0  0.65025  0.35958  0.10681  1.0000
  C   C1403     1.0  0.65313  0.36999  0.11768  1.0000
  C   C1404     1.0  0.66340  0.38358  0.10968  1.0000
  C   C1405     1.0  0.67111  0.38649  0.09082  1.0000
  C   C1406     1.0  0.66837  0.37597  0.07998  1.0000
  H   H1708     1.0  0.64229  0.34912  0.11306  1.0000
  H   H1709     1.0  0.64723  0.36764  0.13230  1.0000
  H   H1710     1.0  0.67906  0.39691  0.08465  1.0000
  H   H1711     1.0  0.67420  0.37836  0.06536  1.0000
  C   C1407     1.0  0.54395  0.37590  0.10182  1.0000
  H   H1712     1.0  0.52196  0.37191  0.12569  1.0000
  C   C1408     1.0  0.59903  0.33722  0.01999  1.0000
  C   C1409     1.0  0.60070  0.31941  0.03043  1.0000
  C   C1410     1.0  0.60397  0.30466  0.02197  1.0000
  C   C1411     1.0  0.60519  0.32557  0.99239  1.0000
  H   H1713     1.0  0.73543  0.47069  0.04728  1.0000
  H   H1714     1.0  0.74805  0.39404  0.99852  1.0000
  H   H1715     1.0  0.59893  0.31712  0.04509  1.0000
  H   H1716     1.0  0.60454  0.29093  0.03019  1.0000
  C   C1412     1.0  0.52560  0.37539  0.11083  1.0000
  H   H1717     1.0  0.56879  0.35709  0.99145  1.0000
  H   H1718     1.0  0.58912  0.29879  0.07106  1.0000
  C   C1413     1.0  0.50295  0.35226  0.01215  1.0000
  C   C1414     1.0  0.52286  0.32195  0.14318  1.0000
  H   H1719     1.0  0.63289  0.38680  0.00108  1.0000
  H   H1720     1.0  0.52406  0.31686  0.15779  1.0000
  H   H1721     1.0  0.52119  0.33708  0.13986  1.0000
  H   H1722     1.0  0.51467  0.29391  0.12932  1.0000
  H   H1723     1.0  0.60114  0.35403  0.99268  1.0000
  H   H1724     1.0  0.52809  0.23733  0.03637  1.0000
  C   C1415     1.0  0.76863  0.44822  0.04121  1.0000
  C   C1416     1.0  0.78036  0.45837  0.02712  1.0000
  C   C1417     1.0  0.77398  0.44115  0.05843  1.0000
  C   C1418     1.0  0.79655  0.46099  0.03000  1.0000
  S   S391      1.0  0.55542  0.25630  0.06563  1.0000
  C   C1419     1.0  0.65048  0.31942  0.98730  1.0000
  H   H1725     1.0  0.74216  0.43675  0.01876  1.0000
  H   H1726     1.0  0.77694  0.46460  0.01385  1.0000
  H   H1727     1.0  0.63948  0.37571  0.02936  1.0000
  C   C1420     1.0  0.55487  0.31874  0.02391  1.0000
  C   C1421     1.0  0.71673  0.36713  0.02866  1.0000
  H   H1728     1.0  0.58423  0.42831  0.03555  1.0000
  C   C1422     1.0  0.64172  0.36125  0.02816  1.0000
  H   H1729     1.0  0.65622  0.47139  0.04954  1.0000
  H   H1730     1.0  0.64007  0.48230  0.06715  1.0000
  H   H1731     1.0  0.56255  0.32957  0.01600  1.0000
  C   C1423     1.0  0.50752  0.37202  0.02894  1.0000
  C   C1424     1.0  0.51981  0.24747  0.01035  1.0000
  C   C1425     1.0  0.58343  0.40169  0.00476  1.0000
  C   C1426     1.0  0.54867  0.38020  0.08261  1.0000
  H   H1732     1.0  0.55253  0.36598  0.00998  1.0000
  H   H1733     1.0  0.74471  0.47380  0.02293  1.0000
  H   H1734     1.0  0.61689  0.47788  0.99439  1.0000
  C   C1427     1.0  0.55561  0.31877  0.13203  1.0000
  C   C1428     1.0  0.71453  0.38822  0.05360  1.0000
  H   H1735     1.0  0.91576  0.46837  0.19128  1.0000
  H   H1736     1.0  0.71725  0.35824  0.01987  1.0000
  H   H1737     1.0  0.68946  0.40282  0.00589  1.0000
  C   C1429     1.0  0.55697  0.26169  0.14735  1.0000
  C   C1430     1.0  0.54307  0.25463  0.14518  1.0000
  H   H1738     1.0  0.55779  0.31490  0.14634  1.0000
  H   H1739     1.0  0.51241  0.29566  0.01987  1.0000
  H   H1740     1.0  0.55949  0.31814  0.05674  1.0000
  C   C1431     1.0  0.92191  0.47638  0.17786  1.0000
  C   C1432     1.0  0.56793  0.26381  0.07710  1.0000
  N   N93       1.0  0.53995  0.32508  0.03912  1.0000
  H   H1741     1.0  0.51915  0.32526  0.01528  1.0000
  H   H1742     1.0  0.71372  0.34518  0.05253  1.0000
  C   C1433     1.0  0.65069  0.30481  0.00236  1.0000
  C   C1434     1.0  0.71383  0.36985  0.05987  1.0000
  H   H1743     1.0  0.52394  0.26814  0.04224  1.0000
  S   S392      1.0  0.95221  0.45443  0.31621  1.0000
  C   C1435     1.0  0.80137  0.45391  0.04703  1.0000
  C   C1436     1.0  0.60527  0.23930  0.01380  1.0000
  C   C1437     1.0  0.71481  0.35936  0.04745  1.0000
  C   C1438     1.0  0.58845  0.42427  0.04859  1.0000
  C   C1439     1.0  0.51099  0.28038  0.00107  1.0000
  H   H1744     1.0  0.70944  0.37562  0.99326  1.0000
  N   N94       1.0  0.60524  0.40776  0.10068  1.0000
  C   C1440     1.0  0.60785  0.38762  0.10655  1.0000
  C   C1441     1.0  0.62278  0.41263  0.10021  1.0000
  C   C1442     1.0  0.59062  0.41629  0.11479  1.0000
  C   C1443     1.0  0.59967  0.41369  0.08273  1.0000
  C   C1444     1.0  0.61097  0.42170  0.06630  1.0000
  C   C1445     1.0  0.58263  0.41104  0.08118  1.0000
  C   C1446     1.0  0.60533  0.42690  0.04956  1.0000
  C   C1447     1.0  0.57712  0.41636  0.06437  1.0000
  C   C1448     1.0  0.55492  0.36594  0.99518  1.0000
  H   H1745     1.0  0.61821  0.38075  0.09593  1.0000
  H   H1746     1.0  0.61280  0.38240  0.11966  1.0000
  H   H1747     1.0  0.59482  0.38294  0.10888  1.0000
  H   H1748     1.0  0.63465  0.40574  0.09071  1.0000
  H   H1749     1.0  0.62655  0.40820  0.11393  1.0000
  H   H1750     1.0  0.62179  0.42765  0.09600  1.0000
  H   H1751     1.0  0.57753  0.41151  0.11777  1.0000
  H   H1752     1.0  0.59492  0.41287  0.12817  1.0000
  H   H1753     1.0  0.58739  0.43145  0.11031  1.0000
  H   H1754     1.0  0.62433  0.42396  0.06592  1.0000
  H   H1755     1.0  0.57355  0.40454  0.09294  1.0000
  H   H1756     1.0  0.53286  0.39681  0.00411  1.0000
  H   H1757     1.0  0.53671  0.33488  0.10681  1.0000
  C   C1449     1.0  0.60178  0.34029  0.00090  1.0000
  C   C1450     1.0  0.51671  0.38381  0.08135  1.0000
  H   H1758     1.0  0.76496  0.42489  0.02278  1.0000
  H   H1759     1.0  0.51884  0.31408  0.06047  1.0000
  C   C1451     1.0  0.58404  0.28652  0.07757  1.0000
  H   H1760     1.0  0.53853  0.33378  0.06388  1.0000
  C   C1452     1.0  0.73863  0.46434  0.03513  1.0000
  S   S393      1.0  0.49992  0.38898  0.06830  1.0000
  C   C1453     1.0  0.79014  0.44398  0.06117  1.0000
  N   N95       1.0  0.53917  0.31304  0.13075  1.0000
  H   H1761     1.0  0.76108  0.44744  0.00863  1.0000
  S   S394      1.0  0.60596  0.29020  0.99279  1.0000
  H   H1762     1.0  0.80531  0.46870  0.01901  1.0000
  H   H1763     1.0  0.60835  0.24074  0.02656  1.0000
  C   C1454     1.0  0.51202  0.37898  0.10056  1.0000
  H   H1764     1.0  0.72531  0.46358  0.03263  1.0000
  H   H1765     1.0  0.52316  0.31868  0.10995  1.0000
  C   C1455     1.0  0.53099  0.30966  0.04973  1.0000
  H   H1766     1.0  0.56600  0.24216  0.10122  1.0000
  H   H1767     1.0  0.50605  0.29296  0.99201  1.0000
  H   H1768     1.0  0.50973  0.31929  0.14218  1.0000
  C   C1456     1.0  0.64897  0.34040  0.00672  1.0000
  H   H1769     1.0  0.56404  0.41417  0.06360  1.0000
  C   C1457     1.0  0.65037  0.32498  0.02151  1.0000
  H   H1770     1.0  0.79382  0.43863  0.07450  1.0000
  H   H1771     1.0  0.70025  0.42015  0.00685  1.0000
  H   H1772     1.0  0.54960  0.31443  0.01406  1.0000
  H   H1773     1.0  0.53867  0.38813  0.05755  1.0000
  H   H1774     1.0  0.65111  0.32608  0.03488  1.0000
  C   C1458     1.0  0.53663  0.32003  0.11154  1.0000
  C   C1459     1.0  0.57499  0.27949  0.06844  1.0000
  C   C1460     1.0  0.74134  0.43398  0.05347  1.0000
  H   H1775     1.0  0.54443  0.35926  0.99373  1.0000
  C   C1461     1.0  0.71763  0.38585  0.02180  1.0000
  C   C1462     1.0  0.54882  0.32985  0.05155  1.0000
  H   H1776     1.0  0.73637  0.43986  0.06603  1.0000
  H   H1777     1.0  0.71609  0.41067  0.03082  1.0000
  H   H1778     1.0  0.56766  0.28495  0.14398  1.0000
  H   H1779     1.0  0.65119  0.29612  0.03107  1.0000
  C   C1463     1.0  0.66682  0.36292  0.00174  1.0000
  C   C1464     1.0  0.88246  0.47572  0.18085  1.0000
  H   H1780     1.0  0.81374  0.45626  0.04937  1.0000
  H   H1781     1.0  0.76578  0.43364  0.07015  1.0000
  C   C1465     1.0  0.51481  0.28216  0.01711  1.0000
  C   C1466     1.0  0.54080  0.29297  0.13582  1.0000
  C   C1467     1.0  0.75512  0.43841  0.02136  1.0000
  C   C1468     1.0  0.71629  0.39620  0.03490  1.0000
  H   H1782     1.0  0.54060  0.29813  0.05673  1.0000
  N   N96       1.0  0.75127  0.44614  0.03798  1.0000
  H   H1783     1.0  0.56522  0.30673  0.02911  1.0000
  H   H1784     1.0  0.55990  0.26082  0.02075  1.0000
  C   C1469     1.0  0.63521  0.37302  0.99811  1.0000
  H   H1785     1.0  0.62839  0.35691  0.03461  1.0000
  C   C1470     1.0  0.57094  0.25454  0.09458  1.0000
  H   H1786     1.0  0.57837  0.26335  0.02933  1.0000
  H   H1787     1.0  0.71197  0.36386  0.07447  1.0000
  Fe  Fe194     1.0  0.95502  0.48364  0.30822  1.0000
  H   H1788     1.0  0.55611  0.34120  0.04435  1.0000
  H   H1789     1.0  0.52581  0.30392  0.04093  1.0000
  S   S395      1.0  0.59819  0.28637  0.10652  1.0000
  H   H1790     1.0  0.85205  0.47229  0.15779  1.0000
  C   C1471     1.0  0.52598  0.34050  0.03155  1.0000
  C   C1472     1.0  0.58077  0.26117  0.10338  1.0000
  C   C1473     1.0  0.60559  0.30785  0.00299  1.0000
  H   H1791     1.0  0.56011  0.38950  0.01506  1.0000
  C   C1474     1.0  0.64983  0.33693  0.98935  1.0000
  C   C1475     1.0  0.58694  0.27742  0.09506  1.0000
  C   C1476     1.0  0.52364  0.24939  0.02633  1.0000
  C   C1477     1.0  0.52795  0.26643  0.13863  1.0000
  H   H1792     1.0  0.56839  0.31264  0.12288  1.0000
  C   C1478     1.0  0.51655  0.33820  0.01919  1.0000
  C   C1479     1.0  0.65085  0.30754  0.01939  1.0000
  H   H1793     1.0  0.92419  0.47673  0.25702  1.0000
  H   H1794     1.0  0.62147  0.36940  0.00153  1.0000
  C   C1480     1.0  0.53500  0.38453  0.07239  1.0000
  N   N97       1.0  0.64810  0.35905  0.00875  1.0000
  H   H1795     1.0  0.56889  0.25247  0.15217  1.0000
  H   H1796     1.0  0.51714  0.26095  0.13690  1.0000
  C   C1481     1.0  0.55604  0.28055  0.14261  1.0000
  H   H1797     1.0  0.88493  0.47139  0.19463  1.0000
  H   H1798     1.0  0.61061  0.25029  0.00282  1.0000
  H   H1799     1.0  0.54412  0.23999  0.14836  1.0000
  C   C1482     1.0  0.57511  0.25949  0.01787  1.0000
  H   H1800     1.0  0.57870  0.26988  0.00530  1.0000
  C   C1483     1.0  0.49840  0.36913  0.01704  1.0000
  H   H1801     1.0  0.77454  0.48335  0.10398  1.0000
  H   H1802     1.0  0.66693  0.37659  0.00361  1.0000
  C   C1484     1.0  0.53564  0.39614  0.98939  1.0000
  C   C1485     1.0  0.59627  0.40803  0.98946  1.0000
  C   C1486     1.0  0.70197  0.40878  0.99996  1.0000
  C   C1487     1.0  0.56973  0.39418  0.00270  1.0000
  N   N98       1.0  0.58518  0.24071  0.01578  1.0000
  H   H1803     1.0  0.92762  0.46709  0.16797  1.0000
  C   C1488     1.0  0.86374  0.47587  0.16020  1.0000
  H   H1804     1.0  0.65205  0.35342  0.03663  1.0000
  H   H1805     1.0  0.73434  0.37095  0.99098  1.0000
  H   H1806     1.0  0.67729  0.48327  0.11787  1.0000
  H   H1807     1.0  0.73296  0.41577  0.00166  1.0000
  H   H1808     1.0  0.52422  0.39083  0.98778  1.0000
  C   C1489     1.0  0.86788  0.47042  0.17757  1.0000
  H   H1809     1.0  0.87696  0.48461  0.01744  1.0000
  H   H1810     1.0  0.67182  0.36267  0.98682  1.0000
  C   C1490     1.0  0.89330  0.48679  0.16677  1.0000
  C   C1491     1.0  0.87421  0.48656  0.14603  1.0000
  C   C1492     1.0  0.94318  0.48534  0.26727  1.0000
  C   C1493     1.0  0.93403  0.48535  0.25385  1.0000
  H   H1811     1.0  0.87507  0.48203  0.98743  1.0000
  H   H1812     1.0  0.92574  0.43367  0.45417  1.0000
  H   H1813     1.0  0.87197  0.31680  0.63767  1.0000
  S   S396      1.0  0.93823  0.26225  0.50775  1.0000
  C   C1494     1.0  0.99403  0.45686  0.38345  1.0000
  Fe  Fe195     1.0  0.93840  0.37091  0.42553  1.0000
  S   S397      1.0  0.91752  0.39453  0.43538  1.0000
  S   S398      1.0  0.96733  0.37493  0.41181  1.0000
  Fe  Fe196     1.0  0.91167  0.34534  0.44011  1.0000
  S   S399      1.0  0.88878  0.36674  0.45177  1.0000
  S   S400      1.0  0.90554  0.31781  0.44305  1.0000
  Fe  Fe197     1.0  0.89766  0.38549  0.42511  1.0000
  S   S401      1.0  0.87487  0.40421  0.41179  1.0000
  Fe  Fe198     1.0  0.91048  0.37393  0.46114  1.0000
  S   S402      1.0  0.90380  0.38148  0.48879  1.0000
  S   S403      1.0  0.91918  0.36365  0.41261  1.0000
  S   S404      1.0  0.93274  0.35061  0.45204  1.0000
  S   S405      1.0  0.95162  0.29675  0.58514  1.0000
  C   C1495     1.0  0.91256  0.25462  0.58472  1.0000
  Fe  Fe199     1.0  0.96460  0.30630  0.60243  1.0000
  C   C1496     1.0  0.92371  0.38781  0.63755  1.0000
  Fe  Fe200     1.0  0.94907  0.32548  0.56872  1.0000
  S   S406      1.0  0.95816  0.32923  0.53816  1.0000
  N   N99       1.0  0.97860  0.40493  0.64047  1.0000
  H   H1814     1.0  0.98677  0.37050  0.55613  1.0000
  C   C1497     1.0  0.92760  0.46616  0.40511  1.0000
  C   C1498     1.0  0.97844  0.37510  0.42885  1.0000
  H   H1815     1.0  0.94230  0.45545  0.43512  1.0000
  H   H1816     1.0  0.88159  0.35535  0.62608  1.0000
  H   H1817     1.0  0.96441  0.38669  0.63550  1.0000
  C   C1499     1.0  0.97699  0.37315  0.46097  1.0000
  C   C1500     1.0  0.96814  0.37533  0.44672  1.0000
  H   H1818     1.0  0.94047  0.26946  0.44047  1.0000
  H   H1819     1.0  0.94006  0.47076  0.39570  1.0000
  H   H1820     1.0  0.96900  0.37254  0.47488  1.0000
  H   H1821     1.0  0.95334  0.37681  0.44968  1.0000
  C   C1501     1.0  0.91952  0.36840  0.50252  1.0000
  C   C1502     1.0  0.93670  0.35874  0.49463  1.0000
  C   C1503     1.0  0.94864  0.34710  0.50571  1.0000
  C   C1504     1.0  0.94331  0.34485  0.52481  1.0000
  C   C1505     1.0  0.92637  0.35496  0.53279  1.0000
  C   C1506     1.0  0.91455  0.36691  0.52161  1.0000
  H   H1822     1.0  0.94091  0.36034  0.47995  1.0000
  H   H1823     1.0  0.96200  0.33978  0.49942  1.0000
  H   H1824     1.0  0.92230  0.35354  0.54750  1.0000
  H   H1825     1.0  0.90133  0.37455  0.52778  1.0000
  H   H1826     1.0  0.91698  0.32955  0.49274  1.0000
  C   C1507     1.0  0.91324  0.27009  0.59062  1.0000
  C   C1508     1.0  0.98550  0.36201  0.52503  1.0000
  H   H1827     1.0  0.92244  0.27890  0.58225  1.0000
  C   C1509     1.0  0.88611  0.31680  0.49926  1.0000
  C   C1510     1.0  0.93042  0.27569  0.48819  1.0000
  C   C1511     1.0  0.93930  0.28974  0.47768  1.0000
  C   C1512     1.0  0.93206  0.30227  0.46332  1.0000
  C   C1513     1.0  0.91591  0.30080  0.45942  1.0000
  C   C1514     1.0  0.90753  0.28613  0.46928  1.0000
  C   C1515     1.0  0.91478  0.27354  0.48376  1.0000
  H   H1828     1.0  0.95160  0.29118  0.48088  1.0000
  H   H1829     1.0  0.93904  0.31302  0.45523  1.0000
  H   H1830     1.0  0.89503  0.28498  0.46622  1.0000
  H   H1831     1.0  0.90793  0.26264  0.49189  1.0000
  H   H1832     1.0  0.87974  0.23880  0.62032  1.0000
  C   C1516     1.0  0.94929  0.24709  0.61752  1.0000
  C   C1517     1.0  0.90524  0.43282  0.36800  1.0000
  C   C1518     1.0  0.90010  0.42084  0.38470  1.0000
  C   C1519     1.0  0.88179  0.41881  0.39086  1.0000
  C   C1520     1.0  0.86870  0.42862  0.38027  1.0000
  H   H1833     1.0  0.91942  0.43393  0.36300  1.0000
  H   H1834     1.0  0.91018  0.41318  0.39286  1.0000
  H   H1835     1.0  0.85452  0.42703  0.38502  1.0000
  H   H1836     1.0  0.92106  0.47598  0.41440  1.0000
  C   C1521     1.0  0.87367  0.30958  0.56423  1.0000
  H   H1837     1.0  0.89322  0.26756  0.55461  1.0000
  S   S407      1.0  0.89855  0.45725  0.33610  1.0000
  S   S408      1.0  0.93806  0.31502  0.62188  1.0000
  C   C1522     1.0  0.87392  0.44038  0.36347  1.0000
  C   C1523     1.0  0.99235  0.24896  0.55254  1.0000
  H   H1838     1.0  0.89293  0.30246  0.49852  1.0000
  H   H1839     1.0  0.97213  0.38340  0.33315  1.0000
  H   H1840     1.0  0.92136  0.25143  0.57196  1.0000
  C   C1524     1.0  0.99074  0.42106  0.38725  1.0000
  H   H1841     1.0  0.98759  0.33230  0.64667  1.0000
  C   C1525     1.0  0.97762  0.39152  0.63036  1.0000
  H   H1842     1.0  0.98920  0.37928  0.63154  1.0000
  H   H1843     1.0  0.88885  0.24959  0.47111  1.0000
  H   H1844     1.0  0.90157  0.28588  0.52391  1.0000
  H   H1845     1.0  0.95994  0.38711  0.50203  1.0000
  C   C1526     1.0  0.91273  0.32145  0.50683  1.0000
  C   C1527     1.0  0.89339  0.29301  0.53472  1.0000
  Fe  Fe201     1.0  0.96390  0.45341  0.34013  1.0000
  H   H1846     1.0  0.91773  0.39984  0.62843  1.0000
  C   C1528     1.0  0.97950  0.39451  0.51314  1.0000
  H   H1847     1.0  0.98822  0.46183  0.35688  1.0000
  N   N100      1.0  0.95570  0.38698  0.35989  1.0000
  C   C1529     1.0  0.95252  0.39974  0.37217  1.0000
  C   C1530     1.0  0.96282  0.36823  0.36987  1.0000
  C   C1531     1.0  0.97049  0.39153  0.34357  1.0000
  C   C1532     1.0  0.93812  0.38890  0.35441  1.0000
  C   C1533     1.0  0.93138  0.40459  0.34164  1.0000
  C   C1534     1.0  0.92648  0.37618  0.36264  1.0000
  C   C1535     1.0  0.99719  0.29577  0.62665  1.0000
  C   C1536     1.0  0.90918  0.37915  0.35841  1.0000
  H   H1848     1.0  0.91794  0.32622  0.51642  1.0000
  H   H1849     1.0  0.94172  0.39666  0.38476  1.0000
  H   H1850     1.0  0.96534  0.39884  0.37673  1.0000
  H   H1851     1.0  0.94810  0.41419  0.36523  1.0000
  H   H1852     1.0  0.95374  0.36468  0.38362  1.0000
  H   H1853     1.0  0.97653  0.36693  0.37294  1.0000
  H   H1854     1.0  0.89500  0.24225  0.44081  1.0000
  H   H1855     1.0  0.96783  0.40627  0.33688  1.0000
  H   H1856     1.0  0.95207  0.39501  0.54325  1.0000
  C   C1537     1.0  0.96496  0.42209  0.63583  1.0000
  C   C1538     1.0  0.93803  0.35559  0.64367  1.0000
  H   H1857     1.0  0.93017  0.36404  0.37275  1.0000
  H   H1858     1.0  0.89980  0.44727  0.40724  1.0000
  Fe  Fe202     1.0  0.92494  0.46558  0.33346  1.0000
  H   H1859     1.0  0.99217  0.25286  0.63525  1.0000
  H   H1860     1.0  0.88946  0.39716  0.34288  1.0000
  H   H1861     1.0  0.95671  0.28526  0.52311  1.0000
  H   H1862     1.0  0.89828  0.42375  0.47377  1.0000
  C   C1539     1.0  0.89218  0.44262  0.35735  1.0000
  H   H1863     1.0  0.92016  0.30702  0.50679  1.0000
  C   C1540     1.0  0.90041  0.24331  0.59544  1.0000
  C   C1541     1.0  0.98479  0.26854  0.52384  1.0000
  H   H1864     1.0  0.90367  0.34631  0.63210  1.0000
  C   C1542     1.0  0.98977  0.45187  0.36933  1.0000
  H   H1865     1.0  0.96873  0.24877  0.44954  1.0000
  C   C1543     1.0  0.88360  0.43030  0.45208  1.0000
  C   C1544     1.0  0.98821  0.43402  0.37107  1.0000
  S   S409      1.0  0.98970  0.28758  0.61154  1.0000
  H   H1866     1.0  0.87270  0.43703  0.42770  1.0000
  H   H1867     1.0  0.91788  0.46773  0.39620  1.0000
  Fe  Fe203     1.0  0.92488  0.30796  0.60284  1.0000
  Fe  Fe204     1.0  0.93689  0.34229  0.60239  1.0000
  S   S410      1.0  0.96467  0.33410  0.58434  1.0000
  H   H1868     1.0  0.87562  0.28224  0.58064  1.0000
  H   H1869     1.0  0.95271  0.43219  0.43201  1.0000
  H   H1870     1.0  0.93897  0.25984  0.61717  1.0000
  C   C1545     1.0  0.87896  0.29060  0.56700  1.0000
  H   H1871     1.0  0.86377  0.44782  0.35528  1.0000
  H   H1872     1.0  0.96361  0.40929  0.47305  1.0000
  H   H1873     1.0  0.88939  0.32488  0.48494  1.0000
  H   H1874     1.0  0.97756  0.35962  0.51616  1.0000
  C   C1546     1.0  0.90162  0.27430  0.60712  1.0000
  H   H1875     1.0  0.87091  0.31764  0.50321  1.0000
  H   H1876     1.0  0.98405  0.39459  0.54733  1.0000
  H   H1877     1.0  0.89982  0.30680  0.64833  1.0000
  C   C1547     1.0  0.94048  0.25519  0.44673  1.0000
  H   H1878     1.0  0.86635  0.31591  0.57586  1.0000
  C   C1548     1.0  0.88420  0.43694  0.43336  1.0000
  H   H1879     1.0  0.94993  0.37842  0.53205  1.0000
  S   S411      1.0  0.92809  0.36984  0.61016  1.0000
  H   H1880     1.0  0.99283  0.26136  0.55684  1.0000
  C   C1549     1.0  0.99191  0.40643  0.50863  1.0000
  H   H1881     1.0  0.95014  0.25980  0.54204  1.0000
  C   C1550     1.0  0.93035  0.37109  0.63182  1.0000
  C   C1551     1.0  0.91444  0.43519  0.44775  1.0000
  H   H1882     1.0  0.98564  0.42950  0.46586  1.0000
  H   H1883     1.0  0.96584  0.30823  0.49659  1.0000
  C   C1552     1.0  0.88887  0.28235  0.55230  1.0000
  C   C1553     1.0  0.97636  0.29691  0.50154  1.0000
  C   C1554     1.0  0.95639  0.24356  0.45185  1.0000
  H   H1884     1.0  0.96435  0.35781  0.36182  1.0000
  H   H1885     1.0  0.93879  0.41546  0.33557  1.0000
  C   C1555     1.0  0.89090  0.34252  0.63164  1.0000
  C   C1556     1.0  0.96913  0.39616  0.49990  1.0000
  H   H1886     1.0  0.96518  0.43248  0.64325  1.0000
  C   C1557     1.0  0.91425  0.40721  0.33723  1.0000
  C   C1558     1.0  0.88955  0.26298  0.61765  1.0000
  C   C1559     1.0  0.98787  0.31246  0.63168  1.0000
  N   N101      1.0  0.89237  0.32336  0.51240  1.0000
  H   H1887     1.0  0.89513  0.33354  0.62148  1.0000
  C   C1560     1.0  0.96053  0.25831  0.55025  1.0000
  H   H1888     1.0  0.97825  0.39735  0.61548  1.0000
  H   H1889     1.0  0.90025  0.36959  0.36534  1.0000
  N   N102      1.0  0.88173  0.33332  0.64993  1.0000
  H   H1890     1.0  0.95259  0.43834  0.39259  1.0000
  C   C1561     1.0  0.98865  0.38110  0.54323  1.0000
  S   S412      1.0  0.90133  0.29361  0.61516  1.0000
  S   S413      1.0  0.93638  0.46191  0.35806  1.0000
  H   H1891     1.0  0.88703  0.35083  0.49621  1.0000
  H   H1892     1.0  0.88884  0.34960  0.51891  1.0000
  N   N103      1.0  0.97810  0.38008  0.53014  1.0000
  C   C1562     1.0  0.86659  0.32655  0.64719  1.0000
  C   C1563     1.0  0.94722  0.44641  0.42500  1.0000
  C   C1564     1.0  0.90307  0.39464  0.34575  1.0000
  H   H1893     1.0  0.87166  0.42529  0.46095  1.0000
  S   S414      1.0  0.92110  0.33609  0.58504  1.0000
  C   C1565     1.0  0.97131  0.28358  0.51698  1.0000
  C   C1566     1.0  0.94015  0.43459  0.40273  1.0000
  C   C1567     1.0  0.87789  0.32041  0.54664  1.0000
  H   H1894     1.0  0.99141  0.30013  0.53652  1.0000
  C   C1568     1.0  0.88765  0.31238  0.53123  1.0000
  C   C1569     1.0  0.98366  0.42010  0.47908  1.0000
  H   H1895     1.0  0.93012  0.43481  0.39466  1.0000
  S   S415      1.0  0.98239  0.42841  0.35316  1.0000
  H   H1896     1.0  0.88055  0.26608  0.63038  1.0000
  H   H1897     1.0  0.97582  0.32042  0.62635  1.0000
  H   H1898     1.0  0.95746  0.24734  0.56256  1.0000
  H   H1899     1.0  0.94434  0.42019  0.41011  1.0000
  H   H1900     1.0  0.87348  0.33501  0.54551  1.0000
  N   N104      1.0  0.93237  0.44717  0.41571  1.0000
  C   C1570     1.0  0.95847  0.38123  0.54004  1.0000
  H   H1901     1.0  0.95931  0.45113  0.41500  1.0000
  H   H1902     1.0  0.98407  0.38896  0.34740  1.0000
  H   H1903     1.0  0.94342  0.34270  0.63930  1.0000
  C   C1571     1.0  0.97120  0.40879  0.48317  1.0000
  C   C1572     1.0  0.89863  0.42950  0.45926  1.0000
  H   H1904     1.0  0.98521  0.35055  0.53729  1.0000
  H   H1905     1.0  0.96978  0.25879  0.62076  1.0000
  H   H1906     1.0  0.91219  0.25848  0.44661  1.0000
  H   H1907     1.0  0.86834  0.34552  0.51489  1.0000
  H   H1908     1.0  0.85633  0.33792  0.64087  1.0000
  C   C1573     1.0  0.99471  0.42619  0.40165  1.0000
  C   C1574     1.0  0.91556  0.44192  0.42853  1.0000
  C   C1575     1.0  0.99759  0.37407  0.42502  1.0000
  C   C1576     1.0  0.89988  0.44271  0.42173  1.0000
  H   H1909     1.0  0.95798  0.27120  0.55514  1.0000
  H   H1910     1.0  0.96788  0.42823  0.62088  1.0000
  H   H1911     1.0  0.95712  0.37092  0.55322  1.0000
  C   C1577     1.0  0.88370  0.34314  0.51067  1.0000
  C   C1578     1.0  0.88908  0.24752  0.61194  1.0000
  H   H1912     1.0  0.95061  0.41976  0.63962  1.0000
  H   H1913     1.0  0.98935  0.40723  0.38880  1.0000
  C   C1579     1.0  0.99446  0.31912  0.64329  1.0000
  S   S416      1.0  0.96909  0.48181  0.33073  1.0000
  C   C1580     1.0  0.96694  0.24625  0.61983  1.0000
  C   C1581     1.0  0.92431  0.24873  0.45032  1.0000
  N   N105      1.0  0.97981  0.25366  0.53953  1.0000
  C   C1582     1.0  0.99482  0.29564  0.49238  1.0000
  C   C1583     1.0  0.99389  0.41901  0.49185  1.0000
  C   C1584     1.0  0.99612  0.37141  0.45743  1.0000
  H   H1914     1.0  0.97255  0.24027  0.52233  1.0000
  H   H1915     1.0  0.98790  0.23882  0.56514  1.0000
  H   H1916     1.0  0.99513  0.47076  0.38183  1.0000
  C   C1585     1.0  0.98164  0.23730  0.53229  1.0000
  H   H1917     1.0  0.90918  0.41958  0.32783  1.0000
  C   C1586     1.0  0.99737  0.40888  0.63521  1.0000
  H   H1918     1.0  0.99630  0.41633  0.41429  1.0000
  C   C1587     1.0  0.99674  0.44405  0.39953  1.0000
  Fe  Fe205     1.0  0.92625  0.23758  0.52178  1.0000
  C   C1588     1.0  0.87535  0.34619  0.66261  1.0000
  H   H1919     1.0  0.95656  0.41969  0.79115  1.0000
  C   C1589     1.0  0.62098  0.48478  0.98027  1.0000
  H   H1920     1.0  0.56900  0.37401  0.95905  1.0000
  Fe  Fe206     1.0  0.58624  0.33616  0.93889  1.0000
  H   H1921     1.0  0.75262  0.46117  0.90483  1.0000
  S   S417      1.0  0.59315  0.36375  0.92578  1.0000
  Fe  Fe207     1.0  0.58171  0.29934  0.93608  1.0000
  H   H1922     1.0  0.99646  0.46010  0.81745  1.0000
  S   S418      1.0  0.58690  0.27826  0.91920  1.0000
  Fe  Fe208     1.0  0.55284  0.32092  0.96175  1.0000
  H   H1923     1.0  0.59989  0.33430  0.90509  1.0000
  H   H1924     1.0  0.91870  0.40180  0.65967  1.0000
  H   H1925     1.0  0.55388  0.39630  0.95469  1.0000
  S   S419      1.0  0.56404  0.32773  0.93142  1.0000
  S   S420      1.0  0.60536  0.30841  0.94034  1.0000
  C   C1590     1.0  0.55354  0.24715  0.91652  1.0000
  N   N106      1.0  0.55401  0.38450  0.98338  1.0000
  Fe  Fe209     1.0  0.66500  0.40244  0.94811  1.0000
  S   S421      1.0  0.63963  0.42093  0.96086  1.0000
  S   S422      1.0  0.66417  0.37491  0.94444  1.0000
  Fe  Fe210     1.0  0.69130  0.42432  0.95142  1.0000
  S   S423      1.0  0.66805  0.44405  0.96465  1.0000
  S   S424      1.0  0.72077  0.42733  0.94650  1.0000
  C   C1591     1.0  0.87787  0.44769  0.77733  1.0000
  Fe  Fe211     1.0  0.65372  0.44342  0.94336  1.0000
  S   S425      1.0  0.63991  0.47130  0.93040  1.0000
  H   H1926     1.0  0.71982  0.46407  0.91751  1.0000
  S   S426      1.0  0.67793  0.42513  0.92863  1.0000
  H   H1927     1.0  0.91101  0.47686  0.68511  1.0000
  Fe  Fe212     1.0  0.92733  0.40123  0.69716  1.0000
  S   S427      1.0  0.92589  0.42875  0.67813  1.0000
  S   S428      1.0  0.93100  0.37391  0.68999  1.0000
  Fe  Fe213     1.0  0.92880  0.41583  0.72992  1.0000
  S   S429      1.0  0.92760  0.44460  0.71389  1.0000
  S   S430      1.0  0.93340  0.40365  0.75860  1.0000
  Fe  Fe214     1.0  0.90623  0.43918  0.70236  1.0000
  S   S431      1.0  0.87947  0.45922  0.69989  1.0000
  Fe  Fe215     1.0  0.94724  0.43177  0.69116  1.0000
  S   S432      1.0  0.90564  0.41128  0.72043  1.0000
  S   S433      1.0  0.95048  0.40347  0.70815  1.0000
  C   C1592     1.0  0.58591  0.24354  0.96563  1.0000
  H   H1928     1.0  0.98337  0.38466  0.66475  1.0000
  C   C1593     1.0  0.60485  0.34024  0.89036  1.0000
  Fe  Fe216     1.0  0.91529  0.47094  0.82367  1.0000
  H   H1929     1.0  0.61892  0.34054  0.85442  1.0000
  S   S434      1.0  0.91509  0.44161  0.82609  1.0000
  C   C1594     1.0  0.99355  0.35862  0.70193  1.0000
  H   H1930     1.0  0.73758  0.40921  0.98034  1.0000
  C   C1595     1.0  0.73558  0.46489  0.97440  1.0000
  C   C1596     1.0  0.58221  0.39882  0.96987  1.0000
  C   C1597     1.0  0.88144  0.47844  0.77412  1.0000
  H   H1931     1.0  0.54782  0.29468  0.92717  1.0000
  H   H1932     1.0  0.95935  0.39334  0.66387  1.0000
  H   H1933     1.0  0.69950  0.44662  0.97612  1.0000
  H   H1934     1.0  0.88919  0.31029  0.67129  1.0000
  C   C1598     1.0  0.99660  0.45882  0.71327  1.0000
  H   H1935     1.0  0.88189  0.43894  0.75212  1.0000
  H   H1936     1.0  0.65049  0.31722  0.97403  1.0000
  H   H1937     1.0  0.52107  0.24729  0.95783  1.0000
  Fe  Fe217     1.0  0.59092  0.30331  0.96993  1.0000
  S   S435      1.0  0.97342  0.44025  0.67501  1.0000
  C   C1599     1.0  0.88163  0.45006  0.75827  1.0000
  C   C1600     1.0  0.88532  0.46658  0.74701  1.0000
  H   H1938     1.0  0.98645  0.31533  0.71296  1.0000
  C   C1601     1.0  0.92430  0.38895  0.65522  1.0000
  H   H1939     1.0  0.95813  0.46862  0.69570  1.0000
  H   H1940     1.0  0.60757  0.32792  0.97759  1.0000
  C   C1602     1.0  0.60829  0.31304  0.87977  1.0000
  H   H1941     1.0  0.88196  0.47671  0.88174  1.0000
  H   H1942     1.0  0.87517  0.45982  0.80009  1.0000
  H   H1943     1.0  0.87548  0.43469  0.78597  1.0000
  C   C1603     1.0  0.53400  0.27586  0.92304  1.0000
  C   C1604     1.0  0.93836  0.35666  0.66143  1.0000
  H   H1944     1.0  0.85776  0.46379  0.90641  1.0000
  H   H1945     1.0  0.97836  0.40378  0.79006  1.0000
  H   H1946     1.0  0.58279  0.24443  0.91393  1.0000
  C   C1605     1.0  0.88550  0.48127  0.75464  1.0000
  C   C1606     1.0  0.92574  0.41556  0.77664  1.0000
  C   C1607     1.0  0.92328  0.43459  0.77368  1.0000
  C   C1608     1.0  0.91972  0.44302  0.78876  1.0000
  C   C1609     1.0  0.91826  0.43240  0.80671  1.0000
  C   C1610     1.0  0.92011  0.41354  0.80951  1.0000
  C   C1611     1.0  0.92402  0.40516  0.79458  1.0000
  H   H1947     1.0  0.92462  0.44270  0.75982  1.0000
  H   H1948     1.0  0.91818  0.45763  0.78650  1.0000
  H   H1949     1.0  0.91901  0.40525  0.82330  1.0000
  H   H1950     1.0  0.92602  0.39045  0.79696  1.0000
  C   C1612     1.0  0.54946  0.28145  0.92419  1.0000
  H   H1951     1.0  0.95594  0.44602  0.79873  1.0000
  H   H1952     1.0  0.96397  0.45987  0.81942  1.0000
  N   N107      1.0  0.50831  0.26040  0.98099  1.0000
  C   C1613     1.0  0.87132  0.48550  0.88985  1.0000
  C   C1614     1.0  0.53599  0.25873  0.91917  1.0000
  H   H1953     1.0  0.95640  0.36077  0.71690  1.0000
  C   C1615     1.0  0.72584  0.44240  0.95703  1.0000
  H   H1954     1.0  0.94384  0.34449  0.67070  1.0000
  C   C1616     1.0  0.88272  0.36581  0.67861  1.0000
  N   N108      1.0  0.97926  0.42951  0.77094  1.0000
  C   C1617     1.0  0.74816  0.45808  0.95968  1.0000
  C   C1618     1.0  0.74341  0.44660  0.95126  1.0000
  C   C1619     1.0  0.85095  0.36414  0.68283  1.0000
  H   H1955     1.0  0.96546  0.40820  0.77249  1.0000
  H   H1956     1.0  0.76172  0.46129  0.95504  1.0000
  H   H1957     1.0  0.75338  0.44101  0.94016  1.0000
  C   C1620     1.0  0.61257  0.36693  0.93149  1.0000
  C   C1621     1.0  0.62564  0.35190  0.93810  1.0000
  C   C1622     1.0  0.64151  0.35457  0.94175  1.0000
  C   C1623     1.0  0.64408  0.37226  0.93956  1.0000
  C   C1624     1.0  0.63081  0.38734  0.93333  1.0000
  C   C1625     1.0  0.61523  0.38466  0.92901  1.0000
  H   H1958     1.0  0.62381  0.33819  0.93994  1.0000
  H   H1959     1.0  0.65190  0.34286  0.94619  1.0000
  H   H1960     1.0  0.63283  0.40102  0.93133  1.0000
  H   H1961     1.0  0.60528  0.39634  0.92370  1.0000
  C   C1626     1.0  0.50810  0.32680  0.96416  1.0000
  C   C1627     1.0  0.51470  0.32254  0.94674  1.0000
  C   C1628     1.0  0.50256  0.31986  0.93762  1.0000
  C   C1629     1.0  0.55546  0.38276  0.96432  1.0000
  H   H1962     1.0  0.59669  0.25696  0.97962  1.0000
  H   H1963     1.0  0.53463  0.41040  0.98119  1.0000
  H   H1964     1.0  0.52916  0.32102  0.94039  1.0000
  H   H1965     1.0  0.50771  0.31648  0.92419  1.0000
  H   H1966     1.0  0.95391  0.44995  0.76899  1.0000
  S   S436      1.0  0.57341  0.33160  0.96887  1.0000
  H   H1967     1.0  0.62024  0.33751  0.88772  1.0000
  H   H1968     1.0  0.96888  0.34487  0.73362  1.0000
  C   C1630     1.0  0.96951  0.41468  0.78161  1.0000
  C   C1631     1.0  0.97043  0.44568  0.79728  1.0000
  H   H1969     1.0  0.89293  0.37127  0.68155  1.0000
  C   C1632     1.0  0.72536  0.47599  0.91546  1.0000
  C   C1633     1.0  0.97653  0.34558  0.68820  1.0000
  S   S437      1.0  0.92965  0.47880  0.84126  1.0000
  C   C1634     1.0  0.56714  0.27034  0.92046  1.0000
  H   H1970     1.0  0.97860  0.37125  0.72566  1.0000
  C   C1635     1.0  0.96555  0.34697  0.71998  1.0000
  S   S438      1.0  0.68085  0.39990  0.96940  1.0000
  C   C1636     1.0  0.74438  0.47411  0.90808  1.0000
  C   C1637     1.0  0.60362  0.34220  0.85904  1.0000
  C   C1638     1.0  0.57786  0.33490  0.88356  1.0000
  C   C1639     1.0  0.56875  0.32027  0.88700  1.0000
  C   C1640     1.0  0.56636  0.35247  0.88483  1.0000
  C   C1641     1.0  0.54942  0.32313  0.89174  1.0000
  C   C1642     1.0  0.54706  0.35510  0.88981  1.0000
  C   C1643     1.0  0.53861  0.34044  0.89333  1.0000
  H   H1971     1.0  0.59759  0.35715  0.85720  1.0000
  H   H1972     1.0  0.59870  0.33694  0.84958  1.0000
  H   H1973     1.0  0.57618  0.30638  0.88649  1.0000
  H   H1974     1.0  0.54279  0.31175  0.89447  1.0000
  H   H1975     1.0  0.53859  0.36855  0.89112  1.0000
  H   H1976     1.0  0.52365  0.34246  0.89742  1.0000
  H   H1977     1.0  0.60007  0.35533  0.88855  1.0000
  H   H1978     1.0  0.52047  0.28485  0.92501  1.0000
  S   S439      1.0  0.51649  0.25262  0.91678  1.0000
  H   H1979     1.0  0.96894  0.35957  0.68303  1.0000
  H   H1980     1.0  0.53684  0.25370  0.96701  1.0000
  C   C1644     1.0  0.59568  0.40654  0.97206  1.0000
  H   H1981     1.0  0.54457  0.37621  0.96350  1.0000
  C   C1645     1.0  0.99320  0.45369  0.80824  1.0000
  H   H1982     1.0  0.51510  0.28503  0.96269  1.0000
  C   C1646     1.0  0.96684  0.44382  0.76014  1.0000
  C   C1647     1.0  0.88830  0.35359  0.66676  1.0000
  H   H1983     1.0  0.97138  0.40711  0.66891  1.0000
  H   H1984     1.0  0.60513  0.30644  0.87021  1.0000
  S   S440      1.0  0.56881  0.29199  0.96600  1.0000
  H   H1985     1.0  0.64052  0.37487  0.98300  1.0000
  C   C1648     1.0  0.56872  0.39244  0.98518  1.0000
  C   C1649     1.0  0.97487  0.45357  0.80933  1.0000
  C   C1650     1.0  0.99414  0.32630  0.71043  1.0000
  H   H1986     1.0  0.90288  0.35007  0.66078  1.0000
  C   C1651     1.0  0.97159  0.46156  0.69858  1.0000
  C   C1652     1.0  0.98435  0.43760  0.78367  1.0000
  C   C1653     1.0  0.89527  0.31713  0.65718  1.0000
  H   H1987     1.0  0.90809  0.32072  0.65780  1.0000
  S   S441      1.0  0.52341  0.32881  0.97623  1.0000
  H   H1988     1.0  0.62612  0.46064  0.96942  1.0000
  H   H1989     1.0  0.85984  0.38066  0.69572  1.0000
  C   C1654     1.0  0.71312  0.44957  0.97152  1.0000
  H   H1990     1.0  0.62359  0.31156  0.87633  1.0000
  H   H1991     1.0  0.97376  0.45520  0.75199  1.0000
  C   C1655     1.0  0.58890  0.24670  0.98146  1.0000
  H   H1992     1.0  0.59154  0.25105  0.95219  1.0000
  C   C1656     1.0  0.85763  0.47821  0.90385  1.0000
  N   N109      1.0  0.59829  0.33249  0.87833  1.0000
  C   C1657     1.0  0.93137  0.37330  0.66729  1.0000
  H   H1993     1.0  0.50026  0.27550  0.95543  1.0000
  C   C1658     1.0  0.62624  0.47503  0.96614  1.0000
  H   H1994     1.0  0.68838  0.47480  0.91773  1.0000
  H   H1995     1.0  0.99252  0.48551  0.75963  1.0000
  C   C1659     1.0  0.86408  0.37110  0.68661  1.0000
  H   H1996     1.0  0.60474  0.30503  0.89404  1.0000
  C   C1660     1.0  0.98200  0.44699  0.69022  1.0000
  H   H1997     1.0  0.88799  0.46741  0.73237  1.0000
  H   H1998     1.0  0.96264  0.43829  0.75037  1.0000
  H   H1999     1.0  0.65003  0.34768  0.97719  1.0000
  C   C1661     1.0  0.56914  0.25311  0.91678  1.0000
  C   C1662     1.0  0.97899  0.46761  0.70998  1.0000
  H   H2000     1.0  0.57221  0.36431  0.88220  1.0000
  C   C1663     1.0  0.63160  0.48388  0.94784  1.0000
  H   H2001     1.0  0.86267  0.47770  0.96580  1.0000
  H   H2002     1.0  0.69377  0.46676  0.94031  1.0000
  S   S442      1.0  0.82759  0.47954  0.93272  1.0000
  C   C1664     1.0  0.99530  0.42150  0.75759  1.0000
  C   C1665     1.0  0.71815  0.46042  0.98045  1.0000
  H   H2003     1.0  0.98824  0.34168  0.67691  1.0000
  C   C1666     1.0  0.87768  0.46189  0.78525  1.0000
  H   H2004     1.0  0.84550  0.34707  0.66867  1.0000
  N   N110      1.0  0.98252  0.34470  0.70519  1.0000
  H   H2005     1.0  0.95707  0.33691  0.72148  1.0000
  H   H2006     1.0  0.83644  0.36836  0.68907  1.0000
  C   C1667     1.0  0.97303  0.39712  0.66038  1.0000
  H   H2007     1.0  0.96720  0.33611  0.69053  1.0000
  C   C1668     1.0  0.98989  0.37103  0.71376  1.0000
  C   C1669     1.0  0.68679  0.47864  0.93105  1.0000
  H   H2008     1.0  0.99786  0.39312  0.71954  1.0000
  H   H2009     1.0  0.58274  0.39797  0.95601  1.0000
  H   H2010     1.0  0.85938  0.31899  0.66034  1.0000
  H   H2011     1.0  0.70196  0.41510  0.98527  1.0000
  H   H2012     1.0  0.60576  0.41133  0.96014  1.0000
  H   H2013     1.0  0.97126  0.47940  0.71581  1.0000
  C   C1670     1.0  0.88122  0.48197  0.69013  1.0000
  Fe  Fe218     1.0  0.65623  0.41986  0.98088  1.0000
  C   C1671     1.0  0.50345  0.27779  0.96776  1.0000
  H   H2014     1.0  0.99088  0.41560  0.74825  1.0000
  C   C1672     1.0  0.52398  0.24834  0.97081  1.0000
  H   H2015     1.0  0.67171  0.48088  0.93739  1.0000
  H   H2016     1.0  0.72310  0.38907  0.97523  1.0000
  C   C1673     1.0  0.85639  0.35185  0.67102  1.0000
  S   S443      1.0  0.74158  0.47832  0.98599  1.0000
  S   S444      1.0  0.94453  0.63148  0.29460  1.0000
  C   C1674     1.0  0.95931  0.50777  0.24570  1.0000
  S   S445      1.0  0.92457  0.62378  0.25754  1.0000
  C   C1675     1.0  0.72121  0.54663  0.13117  1.0000
  H   H2017     1.0  0.50835  0.60125  0.98864  1.0000
  H   H2018     1.0  0.88790  0.56145  0.29013  1.0000
  H   H2019     1.0  0.98555  0.57523  0.28144  1.0000
  C   C1676     1.0  0.74452  0.57067  0.02411  1.0000
  C   C1677     1.0  0.71496  0.54124  0.07253  1.0000
  Fe  Fe219     1.0  0.89916  0.55404  0.17633  1.0000
  S   S446      1.0  0.92875  0.53892  0.17619  1.0000
  S   S447      1.0  0.88826  0.55468  0.15141  1.0000
  Fe  Fe220     1.0  0.89528  0.56521  0.21264  1.0000
  S   S448      1.0  0.92397  0.55045  0.21542  1.0000
  S   S449      1.0  0.87921  0.57816  0.23664  1.0000
  Fe  Fe221     1.0  0.93194  0.56265  0.18550  1.0000
  S   S450      1.0  0.95608  0.57659  0.17551  1.0000
  Fe  Fe222     1.0  0.91790  0.52829  0.20609  1.0000
  H   H2020     1.0  0.70345  0.60147  0.02052  1.0000
  S   S451      1.0  0.90335  0.57901  0.18307  1.0000
  S   S452      1.0  0.88821  0.54188  0.20588  1.0000
  H   H2021     1.0  0.71528  0.55338  0.01411  1.0000
  H   H2022     1.0  0.92881  0.61097  0.22482  1.0000
  S   S453      1.0  0.67820  0.54541  0.01260  1.0000
  Fe  Fe223     1.0  0.66482  0.60533  0.07762  1.0000
  S   S454      1.0  0.64734  0.58744  0.09855  1.0000
  S   S455      1.0  0.66159  0.61352  0.04851  1.0000
  Fe  Fe224     1.0  0.68388  0.60937  0.10503  1.0000
  S   S456      1.0  0.66805  0.59199  0.12866  1.0000
  S   S457      1.0  0.70499  0.62262  0.10814  1.0000
  Fe  Fe225     1.0  0.67326  0.57373  0.10890  1.0000
  Fe  Fe226     1.0  0.64344  0.60729  0.11636  1.0000
  S   S458      1.0  0.61485  0.61458  0.13355  1.0000
  S   S459      1.0  0.69126  0.58985  0.08623  1.0000
  S   S460      1.0  0.65878  0.62647  0.09440  1.0000
  S   S461      1.0  0.82303  0.53427  0.09398  1.0000
  S   S462      1.0  0.82912  0.51338  0.14659  1.0000
  S   S463      1.0  0.78848  0.58036  0.09204  1.0000
  N   N111      1.0  0.71597  0.54860  0.15056  1.0000
  S   S464      1.0  0.56796  0.69350  0.10798  1.0000
  C   C1678     1.0  0.52927  0.71003  0.02600  1.0000
  C   C1679     1.0  0.80443  0.50895  0.01443  1.0000
  H   H2023     1.0  0.91153  0.59281  0.21659  1.0000
  C   C1680     1.0  0.70679  0.59830  0.15494  1.0000
  C   C1681     1.0  0.61539  0.60039  0.06052  1.0000
  H   H2024     1.0  0.55853  0.73191  0.14905  1.0000
  H   H2025     1.0  0.70161  0.51894  0.05667  1.0000
  S   S465      1.0  0.54609  0.66250  0.05009  1.0000
  S   S466      1.0  0.53816  0.70311  0.07253  1.0000
  H   H2026     1.0  0.56202  0.71788  0.13284  1.0000
  H   H2027     1.0  0.58098  0.65085  0.08565  1.0000
  C   C1682     1.0  0.51272  0.66570  0.04159  1.0000
  C   C1683     1.0  0.53202  0.66205  0.03592  1.0000
  C   C1684     1.0  0.54034  0.65886  0.01825  1.0000
  C   C1685     1.0  0.52939  0.65988  0.00608  1.0000
  H   H2028     1.0  0.60586  0.60364  0.09698  1.0000
  C   C1686     1.0  0.51614  0.69895  0.16207  1.0000
  H   H2029     1.0  0.55527  0.65599  0.01383  1.0000
  H   H2030     1.0  0.97117  0.65919  0.30414  1.0000
  C   C1687     1.0  0.80237  0.52977  0.03973  1.0000
  C   C1688     1.0  0.79413  0.53767  0.02450  1.0000
  C   C1689     1.0  0.79510  0.52730  0.01184  1.0000
  H   H2031     1.0  0.80200  0.53806  0.04910  1.0000
  H   H2032     1.0  0.78734  0.55199  0.02235  1.0000
  C   C1690     1.0  0.60224  0.63705  0.12772  1.0000
  C   C1691     1.0  0.58288  0.64063  0.13301  1.0000
  C   C1692     1.0  0.57233  0.65799  0.12705  1.0000
  C   C1693     1.0  0.58112  0.67200  0.11620  1.0000
  C   C1694     1.0  0.60049  0.66869  0.11157  1.0000
  C   C1695     1.0  0.61105  0.65117  0.11718  1.0000
  H   H2033     1.0  0.57601  0.62978  0.14131  1.0000
  H   H2034     1.0  0.55738  0.66055  0.13100  1.0000
  H   H2035     1.0  0.60733  0.67955  0.10329  1.0000
  H   H2036     1.0  0.62597  0.64862  0.11339  1.0000
  C   C1696     1.0  0.72801  0.61057  0.10292  1.0000
  C   C1697     1.0  0.73235  0.59212  0.10180  1.0000
  C   C1698     1.0  0.75094  0.58261  0.09846  1.0000
  C   C1699     1.0  0.76513  0.59171  0.09588  1.0000
  C   C1700     1.0  0.76076  0.61020  0.09666  1.0000
  C   C1701     1.0  0.74225  0.61954  0.10038  1.0000
  H   H2037     1.0  0.72136  0.58515  0.10399  1.0000
  H   H2038     1.0  0.75429  0.56831  0.09786  1.0000
  H   H2039     1.0  0.77168  0.61734  0.09449  1.0000
  H   H2040     1.0  0.73893  0.63380  0.10117  1.0000
  C   C1702     1.0  0.67242  0.56390  0.02349  1.0000
  C   C1703     1.0  0.66221  0.58073  0.01586  1.0000
  C   C1704     1.0  0.65916  0.59601  0.02345  1.0000
  C   C1705     1.0  0.66551  0.59428  0.03925  1.0000
  C   C1706     1.0  0.67507  0.57728  0.04739  1.0000
  C   C1707     1.0  0.67876  0.56215  0.03933  1.0000
  H   H2041     1.0  0.65692  0.58219  0.00390  1.0000
  H   H2042     1.0  0.65151  0.60910  0.01731  1.0000
  H   H2043     1.0  0.67989  0.57587  0.05969  1.0000
  H   H2044     1.0  0.68644  0.54916  0.04537  1.0000
  H   H2045     1.0  0.70618  0.50842  0.08565  1.0000
  C   C1708     1.0  0.96389  0.65204  0.24368  1.0000
  C   C1709     1.0  0.70377  0.58109  0.15597  1.0000
  C   C1710     1.0  0.87115  0.54374  0.15052  1.0000
  C   C1711     1.0  0.85994  0.53559  0.16639  1.0000
  C   C1712     1.0  0.84708  0.52642  0.16497  1.0000
  C   C1713     1.0  0.84486  0.52580  0.14770  1.0000
  C   C1714     1.0  0.85564  0.53445  0.13183  1.0000
  C   C1715     1.0  0.86878  0.54327  0.13325  1.0000
  H   H2046     1.0  0.86112  0.53635  0.17978  1.0000
  H   H2047     1.0  0.83875  0.51981  0.17732  1.0000
  H   H2048     1.0  0.85416  0.53395  0.11845  1.0000
  H   H2049     1.0  0.87730  0.54964  0.12089  1.0000
  C   C1716     1.0  0.90964  0.53410  0.27040  1.0000
  H   H2050     1.0  0.50623  0.66782  0.05532  1.0000
  C   C1717     1.0  0.97667  0.54866  0.19672  1.0000
  C   C1718     1.0  0.97383  0.56705  0.18779  1.0000
  H   H2051     1.0  0.94729  0.56030  0.25171  1.0000
  H   H2052     1.0  0.51845  0.68446  0.16231  1.0000
  C   C1719     1.0  0.93706  0.49705  0.23659  1.0000
  H   H2053     1.0  0.96753  0.54036  0.19653  1.0000
  C   C1720     1.0  0.67158  0.49780  0.11466  1.0000
  C   C1721     1.0  0.94667  0.66332  0.24871  1.0000
  H   H2054     1.0  0.75503  0.56026  0.01799  1.0000
  H   H2055     1.0  0.59029  0.62261  0.10513  1.0000
  C   C1722     1.0  0.65702  0.53545  0.10640  1.0000
  C   C1723     1.0  0.94986  0.50809  0.23247  1.0000
  C   C1724     1.0  0.73474  0.51050  0.01913  1.0000
  H   H2056     1.0  0.59097  0.53581  0.04025  1.0000
  H   H2057     1.0  0.95257  0.51679  0.21900  1.0000
  H   H2058     1.0  0.51384  0.62728  0.00678  1.0000
  C   C1725     1.0  0.50175  0.66639  0.02948  1.0000
  C   C1726     1.0  0.98585  0.57770  0.18792  1.0000
  H   H2059     1.0  0.69512  0.60950  0.15775  1.0000
  H   H2060     1.0  0.71036  0.60256  0.98915  1.0000
  Fe  Fe227     1.0  0.66000  0.55190  0.99242  1.0000
  H   H2061     1.0  0.75184  0.53508  0.06606  1.0000
  S   S467      1.0  0.78589  0.53526  0.12794  1.0000
  H   H2062     1.0  0.68954  0.57978  0.15997  1.0000
  H   H2063     1.0  0.61679  0.51066  0.03312  1.0000
  C   C1727     1.0  0.73963  0.58739  0.14491  1.0000
  C   C1728     1.0  0.91216  0.61054  0.25227  1.0000
  C   C1729     1.0  0.89722  0.60438  0.26510  1.0000
  C   C1730     1.0  0.88702  0.59459  0.26019  1.0000
  C   C1731     1.0  0.89214  0.59034  0.24269  1.0000
  C   C1732     1.0  0.90752  0.59591  0.23015  1.0000
  C   C1733     1.0  0.91731  0.60621  0.23483  1.0000
  H   H2064     1.0  0.89311  0.60773  0.27856  1.0000
  H   H2065     1.0  0.87502  0.59052  0.26987  1.0000
  Fe  Fe228     1.0  0.92389  0.62053  0.28758  1.0000
  N   N112      1.0  0.81337  0.58407  0.13320  1.0000
  C   C1734     1.0  0.80547  0.56760  0.13789  1.0000
  C   C1735     1.0  0.79859  0.60052  0.12927  1.0000
  C   C1736     1.0  0.82773  0.58316  0.11594  1.0000
  C   C1737     1.0  0.82050  0.58494  0.14886  1.0000
  C   C1738     1.0  0.80844  0.58565  0.16634  1.0000
  C   C1739     1.0  0.83930  0.58515  0.14737  1.0000
  C   C1740     1.0  0.81480  0.58646  0.18137  1.0000
  C   C1741     1.0  0.84546  0.58609  0.16247  1.0000
  C   C1742     1.0  0.83329  0.58667  0.17943  1.0000
  H   H2066     1.0  0.80093  0.56600  0.12604  1.0000
  H   H2067     1.0  0.81585  0.55498  0.14186  1.0000
  H   H2068     1.0  0.79318  0.56800  0.14945  1.0000
  H   H2069     1.0  0.78640  0.60139  0.14093  1.0000
  H   H2070     1.0  0.79331  0.60054  0.11718  1.0000
  H   H2071     1.0  0.80383  0.61325  0.12622  1.0000
  H   H2072     1.0  0.83898  0.57073  0.11770  1.0000
  H   H2073     1.0  0.82188  0.58243  0.10449  1.0000
  H   H2074     1.0  0.83387  0.59546  0.11117  1.0000
  H   H2075     1.0  0.79399  0.58547  0.16855  1.0000
  H   H2076     1.0  0.84967  0.58432  0.13481  1.0000
  H   H2077     1.0  0.80538  0.58686  0.19462  1.0000
  H   H2078     1.0  0.85990  0.58608  0.16107  1.0000
  H   H2079     1.0  0.83826  0.58720  0.19109  1.0000
  C   C1743     1.0  0.89481  0.50867  0.28136  1.0000
  C   C1744     1.0  0.95747  0.67030  0.27218  1.0000
  H   H2080     1.0  0.61072  0.58827  0.02321  1.0000
  C   C1745     1.0  0.88763  0.53240  0.29983  1.0000
  H   H2081     1.0  0.72526  0.51990  0.16177  1.0000
  C   C1746     1.0  0.63496  0.51625  0.04734  1.0000
  S   S468      1.0  0.90016  0.63250  0.30836  1.0000
  H   H2082     1.0  0.71405  0.54607  0.08515  1.0000
  H   H2083     1.0  0.64480  0.50020  0.01708  1.0000
  C   C1747     1.0  0.95574  0.49663  0.26318  1.0000
  H   H2084     1.0  0.53737  0.71601  0.03188  1.0000
  C   C1748     1.0  0.96198  0.56108  0.24537  1.0000
  H   H2085     1.0  0.52101  0.60316  0.01521  1.0000
  H   H2086     1.0  0.96617  0.64475  0.23283  1.0000
  H   H2087     1.0  0.91125  0.50848  0.18824  1.0000
  H   H2088     1.0  0.94352  0.58598  0.26610  1.0000
  H   H2089     1.0  0.93559  0.66457  0.24196  1.0000
  C   C1749     1.0  0.81194  0.51150  0.04224  1.0000
  C   C1750     1.0  0.73072  0.51860  0.05389  1.0000
  C   C1751     1.0  0.56266  0.59280  0.99210  1.0000
  C   C1752     1.0  0.72780  0.53348  0.16134  1.0000
  H   H2090     1.0  0.98359  0.59198  0.18111  1.0000
  H   H2091     1.0  0.73610  0.54643  0.12506  1.0000
  H   H2092     1.0  0.72373  0.55375  0.99004  1.0000
  H   H2093     1.0  0.73977  0.54758  0.00465  1.0000
  H   H2094     1.0  0.90805  0.54920  0.26716  1.0000
  H   H2095     1.0  0.73617  0.50749  0.00585  1.0000
  H   H2096     1.0  0.71816  0.51209  0.10054  1.0000
  C   C1753     1.0  0.90037  0.50380  0.18498  1.0000
  C   C1754     1.0  0.65586  0.50441  0.10710  1.0000
  C   C1755     1.0  0.86818  0.49549  0.00958  1.0000
  Fe  Fe229     1.0  0.81167  0.51482  0.08528  1.0000
  C   C1756     1.0  0.97793  0.64966  0.25295  1.0000
  N   N113      1.0  0.89223  0.52836  0.28122  1.0000
  H   H2097     1.0  0.51693  0.70671  0.03666  1.0000
  H   H2098     1.0  0.98785  0.57942  0.23099  1.0000
  H   H2099     1.0  0.87445  0.55361  0.27060  1.0000
  C   C1757     1.0  0.73378  0.58778  0.04840  1.0000
  C   C1758     1.0  0.71586  0.59361  0.02525  1.0000
  H   H2100     1.0  0.98077  0.67844  0.29007  1.0000
  C   C1759     1.0  0.71830  0.59725  0.04109  1.0000
  H   H2101     1.0  0.72676  0.61507  0.14781  1.0000
  H   H2102     1.0  0.89338  0.49622  0.19821  1.0000
  N   N114      1.0  0.65054  0.50086  0.04288  1.0000
  C   C1760     1.0  0.74833  0.51556  0.04168  1.0000
  C   C1761     1.0  0.51469  0.71241  0.00149  1.0000
  N   N115      1.0  0.72728  0.57642  0.99899  1.0000
  H   H2103     1.0  0.58608  0.61639  0.02327  1.0000
  C   C1762     1.0  0.61834  0.51932  0.04121  1.0000
  H   H2104     1.0  0.86376  0.53441  0.27903  1.0000
  C   C1763     1.0  0.99178  0.54081  0.20523  1.0000
  H   H2105     1.0  0.71928  0.55191  0.06046  1.0000
  H   H2106     1.0  0.98229  0.62883  0.29394  1.0000
  C   C1764     1.0  0.97341  0.53752  0.31077  1.0000
  H   H2107     1.0  0.70807  0.60760  0.04769  1.0000
  S   S469      1.0  0.75143  0.50630  0.12933  1.0000
  H   H2108     1.0  0.98829  0.55675  0.31179  1.0000
  H   H2109     1.0  0.99472  0.65947  0.30260  1.0000
  C   C1765     1.0  0.84480  0.52326  0.99003  1.0000
  C   C1766     1.0  0.75021  0.51146  0.02462  1.0000
  H   H2110     1.0  0.91423  0.52995  0.25685  1.0000
  H   H2111     1.0  0.75898  0.56725  0.04559  1.0000
  C   C1767     1.0  0.60793  0.59596  0.03382  1.0000
  N   N116      1.0  0.98954  0.65426  0.27850  1.0000
  H   H2112     1.0  0.71865  0.53366  0.12984  1.0000
  H   H2113     1.0  0.99410  0.52646  0.21177  1.0000
  H   H2114     1.0  0.90624  0.50015  0.28824  1.0000
  C   C1768     1.0  0.60338  0.53365  0.04534  1.0000
  H   H2115     1.0  0.80540  0.50095  0.00463  1.0000
  C   C1769     1.0  0.97499  0.65830  0.26786  1.0000
  H   H2116     1.0  0.72519  0.53516  0.17573  1.0000
  H   H2117     1.0  0.69167  0.50477  0.12470  1.0000
  H   H2118     1.0  0.70543  0.51240  0.02643  1.0000
  H   H2119     1.0  0.69158  0.54790  0.17247  1.0000
  H   H2120     1.0  0.54026  0.72419  0.11290  1.0000
  H   H2121     1.0  0.59274  0.55618  0.05922  1.0000
  Fe  Fe230     1.0  0.50840  0.67446  0.11236  1.0000
  H   H2122     1.0  0.92109  0.52779  0.27791  1.0000
  C   C1770     1.0  0.71044  0.58771  0.99237  1.0000
  C   C1771     1.0  0.99463  0.63426  0.28571  1.0000
  Fe  Fe231     1.0  0.79350  0.54980  0.09878  1.0000
  C   C1772     1.0  0.52565  0.61528  0.00551  1.0000
  N   N117      1.0  0.53192  0.61232  0.98637  1.0000
  C   C1773     1.0  0.74537  0.52423  0.07618  1.0000
  H   H2123     1.0  0.51230  0.71952  0.98754  1.0000
  Fe  Fe232     1.0  0.81494  0.51861  0.12280  1.0000
  C   C1774     1.0  0.98376  0.66328  0.29448  1.0000
  H   H2124     1.0  0.58201  0.60892  0.09521  1.0000
  H   H2125     1.0  0.50115  0.71045  0.01068  1.0000
  C   C1775     1.0  0.59405  0.61181  0.03391  1.0000
  H   H2126     1.0  0.67227  0.51342  0.04279  1.0000
  H   H2127     1.0  0.76374  0.50920  0.01550  1.0000
  H   H2128     1.0  0.71296  0.55803  0.12257  1.0000
  C   C1776     1.0  0.85794  0.51059  0.01704  1.0000
  H   H2129     1.0  0.58538  0.65335  0.06133  1.0000
  Fe  Fe233     1.0  0.53159  0.67643  0.07367  1.0000
  H   H2130     1.0  0.57970  0.63416  0.04658  1.0000
  S   S470      1.0  0.78495  0.53792  0.99270  1.0000
  H   H2131     1.0  0.76090  0.51626  0.04495  1.0000
  H   H2132     1.0  0.96922  0.51632  0.24242  1.0000
  H   H2133     1.0  0.53909  0.70251  0.13981  1.0000
  H   H2134     1.0  0.95559  0.53788  0.27533  1.0000
  H   H2135     1.0  0.98871  0.59134  0.14219  1.0000
  C   C1777     1.0  0.84640  0.52451  0.00721  1.0000
  C   C1778     1.0  0.49848  0.72560  0.17414  1.0000
  C   C1779     1.0  0.64838  0.52321  0.10326  1.0000
  H   H2136     1.0  0.99100  0.64062  0.24864  1.0000
  S   S471      1.0  0.51322  0.70081  0.11473  1.0000
  C   C1780     1.0  0.59395  0.61498  0.09393  1.0000
  H   H2137     1.0  0.56944  0.63958  0.07630  1.0000
  N   N118      1.0  0.96971  0.56925  0.25616  1.0000
  C   C1781     1.0  0.94356  0.67262  0.26275  1.0000
  C   C1782     1.0  0.96290  0.54261  0.28261  1.0000
  H   H2138     1.0  0.69506  0.53265  0.15742  1.0000
  H   H2139     1.0  0.62095  0.55098  0.07110  1.0000
  H   H2140     1.0  0.95795  0.52074  0.30604  1.0000
  C   C1783     1.0  0.69655  0.54637  0.15793  1.0000
  C   C1784     1.0  0.62033  0.54228  0.06252  1.0000
  H   H2141     1.0  0.75559  0.51090  0.07660  1.0000
  C   C1785     1.0  0.97096  0.55813  0.27479  1.0000
  C   C1786     1.0  0.96413  0.53256  0.30036  1.0000
  H   H2142     1.0  0.89842  0.50613  0.26715  1.0000
  C   C1787     1.0  0.60438  0.54513  0.05596  1.0000
  C   C1788     1.0  0.74753  0.48860  0.12165  1.0000
  H   H2143     1.0  0.65140  0.54992  0.10310  1.0000
  H   H2144     1.0  0.62967  0.57818  0.04670  1.0000
  C   C1789     1.0  0.58286  0.64337  0.07459  1.0000
  H   H2145     1.0  0.61335  0.64190  0.08401  1.0000
  H   H2146     1.0  0.85855  0.51131  0.03069  1.0000
  C   C1790     1.0  0.86688  0.49418  0.99228  1.0000
  C   C1791     1.0  0.97980  0.56315  0.28603  1.0000
  C   C1792     1.0  0.98830  0.57188  0.24535  1.0000
  S   S472      1.0  0.78279  0.53192  0.08765  1.0000
  H   H2147     1.0  0.95377  0.67742  0.28334  1.0000
  S   S473      1.0  0.93141  0.59303  0.30571  1.0000
  H   H2148     1.0  0.98721  0.55984  0.14348  1.0000
  C   C1793     1.0  0.73676  0.57016  0.14578  1.0000
  S   S474      1.0  0.68452  0.54364  0.11729  1.0000
  C   C1794     1.0  0.71536  0.51705  0.04800  1.0000
  C   C1795     1.0  0.71873  0.56649  0.15124  1.0000
  N   N119      1.0  0.59830  0.62698  0.07555  1.0000
  H   H2149     1.0  0.53667  0.61811  0.01045  1.0000
  H   H2150     1.0  0.53598  0.65754  0.99248  1.0000
  N   N120      1.0  0.90832  0.49261  0.17077  1.0000
  H   H2151     1.0  0.66828  0.49129  0.01884  1.0000
  H   H2152     1.0  0.61971  0.64141  0.05989  1.0000
  H   H2153     1.0  0.69768  0.58532  0.00273  1.0000
  Fe  Fe234     1.0  0.94939  0.60542  0.31501  1.0000
  H   H2154     1.0  0.74870  0.55996  0.14131  1.0000
  H   H2155     1.0  0.62435  0.59567  0.07022  1.0000
  H   H2156     1.0  0.62718  0.62177  0.07653  1.0000
  H   H2157     1.0  0.96297  0.59502  0.26481  1.0000
  Fe  Fe235     1.0  0.50835  0.71091  0.08614  1.0000
  C   C1796     1.0  0.61533  0.63328  0.07393  1.0000
  C   C1797     1.0  0.60131  0.61657  0.06112  1.0000
  H   H2158     1.0  0.73564  0.59086  0.06060  1.0000
  H   H2159     1.0  0.74281  0.53243  0.15523  1.0000
  H   H2160     1.0  0.70055  0.54073  0.07287  1.0000
  H   H2161     1.0  0.56514  0.60347  0.99707  1.0000
  C   C1798     1.0  0.54133  0.72548  0.99567  1.0000
  Fe  Fe236     1.0  0.54260  0.69046  0.10105  1.0000
  H   H2162     1.0  0.88195  0.50356  0.28840  1.0000
  H   H2163     1.0  0.55076  0.71243  0.99263  1.0000
  C   C1799     1.0  0.59064  0.62201  0.04737  1.0000
  N   N121      1.0  0.72800  0.52324  0.07194  1.0000
  H   H2164     1.0  0.68699  0.55630  0.14953  1.0000
  C   C1800     1.0  0.88584  0.55044  0.30193  1.0000
  C   C1801     1.0  0.67976  0.50999  0.11845  1.0000
  S   S475      1.0  0.53831  0.66313  0.10123  1.0000
  H   H2165     1.0  0.83810  0.53601  0.01331  1.0000
  C   C1802     1.0  0.61853  0.59023  0.04713  1.0000
  H   H2166     1.0  0.93003  0.68114  0.26686  1.0000
  C   C1803     1.0  0.50141  0.70702  0.17448  1.0000
  Fe  Fe237     1.0  0.77828  0.51545  0.11643  1.0000
  H   H2167     1.0  0.88018  0.53659  0.25727  1.0000
  C   C1804     1.0  0.67277  0.52883  0.11396  1.0000
  C   C1805     1.0  0.98114  0.55284  0.30365  1.0000
  H   H2168     1.0  0.95595  0.59623  0.24422  1.0000
  H   H2169     1.0  0.89565  0.50102  0.13775  1.0000
  H   H2170     1.0  0.63602  0.52829  0.09771  1.0000
  C   C1806     1.0  0.74685  0.57447  0.03995  1.0000
  S   S476      1.0  0.82358  0.50176  0.06048  1.0000
  N   N122      1.0  0.52398  0.72230  0.00902  1.0000
  C   C1807     1.0  0.91863  0.50376  0.15451  1.0000
  S   S477      1.0  0.92396  0.49888  0.22065  1.0000
  S   S478      1.0  0.64614  0.48922  0.10167  1.0000
  S   S479      1.0  0.61594  0.51518  0.99399  1.0000
  H   H2171     1.0  0.75342  0.59009  0.13984  1.0000
  C   C1808     1.0  0.51008  0.66381  0.01160  1.0000
  H   H2172     1.0  0.66485  0.49819  0.06421  1.0000
  H   H2173     1.0  0.58875  0.57528  0.99676  1.0000
  H   H2174     1.0  0.72917  0.49536  0.08646  1.0000
  H   H2175     1.0  0.64733  0.52670  0.06386  1.0000
  S   S480      1.0  0.62957  0.55561  0.00386  1.0000
  H   H2176     1.0  0.65918  0.51555  0.01540  1.0000
  H   H2177     1.0  0.53842  0.69681  0.02320  1.0000
  C   C1809     1.0  0.71739  0.51319  0.03083  1.0000
  C   C1810     1.0  0.57635  0.57669  0.99192  1.0000
  H   H2178     1.0  0.52325  0.69862  0.99989  1.0000
  H   H2179     1.0  0.89019  0.51619  0.18022  1.0000
  H   H2180     1.0  0.74284  0.52740  0.09003  1.0000
  S   S481      1.0  0.96692  0.49736  0.27975  1.0000
  H   H2181     1.0  0.97032  0.54721  0.24384  1.0000
  C   C1811     1.0  0.65587  0.50204  0.02270  1.0000
  H   H2182     1.0  0.90942  0.51683  0.14917  1.0000
  C   C1812     1.0  0.72465  0.60147  0.14936  1.0000
  C   C1813     1.0  0.66740  0.50045  0.04898  1.0000
  C   C1814     1.0  0.72907  0.58030  0.01612  1.0000
  C   C1815     1.0  0.87702  0.53862  0.27164  1.0000
  H   H2183     1.0  0.96187  0.56947  0.23119  1.0000
  C   C1816     1.0  0.72004  0.50917  0.08671  1.0000
  C   C1817     1.0  0.52790  0.70944  0.14920  1.0000
  C   C1818     1.0  0.63547  0.52815  0.05825  1.0000
  C   C1819     1.0  0.72651  0.55695  0.00212  1.0000
  C   C1820     1.0  0.95760  0.58737  0.25789  1.0000
  S   S482      1.0  0.50112  0.68541  0.08468  1.0000
  C   C1821     1.0  0.81304  0.50115  0.02948  1.0000
  S   S483      1.0  0.80657  0.49724  0.11377  1.0000
  C   C1822     1.0  0.55674  0.73209  0.13519  1.0000
  H   H2184     1.0  0.54894  0.73258  0.00092  1.0000
  H   H2185     1.0  0.99421  0.58013  0.25106  1.0000
  H   H2186     1.0  0.71970  0.49049  0.13796  1.0000
  Fe  Fe238     1.0  0.92161  0.64124  0.31706  1.0000
  C   C1823     1.0  0.88868  0.49213  0.14919  1.0000
  H   H2187     1.0  0.87046  0.49125  0.13273  1.0000
  H   H2188     1.0  0.92992  0.50777  0.15795  1.0000
  H   H2189     1.0  0.92517  0.49613  0.14324  1.0000
  H   H2190     1.0  0.67902  0.48907  0.04493  1.0000
  C   C1824     1.0  0.88440  0.51893  0.31623  1.0000
  H   H2191     1.0  0.88545  0.50480  0.31617  1.0000
  C   C1825     1.0  0.52512  0.72848  0.14817  1.0000
  H   H2192     1.0  0.82082  0.48716  0.03114  1.0000
  H   H2193     1.0  0.75674  0.57095  0.98721  1.0000
  C   C1826     1.0  0.51016  0.73624  0.16127  1.0000
  C   C1827     1.0  0.88120  0.55472  0.31930  1.0000
  C   C1828     1.0  0.98938  0.68126  0.44506  1.0000
  Fe  Fe239     1.0  0.90883  0.60540  0.32701  1.0000
  S   S484      1.0  0.88990  0.58841  0.34726  1.0000
  C   C1829     1.0  0.88000  0.52332  0.33355  1.0000
  Fe  Fe240     1.0  0.90785  0.69195  0.41633  1.0000
  H   H2194     1.0  0.93490  0.56594  0.36282  1.0000
  S   S485      1.0  0.92752  0.61544  0.33792  1.0000
  H   H2195     1.0  0.86024  0.71257  0.53468  1.0000
  C   C1830     1.0  0.94043  0.62932  0.60685  1.0000
  C   C1831     1.0  0.98700  0.59103  0.63410  1.0000
  H   H2196     1.0  0.97204  0.64934  0.60753  1.0000
  C   C1832     1.0  0.97951  0.70215  0.52154  1.0000
  H   H2197     1.0  0.96888  0.70375  0.61988  1.0000
  S   S486      1.0  0.93183  0.50651  0.36896  1.0000
  C   C1833     1.0  0.92925  0.65531  0.62162  1.0000
  C   C1834     1.0  0.97293  0.62447  0.33220  1.0000
  H   H2198     1.0  0.89235  0.65785  0.61259  1.0000
  N   N123      1.0  0.98457  0.67873  0.61123  1.0000
  H   H2199     1.0  0.88863  0.69453  0.53741  1.0000
  H   H2200     1.0  0.86420  0.59750  0.60464  1.0000
  S   S487      1.0  0.92437  0.66787  0.32142  1.0000
  Fe  Fe241     1.0  0.93905  0.68561  0.55215  1.0000
  S   S488      1.0  0.91276  0.72274  0.58049  1.0000
  S   S489      1.0  0.95589  0.66206  0.53910  1.0000
  Fe  Fe242     1.0  0.92472  0.69309  0.59036  1.0000
  C   C1835     1.0  0.97667  0.66712  0.62872  1.0000
  S   S490      1.0  0.92427  0.67902  0.61995  1.0000
  C   C1836     1.0  0.87837  0.54117  0.33508  1.0000
  H   H2201     1.0  0.96129  0.62978  0.32559  1.0000
  H   H2202     1.0  0.97391  0.71192  0.53095  1.0000
  H   H2203     1.0  0.97466  0.52940  0.32436  1.0000
  S   S491      1.0  0.91233  0.68340  0.57258  1.0000
  S   S492      1.0  0.95200  0.69362  0.57064  1.0000
  S   S493      1.0  0.93446  0.65220  0.46955  1.0000
  C   C1837     1.0  0.95015  0.66026  0.51928  1.0000
  C   C1838     1.0  0.94037  0.67528  0.50849  1.0000
  C   C1839     1.0  0.93579  0.67312  0.49286  1.0000
  C   C1840     1.0  0.94076  0.65588  0.48827  1.0000
  C   C1841     1.0  0.95064  0.64102  0.49901  1.0000
  C   C1842     1.0  0.95550  0.64325  0.51433  1.0000
  H   H2204     1.0  0.96481  0.67056  0.45634  1.0000
  H   H2205     1.0  0.92781  0.68458  0.48485  1.0000
  H   H2206     1.0  0.95455  0.62771  0.49550  1.0000
  H   H2207     1.0  0.96312  0.63163  0.52258  1.0000
  C   C1843     1.0  0.98723  0.73165  0.55712  1.0000
  C   C1844     1.0  0.92547  0.64347  0.63872  1.0000
  C   C1845     1.0  0.98311  0.60652  0.33222  1.0000
  N   N124      1.0  0.88398  0.58888  0.62196  1.0000
  C   C1846     1.0  0.96929  0.72673  0.42719  1.0000
  H   H2208     1.0  0.97517  0.67308  0.64077  1.0000
  C   C1847     1.0  0.96999  0.57006  0.40783  1.0000
  Fe  Fe243     1.0  0.93889  0.72230  0.55895  1.0000
  H   H2209     1.0  0.96247  0.66595  0.62899  1.0000
  C   C1848     1.0  0.97822  0.63596  0.34012  1.0000
  S   S494      1.0  0.89194  0.68122  0.40254  1.0000
  S   S495      1.0  0.89704  0.69044  0.44672  1.0000
  H   H2210     1.0  0.90579  0.66346  0.54716  1.0000
  H   H2211     1.0  0.98756  0.56149  0.38406  1.0000
  H   H2212     1.0  0.95199  0.57959  0.35354  1.0000
  Fe  Fe244     1.0  0.90551  0.71715  0.44150  1.0000
  Fe  Fe245     1.0  0.94036  0.49038  0.34684  1.0000
  C   C1849     1.0  0.98381  0.64872  0.57951  1.0000
  C   C1850     1.0  0.90280  0.65354  0.52502  1.0000
  H   H2213     1.0  0.85963  0.72615  0.48542  1.0000
  H   H2214     1.0  0.93193  0.72698  0.47472  1.0000
  H   H2215     1.0  0.94614  0.62391  0.59447  1.0000
  H   H2216     1.0  0.90132  0.56163  0.62503  1.0000
  C   C1851     1.0  0.93616  0.61752  0.62381  1.0000
  C   C1852     1.0  0.88621  0.67567  0.50315  1.0000
  H   H2217     1.0  0.89580  0.65438  0.35084  1.0000
  H   H2218     1.0  0.87460  0.57343  0.60821  1.0000
  S   S496      1.0  0.94012  0.59412  0.62445  1.0000
  C   C1853     1.0  0.90118  0.56542  0.35282  1.0000
  C   C1854     1.0  0.91360  0.55651  0.33931  1.0000
  C   C1855     1.0  0.92257  0.53814  0.34406  1.0000
  C   C1856     1.0  0.91941  0.52880  0.36239  1.0000
  C   C1857     1.0  0.90702  0.53769  0.37589  1.0000
  C   C1858     1.0  0.89772  0.55589  0.37107  1.0000
  H   H2219     1.0  0.90791  0.57753  0.63371  1.0000
  C   C1859     1.0  0.99202  0.69761  0.49064  1.0000
  H   H2220     1.0  0.90456  0.53047  0.39008  1.0000
  H   H2221     1.0  0.88804  0.56268  0.38152  1.0000
  N   N125      1.0  0.98340  0.71166  0.50203  1.0000
  C   C1860     1.0  0.98071  0.65562  0.59533  1.0000
  H   H2222     1.0  0.87799  0.51276  0.34589  1.0000
  C   C1861     1.0  0.89673  0.61635  0.60319  1.0000
  H   H2223     1.0  0.88167  0.67813  0.49049  1.0000
  C   C1862     1.0  0.92878  0.62454  0.63981  1.0000
  H   H2224     1.0  0.92027  0.69566  0.37282  1.0000
  C   C1863     1.0  0.89589  0.65793  0.50914  1.0000
  S   S497      1.0  0.93387  0.70377  0.44649  1.0000
  C   C1864     1.0  0.89026  0.68462  0.52927  1.0000
  H   H2225     1.0  0.91947  0.64898  0.65101  1.0000
  C   C1865     1.0  0.95687  0.61859  0.43880  1.0000
  H   H2226     1.0  0.97067  0.65001  0.33952  1.0000
  C   C1866     1.0  0.87730  0.58726  0.60627  1.0000
  H   H2227     1.0  0.95269  0.56103  0.34351  1.0000
  H   H2228     1.0  0.91578  0.56351  0.32510  1.0000
  H   H2229     1.0  0.85675  0.70306  0.49136  1.0000
  H   H2230     1.0  0.87904  0.73575  0.49834  1.0000
  S   S498      1.0  0.92881  0.71440  0.53822  1.0000
  C   C1867     1.0  0.93680  0.64818  0.60573  1.0000
  H   H2231     1.0  0.97750  0.63771  0.57985  1.0000
  H   H2232     1.0  0.96103  0.70721  0.48068  1.0000
  C   C1868     1.0  0.91485  0.68676  0.36802  1.0000
  H   H2233     1.0  0.87013  0.61266  0.64693  1.0000
  C   C1869     1.0  0.87071  0.58273  0.63906  1.0000
  H   H2234     1.0  0.88273  0.66050  0.38225  1.0000
  S   S499      1.0  0.93680  0.67727  0.41872  1.0000
  C   C1870     1.0  0.97733  0.67053  0.44573  1.0000
  H   H2235     1.0  0.90409  0.60907  0.59233  1.0000
  C   C1871     1.0  0.89374  0.66692  0.37332  1.0000
  C   C1872     1.0  0.87798  0.61814  0.63369  1.0000
  C   C1873     1.0  0.91508  0.67194  0.34380  1.0000
  H   H2236     1.0  0.95031  0.61955  0.45295  1.0000
  H   H2237     1.0  0.97620  0.70584  0.59550  1.0000
  H   H2238     1.0  0.98339  0.68737  0.49343  1.0000
  C   C1874     1.0  0.88021  0.63601  0.63102  1.0000
  C   C1875     1.0  0.90115  0.66339  0.35557  1.0000
  Fe  Fe246     1.0  0.92639  0.67748  0.44872  1.0000
  C   C1876     1.0  0.88311  0.68963  0.51307  1.0000
  C   C1877     1.0  0.90078  0.67832  0.37972  1.0000
  N   N126      1.0  0.96191  0.55300  0.36916  1.0000
  C   C1878     1.0  0.98132  0.55088  0.35845  1.0000
  C   C1879     1.0  0.95726  0.53477  0.37453  1.0000
  C   C1880     1.0  0.94985  0.56541  0.35680  1.0000
  C   C1881     1.0  0.95881  0.56031  0.38585  1.0000
  C   C1882     1.0  0.97334  0.56383  0.39160  1.0000
  C   C1883     1.0  0.94081  0.56365  0.39723  1.0000
  H   H2239     1.0  0.95760  0.69476  0.60779  1.0000
  C   C1884     1.0  0.93760  0.56994  0.41341  1.0000
  N   N127      1.0  0.87322  0.70867  0.50700  1.0000
  H   H2240     1.0  0.97329  0.58807  0.63831  1.0000
  H   H2241     1.0  0.98316  0.54547  0.34597  1.0000
  H   H2242     1.0  0.98560  0.56420  0.35368  1.0000
  H   H2243     1.0  0.96543  0.52523  0.38442  1.0000
  H   H2244     1.0  0.96001  0.52843  0.36245  1.0000
  H   H2245     1.0  0.94247  0.53534  0.38130  1.0000
  H   H2246     1.0  0.91271  0.57902  0.60958  1.0000
  Fe  Fe247     1.0  0.90324  0.71321  0.56048  1.0000
  C   C1885     1.0  0.92176  0.68382  0.34997  1.0000
  S   S500      1.0  0.97751  0.59248  0.32105  1.0000
  H   H2247     1.0  0.92912  0.56114  0.39378  1.0000
  H   H2248     1.0  0.91092  0.63995  0.52919  1.0000
  H   H2249     1.0  0.92376  0.57218  0.42195  1.0000
  C   C1886     1.0  0.85667  0.71364  0.52142  1.0000
  N   N128      1.0  0.94363  0.62989  0.39209  1.0000
  C   C1887     1.0  0.92328  0.63292  0.39939  1.0000
  C   C1888     1.0  0.94787  0.64735  0.38042  1.0000
  C   C1889     1.0  0.94849  0.61622  0.38033  1.0000
  C   C1890     1.0  0.95446  0.62366  0.40667  1.0000
  C   C1891     1.0  0.97399  0.61735  0.40224  1.0000
  C   C1892     1.0  0.94624  0.62452  0.42537  1.0000
  H   H2250     1.0  0.84912  0.72804  0.51744  1.0000
  H   H2251     1.0  0.93208  0.53128  0.33359  1.0000
  C   C1893     1.0  0.97590  0.61189  0.43405  1.0000
  H   H2252     1.0  0.91792  0.64479  0.40629  1.0000
  H   H2253     1.0  0.91561  0.63618  0.38820  1.0000
  H   H2254     1.0  0.91928  0.62057  0.40919  1.0000
  H   H2255     1.0  0.94121  0.65181  0.36839  1.0000
  H   H2256     1.0  0.96295  0.64635  0.37497  1.0000
  H   H2257     1.0  0.94292  0.65852  0.38822  1.0000
  H   H2258     1.0  0.94576  0.60281  0.38856  1.0000
  H   H2259     1.0  0.94034  0.62068  0.36938  1.0000
  H   H2260     1.0  0.96316  0.61401  0.37293  1.0000
  H   H2261     1.0  0.98145  0.61733  0.38820  1.0000
  H   H2262     1.0  0.93166  0.63003  0.42995  1.0000
  H   H2263     1.0  0.99455  0.70411  0.47572  1.0000
  C   C1894     1.0  0.98124  0.65999  0.43261  1.0000
  H   H2264     1.0  0.99664  0.65106  0.55077  1.0000
  C   C1895     1.0  0.86673  0.71165  0.48979  1.0000
  Fe  Fe248     1.0  0.94158  0.70517  0.41604  1.0000
  H   H2265     1.0  0.90713  0.64043  0.58800  1.0000
  C   C1896     1.0  0.97848  0.72234  0.41018  1.0000
  H   H2266     1.0  0.87999  0.56859  0.32061  1.0000
  H   H2267     1.0  0.93251  0.69049  0.34088  1.0000
  S   S501      1.0  0.96702  0.71475  0.39784  1.0000
  H   H2268     1.0  0.93992  0.65718  0.59250  1.0000
  C   C1897     1.0  0.96592  0.72360  0.49739  1.0000
  C   C1898     1.0  0.90222  0.57620  0.62251  1.0000
  C   C1899     1.0  0.95603  0.71919  0.48663  1.0000
  H   H2269     1.0  0.96908  0.69382  0.52405  1.0000
  C   C1900     1.0  0.89995  0.66684  0.53509  1.0000
  H   H2270     1.0  0.93612  0.68846  0.51229  1.0000
  C   C1901     1.0  0.89866  0.63429  0.60060  1.0000
  C   C1902     1.0  0.97125  0.69653  0.60852  1.0000
  H   H2271     1.0  0.87509  0.54451  0.34852  1.0000
  H   H2272     1.0  0.94977  0.57775  0.43138  1.0000
  S   S502      1.0  0.87522  0.72706  0.55455  1.0000
  H   H2273     1.0  0.84689  0.70452  0.52415  1.0000
  H   H2274     1.0  0.89872  0.64770  0.50097  1.0000
  C   C1903     1.0  0.88600  0.60783  0.61967  1.0000
  C   C1904     1.0  0.88569  0.72134  0.50373  1.0000
  H   H2275     1.0  0.98144  0.57210  0.41216  1.0000
  Fe  Fe249     1.0  0.93220  0.57631  0.65211  1.0000
  S   S503      1.0  0.91341  0.72004  0.41087  1.0000
  H   H2276     1.0  0.86905  0.56865  0.64013  1.0000
  C   C1905     1.0  0.99731  0.72260  0.49951  1.0000
  H   H2277     1.0  0.85672  0.59189  0.63972  1.0000
  H   H2278     1.0  0.99220  0.69282  0.52566  1.0000
  H   H2279     1.0  0.88972  0.72140  0.51646  1.0000
  C   C1906     1.0  0.95219  0.57309  0.41873  1.0000
  H   H2280     1.0  0.97161  0.65188  0.43311  1.0000
  H   H2281     1.0  0.99021  0.72730  0.54426  1.0000
  C   C1907     1.0  0.98447  0.61137  0.41578  1.0000
  C   C1908     1.0  0.99036  0.60634  0.62050  1.0000
  C   C1909     1.0  0.89041  0.64410  0.61448  1.0000
  H   H2282     1.0  0.87853  0.70869  0.47818  1.0000
  S   S504      1.0  0.92665  0.49503  0.32339  1.0000
  H   H2283     1.0  0.97913  0.61508  0.61420  1.0000
  H   H2284     1.0  0.89860  0.71759  0.49341  1.0000
  C   C1910     1.0  0.98814  0.67059  0.59497  1.0000
  H   H2285     1.0  0.98571  0.65320  0.63106  1.0000
  H   H2286     1.0  0.88754  0.58929  0.59304  1.0000
  H   H2287     1.0  0.87421  0.64358  0.64193  1.0000
  C   C1911     1.0  0.93914  0.73038  0.48319  1.0000
  H   H2288     1.0  0.98406  0.60743  0.44452  1.0000
  H   H2289     1.0  0.98601  0.68980  0.45501  1.0000
  H   H2290     1.0  0.99117  0.54097  0.36655  1.0000
  H   H2291     1.0  0.99315  0.73193  0.50919  1.0000
  C   C1912     1.0  0.99350  0.62940  0.34839  1.0000
  H   H2292     1.0  0.97150  0.73418  0.45121  1.0000
  C   C1913     1.0  0.97872  0.73097  0.43800  1.0000
  C   C1914     1.0  0.99452  0.65631  0.56303  1.0000
  H   H2293     1.0  0.95480  0.72735  0.43184  1.0000
  S   S505      1.0  0.93408  0.54698  0.65238  1.0000
  H   H2294     1.0  0.87562  0.58191  0.65159  1.0000
  C   C1915     1.0  0.99685  0.72406  0.40312  1.0000
  C   C1916     1.0  0.99765  0.73376  0.58324  1.0000
  C   C1917     1.0  0.99728  0.66014  0.41872  1.0000
  C   C1918     1.0  0.99740  0.73125  0.43162  1.0000
  H   H2295     1.0  0.99131  0.53376  0.75014  1.0000
  S   S506      1.0  0.62472  0.56230  0.96141  1.0000
  C   C1919     1.0  0.97432  0.59911  0.68560  1.0000
  C   C1920     1.0  0.98167  0.62952  0.69715  1.0000
  C   C1921     1.0  0.85782  0.51519  0.89755  1.0000
  Fe  Fe250     1.0  0.65569  0.55792  0.95345  1.0000
  S   S507      1.0  0.67071  0.56031  0.92402  1.0000
  Fe  Fe251     1.0  0.54046  0.67500  0.93485  1.0000
  H   H2296     1.0  0.95054  0.59132  0.71733  1.0000
  H   H2297     1.0  0.96663  0.60177  0.72120  1.0000
  C   C1922     1.0  0.86556  0.51380  0.68284  1.0000
  H   H2298     1.0  0.58508  0.61720  0.92960  1.0000
  H   H2299     1.0  0.66687  0.60127  0.91657  1.0000
  Fe  Fe252     1.0  0.76830  0.52783  0.93903  1.0000
  S   S508      1.0  0.75682  0.54853  0.91619  1.0000
  C   C1923     1.0  0.63335  0.59716  0.91790  1.0000
  C   C1924     1.0  0.89156  0.54259  0.76891  1.0000
  C   C1925     1.0  0.79401  0.53860  0.87567  1.0000
  C   C1926     1.0  0.54465  0.58055  0.97895  1.0000
  H   H2300     1.0  0.88006  0.49131  0.95486  1.0000
  S   S509      1.0  0.53012  0.70288  0.91859  1.0000
  Fe  Fe253     1.0  0.94743  0.54073  0.67635  1.0000
  S   S510      1.0  0.94806  0.56978  0.67405  1.0000
  C   C1927     1.0  0.91714  0.55707  0.75167  1.0000
  Fe  Fe254     1.0  0.90755  0.55037  0.67350  1.0000
  S   S511      1.0  0.90464  0.58033  0.67167  1.0000
  H   H2301     1.0  0.90292  0.50396  0.76201  1.0000
  S   S512      1.0  0.75474  0.52473  0.96883  1.0000
  H   H2302     1.0  0.71580  0.52018  0.92041  1.0000
  Fe  Fe255     1.0  0.92077  0.57058  0.69393  1.0000
  S   S513      1.0  0.91650  0.58191  0.71891  1.0000
  H   H2303     1.0  0.91751  0.53706  0.77715  1.0000
  S   S514      1.0  0.92107  0.54098  0.69773  1.0000
  Fe  Fe256     1.0  0.52407  0.71194  0.94521  1.0000
  H   H2304     1.0  0.85441  0.53947  0.85205  1.0000
  C   C1928     1.0  0.84379  0.50803  0.91113  1.0000
  H   H2305     1.0  0.66846  0.51234  0.92216  1.0000
  H   H2306     1.0  0.86329  0.49065  0.94304  1.0000
  C   C1929     1.0  0.87167  0.50394  0.88693  1.0000
  N   N129      1.0  0.95925  0.61250  0.69464  1.0000
  H   H2307     1.0  0.61797  0.60055  0.92079  1.0000
  C   C1930     1.0  0.62151  0.50330  0.97617  1.0000
  C   C1931     1.0  0.90698  0.56679  0.73819  1.0000
  C   C1932     1.0  0.88916  0.56436  0.74008  1.0000
  C   C1933     1.0  0.88134  0.55255  0.75559  1.0000
  H   H2308     1.0  0.82821  0.51426  0.82633  1.0000
  N   N130      1.0  0.64099  0.61344  0.90758  1.0000
  C   C1934     1.0  0.63163  0.50251  0.94369  1.0000
  H   H2309     1.0  0.88127  0.57190  0.72972  1.0000
  H   H2310     1.0  0.86736  0.55112  0.75721  1.0000
  H   H2311     1.0  0.66788  0.62001  0.89702  1.0000
  S   S515      1.0  0.88889  0.49125  0.83048  1.0000
  H   H2312     1.0  0.63825  0.58590  0.91018  1.0000
  H   H2313     1.0  0.85793  0.52952  0.89520  1.0000
  H   H2314     1.0  0.62003  0.62250  0.89140  1.0000
  H   H2315     1.0  0.57214  0.66237  0.95621  1.0000
  H   H2316     1.0  0.90883  0.51595  0.73896  1.0000
  C   C1935     1.0  0.72123  0.54832  0.93618  1.0000
  H   H2317     1.0  0.86125  0.51556  0.85244  1.0000
  C   C1936     1.0  0.57737  0.64104  0.94139  1.0000
  C   C1937     1.0  0.57820  0.64820  0.95585  1.0000
  Fe  Fe257     1.0  0.78304  0.52152  0.97347  1.0000
  C   C1938     1.0  0.88250  0.51912  0.67784  1.0000
  S   S516      1.0  0.88169  0.52721  0.78767  1.0000
  S   S517      1.0  0.97466  0.52274  0.68025  1.0000
  H   H2318     1.0  0.93863  0.60170  0.68938  1.0000
  C   C1939     1.0  0.69447  0.55757  0.92222  1.0000
  C   C1940     1.0  0.70601  0.56140  0.90489  1.0000
  C   C1941     1.0  0.72510  0.55892  0.90322  1.0000
  C   C1942     1.0  0.73277  0.55221  0.91883  1.0000
  C   C1943     1.0  0.70205  0.55121  0.93790  1.0000
  H   H2319     1.0  0.70020  0.56627  0.89273  1.0000
  H   H2320     1.0  0.73398  0.56192  0.88978  1.0000
  H   H2321     1.0  0.94964  0.53839  0.81676  1.0000
  H   H2322     1.0  0.99475  0.55573  0.83343  1.0000
  C   C1944     1.0  0.97253  0.55015  0.71851  1.0000
  C   C1945     1.0  0.95783  0.55227  0.78882  1.0000
  H   H2323     1.0  0.96237  0.55498  0.72992  1.0000
  C   C1946     1.0  0.59541  0.61180  0.95428  1.0000
  H   H2324     1.0  0.95462  0.53640  0.71279  1.0000
  H   H2325     1.0  0.62728  0.52644  0.95461  1.0000
  C   C1947     1.0  0.69035  0.49970  0.94679  1.0000
  C   C1948     1.0  0.63538  0.61933  0.88958  1.0000
  H   H2326     1.0  0.63723  0.63478  0.95980  1.0000
  H   H2327     1.0  0.72700  0.54325  0.94829  1.0000
  N   N131      1.0  0.88938  0.49896  0.74320  1.0000
  H   H2328     1.0  0.84645  0.50102  0.83788  1.0000
  Fe  Fe258     1.0  0.93922  0.49816  0.81524  1.0000
  S   S518      1.0  0.96888  0.50098  0.80380  1.0000
  C   C1949     1.0  0.98265  0.49892  0.81938  1.0000
  Fe  Fe259     1.0  0.50221  0.69568  0.92918  1.0000
  H   H2329     1.0  0.54518  0.62603  0.95998  1.0000
  H   H2330     1.0  0.87504  0.52724  0.73810  1.0000
  C   C1950     1.0  0.89370  0.49957  0.72317  1.0000
  H   H2331     1.0  0.91800  0.49170  0.74502  1.0000
  C   C1951     1.0  0.97126  0.56061  0.77596  1.0000
  S   S519      1.0  0.65760  0.57686  0.96978  1.0000
  H   H2332     1.0  0.64802  0.61166  0.94112  1.0000
  C   C1952     1.0  0.97537  0.49633  0.83831  1.0000
  H   H2333     1.0  0.94284  0.64869  0.67929  1.0000
  H   H2334     1.0  0.94587  0.55100  0.78477  1.0000
  Fe  Fe260     1.0  0.90409  0.50113  0.84550  1.0000
  H   H2335     1.0  0.83310  0.51686  0.91907  1.0000
  H   H2336     1.0  0.88176  0.49776  0.71883  1.0000
  H   H2337     1.0  0.60176  0.59770  0.95380  1.0000
  H   H2338     1.0  0.64069  0.63160  0.88108  1.0000
  H   H2339     1.0  0.66697  0.59772  0.89491  1.0000
  H   H2340     1.0  0.63760  0.59143  0.93128  1.0000
  C   C1953     1.0  0.96819  0.53956  0.70886  1.0000
  S   S520      1.0  0.79610  0.52740  0.94332  1.0000
  C   C1954     1.0  0.85583  0.52360  0.95004  1.0000
  C   C1955     1.0  0.97786  0.66228  0.68655  1.0000
  C   C1956     1.0  0.55849  0.56450  0.97878  1.0000
  C   C1957     1.0  0.84134  0.51464  0.82955  1.0000
  N   N132      1.0  0.69415  0.49513  0.92848  1.0000
  H   H2341     1.0  0.61718  0.64836  0.90096  1.0000
  C   C1958     1.0  0.62256  0.64487  0.91327  1.0000
  C   C1959     1.0  0.96539  0.62973  0.69170  1.0000
  C   C1960     1.0  0.63443  0.62774  0.91868  1.0000
  H   H2342     1.0  0.99361  0.49293  0.66425  1.0000
  C   C1961     1.0  0.98687  0.56190  0.78111  1.0000
  N   N133      1.0  0.83853  0.52973  0.83908  1.0000
  C   C1962     1.0  0.96169  0.66306  0.68123  1.0000
  C   C1963     1.0  0.89834  0.48715  0.68447  1.0000
  H   H2343     1.0  0.50473  0.62554  0.98090  1.0000
  H   H2344     1.0  0.64087  0.60841  0.88144  1.0000
  C   C1964     1.0  0.94267  0.61492  0.68717  1.0000
  H   H2345     1.0  0.95386  0.67615  0.67526  1.0000
  H   H2346     1.0  0.86046  0.51102  0.74456  1.0000
  C   C1965     1.0  0.66153  0.60798  0.90384  1.0000
  Fe  Fe261     1.0  0.76292  0.49464  0.96939  1.0000
  H   H2347     1.0  0.80478  0.55410  0.84993  1.0000
  C   C1966     1.0  0.89897  0.50580  0.67845  1.0000
  C   C1967     1.0  0.63361  0.63780  0.94652  1.0000
  Fe  Fe262     1.0  0.80124  0.49710  0.94588  1.0000
  C   C1968     1.0  0.74353  0.57998  0.98407  1.0000
  H   H2348     1.0  0.84558  0.54818  0.81311  1.0000
  S   S521      1.0  0.91498  0.52135  0.82078  1.0000
  H   H2349     1.0  0.82139  0.54855  0.82112  1.0000
  S   S522      1.0  0.66106  0.53259  0.97507  1.0000
  H   H2350     1.0  0.55138  0.62983  0.97917  1.0000
  C   C1969     1.0  0.95468  0.60462  0.71462  1.0000
  H   H2351     1.0  0.61718  0.66455  0.94931  1.0000
  C   C1970     1.0  0.74232  0.50516  0.90965  1.0000
  H   H2352     1.0  0.91213  0.50985  0.67443  1.0000
  S   S523      1.0  0.56552  0.65453  0.92427  1.0000
  H   H2353     1.0  0.98275  0.67464  0.68456  1.0000
  H   H2354     1.0  0.74892  0.51645  0.90751  1.0000
  C   C1971     1.0  0.62691  0.51214  0.95788  1.0000
  C   C1972     1.0  0.80751  0.54123  0.85946  1.0000
  C   C1973     1.0  0.63962  0.62457  0.93574  1.0000
  C   C1974     1.0  0.82595  0.51133  0.86988  1.0000
  H   H2355     1.0  0.89665  0.51297  0.71489  1.0000
  C   C1975     1.0  0.58596  0.62282  0.94063  1.0000
  H   H2356     1.0  0.55703  0.55348  0.97353  1.0000
  S   S524      1.0  0.51300  0.66691  0.94306  1.0000
  C   C1976     1.0  0.86492  0.49532  0.68908  1.0000
  H   H2357     1.0  0.86972  0.51548  0.76147  1.0000
  C   C1977     1.0  0.90546  0.50277  0.74750  1.0000
  H   H2358     1.0  0.60714  0.67076  0.92005  1.0000
  H   H2359     1.0  0.52927  0.64104  0.97411  1.0000
  H   H2360     1.0  0.85538  0.52252  0.93609  1.0000
  H   H2361     1.0  0.68643  0.50760  0.90247  1.0000
  H   H2362     1.0  0.69322  0.54830  0.95135  1.0000
  H   H2363     1.0  0.63567  0.50939  0.92956  1.0000
  H   H2364     1.0  0.97000  0.58614  0.68719  1.0000
  H   H2365     1.0  0.69888  0.48917  0.95585  1.0000
  H   H2366     1.0  0.86739  0.53128  0.83155  1.0000
  H   H2367     1.0  0.78595  0.52054  0.90136  1.0000
  H   H2368     1.0  0.98988  0.61691  0.70349  1.0000
  S   S525      1.0  0.53695  0.68485  0.96057  1.0000
  H   H2369     1.0  0.97636  0.54030  0.82632  1.0000
  C   C1978     1.0  0.87294  0.51380  0.74704  1.0000
  H   H2370     1.0  0.93094  0.55891  0.75021  1.0000
  H   H2371     1.0  0.96966  0.56597  0.76186  1.0000
  C   C1979     1.0  0.85610  0.52901  0.84395  1.0000
  C   C1980     1.0  0.59637  0.61902  0.96862  1.0000
  H   H2372     1.0  0.78163  0.54921  0.87823  1.0000
  H   H2373     1.0  0.85283  0.52403  0.68231  1.0000
  H   H2374     1.0  0.68722  0.52364  0.91504  1.0000
  Fe  Fe263     1.0  0.90133  0.51001  0.80560  1.0000
  H   H2375     1.0  0.99414  0.58403  0.80805  1.0000
  C   C1981     1.0  0.98978  0.55485  0.71307  1.0000
  H   H2376     1.0  0.85184  0.51611  0.81639  1.0000
  H   H2377     1.0  0.93032  0.62382  0.69425  1.0000
  H   H2378     1.0  0.97882  0.60472  0.67067  1.0000
  C   C1982     1.0  0.61668  0.65803  0.92414  1.0000
  C   C1983     1.0  0.90954  0.54475  0.76691  1.0000
  H   H2379     1.0  0.67552  0.50058  0.95389  1.0000
  C   C1984     1.0  0.82392  0.52756  0.85605  1.0000
  H   H2380     1.0  0.69342  0.51312  0.94589  1.0000
  C   C1985     1.0  0.83428  0.54723  0.82575  1.0000
  S   S526      1.0  0.88949  0.51327  0.87061  1.0000
  C   C1986     1.0  0.62225  0.65453  0.94067  1.0000
  C   C1987     1.0  0.95991  0.54528  0.80689  1.0000
  Fe  Fe264     1.0  0.50875  0.67886  0.96761  1.0000
  C   C1988     1.0  0.95548  0.64707  0.68369  1.0000
  C   C1989     1.0  0.58756  0.63716  0.96954  1.0000
  H   H2381     1.0  0.83290  0.55921  0.83170  1.0000
  H   H2382     1.0  0.96097  0.49566  0.84364  1.0000
  N   N134      1.0  0.85260  0.50683  0.96403  1.0000
  H   H2383     1.0  0.94302  0.61395  0.72194  1.0000
  H   H2384     1.0  0.83823  0.50049  0.86852  1.0000
  S   S527      1.0  0.99509  0.56846  0.72482  1.0000
  H   H2385     1.0  0.99011  0.52091  0.77325  1.0000
  H   H2386     1.0  0.53869  0.73413  0.98228  1.0000
  C   C1990     1.0  0.53980  0.62793  0.97442  1.0000
  H   H2387     1.0  0.53285  0.58116  0.97363  1.0000
  Fe  Fe265     1.0  0.62699  0.57910  0.97985  1.0000
  C   C1991     1.0  0.68367  0.51032  0.91650  1.0000
  C   C1992     1.0  0.79639  0.52243  0.88881  1.0000
  H   H2388     1.0  0.94523  0.62057  0.67210  1.0000
  C   C1993     1.0  0.98776  0.64556  0.69455  1.0000
  H   H2389     1.0  0.98663  0.59498  0.69180  1.0000
  C   C1994     1.0  0.85507  0.50809  0.98197  1.0000
  H   H2390     1.0  0.51878  0.61139  0.96535  1.0000
  C   C1995     1.0  0.98121  0.53338  0.69398  1.0000
  C   C1996     1.0  0.98942  0.55492  0.79944  1.0000
  H   H2391     1.0  0.98093  0.49304  0.86504  1.0000
  C   C1997     1.0  0.81228  0.50881  0.88592  1.0000
  H   H2392     1.0  0.97867  0.51621  0.75823  1.0000
  H   H2393     1.0  0.86964  0.52616  0.94914  1.0000
  C   C1998     1.0  0.99148  0.51988  0.75885  1.0000
  C   C1999     1.0  0.97547  0.54645  0.81221  1.0000
  S   S528      1.0  0.88237  0.54256  0.67149  1.0000
  C   C2000     1.0  0.98670  0.49484  0.85040  1.0000
  H   H2394     1.0  0.81415  0.49631  0.89631  1.0000
  C   C2001     1.0  0.84389  0.48940  0.91460  1.0000
  S   S529      1.0  0.92650  0.48876  0.79738  1.0000
  H   H2395     1.0  0.58833  0.64282  0.98060  1.0000
  C   C2002     1.0  0.72333  0.50717  0.91706  1.0000
  C   C2003     1.0  0.75286  0.48863  0.90525  1.0000
  S   S530      1.0  0.77439  0.49793  0.93909  1.0000
  C   C2004     1.0  0.86529  0.49092  0.95673  1.0000
  H   H2396     1.0  0.85169  0.49136  0.69338  1.0000
  H   H2397     1.0  0.84518  0.53598  0.95302  1.0000
  C   C2005     1.0  0.51526  0.61247  0.98004  1.0000
  Fe  Fe266     1.0  0.63023  0.53851  0.98454  1.0000
  S   S531      1.0  0.79027  0.49104  0.97659  1.0000
  H   H2398     1.0  0.74249  0.57750  0.97087  1.0000
  C   C2006     1.0  0.71424  0.49265  0.92028  1.0000
  H   H2399     1.0  0.83101  0.50377  0.95305  1.0000
  H   H2400     1.0  0.88129  0.48900  0.78091  1.0000
  C   C2007     1.0  0.83340  0.50510  0.96614  1.0000
  H   H2401     1.0  0.74493  0.59435  0.98167  1.0000
  H   H2402     1.0  0.70934  0.58433  0.97963  1.0000
  H   H2403     1.0  0.82293  0.51713  0.97041  1.0000
  H   H2404     1.0  0.90610  0.48890  0.71910  1.0000
  H   H2405     1.0  0.99699  0.56832  0.77056  1.0000
  S   S532      1.0  0.60854  0.60575  0.98555  1.0000
  H   H2406     1.0  0.83040  0.49275  0.97667  1.0000
  H   H2407     1.0  0.83499  0.53405  0.98340  1.0000
  H   H2408     1.0  0.92532  0.61544  0.65290  1.0000
  H   H2409     1.0  0.76763  0.48703  0.89977  1.0000
  H   H2410     1.0  0.58497  0.55008  0.98514  1.0000
  C   C2008     1.0  0.57427  0.56255  0.98531  1.0000
  C   C2009     1.0  0.54629  0.59519  0.98576  1.0000
  C   C2010     1.0  0.52984  0.96285  0.25502  1.0000
  C   C2011     1.0  0.51277  0.87834  0.15679  1.0000
  N   N135      1.0  0.50618  0.94024  0.12392  1.0000
  H   H2411     1.0  0.52414  0.75015  0.06905  1.0000
  Fe  Fe267     1.0  0.51861  0.92194  0.23208  1.0000
  C   C2012     1.0  0.50630  0.78266  0.09512  1.0000
  S   S533      1.0  0.52737  0.90879  0.25905  1.0000
  Fe  Fe268     1.0  0.59157  0.93811  0.29944  1.0000
  H   H2412     1.0  0.53184  0.94682  0.28969  1.0000
  C   C2013     1.0  0.50630  0.88955  0.16982  1.0000
  C   C2014     1.0  0.52263  0.94395  0.10929  1.0000
  N   N136      1.0  0.53714  0.73943  0.13364  1.0000
  S   S534      1.0  0.53675  0.92555  0.20385  1.0000
  H   H2413     1.0  0.56529  0.91757  0.29630  1.0000
  C   C2015     1.0  0.50235  0.92059  0.10409  1.0000
  H   H2414     1.0  0.55694  0.92460  0.23310  1.0000
  H   H2415     1.0  0.53403  0.76120  0.14747  1.0000
  H   H2416     1.0  0.58259  0.93518  0.23788  1.0000
  H   H2417     1.0  0.51521  0.92204  0.09442  1.0000
  S   S535      1.0  0.52243  0.89764  0.17653  1.0000
  C   C2016     1.0  0.53245  0.75913  0.13433  1.0000
  C   C2017     1.0  0.57547  0.92734  0.26743  1.0000
  C   C2018     1.0  0.50033  0.87215  0.15065  1.0000
  S   S536      1.0  0.60408  0.96016  0.30121  1.0000
  H   H2418     1.0  0.51838  0.87192  0.26397  1.0000
  S   S537      1.0  0.59257  0.93668  0.27046  1.0000
  Fe  Fe269     1.0  0.51442  0.91828  0.19501  1.0000
  C   C2019     1.0  0.57329  0.92893  0.24960  1.0000
  H   H2419     1.0  0.52980  0.95285  0.11274  1.0000
  N   N137      1.0  0.51837  0.96993  0.27143  1.0000
  H   H2420     1.0  0.54375  0.74676  0.10399  1.0000
  C   C2020     1.0  0.51786  0.95454  0.28771  1.0000
  H   H2421     1.0  0.52748  0.87448  0.15133  1.0000
  C   C2021     1.0  0.55877  0.92293  0.24687  1.0000
  C   C2022     1.0  0.54659  0.91500  0.26197  1.0000
  C   C2023     1.0  0.54922  0.91276  0.27977  1.0000
  C   C2024     1.0  0.56352  0.91908  0.28252  1.0000
  C   C2025     1.0  0.51416  0.75830  0.07822  1.0000
  Fe  Fe270     1.0  0.51965  0.95431  0.19995  1.0000
  H   H2422     1.0  0.53993  0.90649  0.29149  1.0000
  S   S538      1.0  0.51266  0.79951  0.10191  1.0000
  H   H2423     1.0  0.52068  0.74290  0.11405  1.0000
  H   H2424     1.0  0.52169  0.91690  0.13962  1.0000
  H   H2425     1.0  0.51231  0.73717  0.04104  1.0000
  C   C2026     1.0  0.53537  0.73829  0.11539  1.0000
  H   H2426     1.0  0.55134  0.96460  0.28186  1.0000
  H   H2427     1.0  0.53294  0.77472  0.07770  1.0000
  H   H2428     1.0  0.54455  0.95762  0.25605  1.0000
  H   H2429     1.0  0.51811  0.76578  0.13240  1.0000
  H   H2430     1.0  0.52955  0.97369  0.24224  1.0000
  H   H2431     1.0  0.52502  0.95135  0.25319  1.0000
  C   C2027     1.0  0.50469  0.75291  0.99733  1.0000
  C   C2028     1.0  0.51914  0.77216  0.08313  1.0000
  H   H2432     1.0  0.51099  0.94421  0.28636  1.0000
  C   C2029     1.0  0.50765  0.74587  0.02898  1.0000
  C   C2030     1.0  0.54387  0.97870  0.27960  1.0000
  H   H2433     1.0  0.54158  0.76699  0.12304  1.0000
  C   C2031     1.0  0.52668  0.98389  0.27401  1.0000
  H   H2434     1.0  0.53317  0.93110  0.10752  1.0000
  C   C2032     1.0  0.51275  0.93063  0.14103  1.0000
  S   S539      1.0  0.53292  0.97878  0.18901  1.0000
  H   H2435     1.0  0.50547  0.86367  0.14052  1.0000
  S   S540      1.0  0.49908  0.94760  0.18822  1.0000
  H   H2436     1.0  0.49907  0.89111  0.28105  1.0000
  H   H2437     1.0  0.52098  0.93830  0.14479  1.0000
  S   S541      1.0  0.56448  0.94735  0.31812  1.0000
  H   H2438     1.0  0.60613  0.98028  0.25379  1.0000
  H   H2439     1.0  0.56611  0.74033  0.12475  1.0000
  H   H2440     1.0  0.58479  0.97132  0.24159  1.0000
  C   C2033     1.0  0.51183  0.74015  0.01202  1.0000
  C   C2034     1.0  0.51170  0.87078  0.25381  1.0000
  H   H2441     1.0  0.51869  0.95099  0.09591  1.0000
  H   H2442     1.0  0.52422  0.86311  0.21029  1.0000
  S   S542      1.0  0.50307  0.95102  0.22882  1.0000
  H   H2443     1.0  0.53795  0.86540  0.23488  1.0000
  C   C2035     1.0  0.52310  0.86688  0.23721  1.0000
  H   H2444     1.0  0.51022  0.95955  0.30050  1.0000
  H   H2445     1.0  0.50713  0.75050  0.16182  1.0000
  H   H2446     1.0  0.50159  0.96733  0.12899  1.0000
  H   H2447     1.0  0.50115  0.92837  0.15306  1.0000
  C   C2036     1.0  0.51541  0.86552  0.22339  1.0000
  H   H2448     1.0  0.49810  0.85911  0.29124  1.0000
  C   C2037     1.0  0.49910  0.97705  0.26865  1.0000
  C   C2038     1.0  0.58315  0.98567  0.24153  1.0000
  C   C2039     1.0  0.89181  0.77928  0.41012  1.0000
  H   H2449     1.0  0.93412  0.80162  0.39652  1.0000
  H   H2450     1.0  0.74771  0.96414  0.42423  1.0000
  C   C2040     1.0  0.53448  0.95615  0.37080  1.0000
  S   S543      1.0  0.58915  0.94966  0.34579  1.0000
  H   H2451     1.0  0.97136  0.77956  0.45087  1.0000
  H   H2452     1.0  0.98155  0.75922  0.46519  1.0000
  H   H2453     1.0  0.98903  0.81025  0.46944  1.0000
  N   N138      1.0  0.64332  0.94639  0.51443  1.0000
  H   H2454     1.0  0.84463  0.89121  0.51663  1.0000
  Fe  Fe271     1.0  0.57833  0.92815  0.34027  1.0000
  S   S544      1.0  0.56488  0.91051  0.36569  1.0000
  C   C2041     1.0  0.60977  0.98455  0.37368  1.0000
  H   H2455     1.0  0.73973  0.95792  0.56694  1.0000
  C   C2042     1.0  0.61096  0.95241  0.53483  1.0000
  Fe  Fe272     1.0  0.93551  0.82643  0.49684  1.0000
  S   S545      1.0  0.90712  0.84279  0.50663  1.0000
  S   S546      1.0  0.95939  0.81759  0.51138  1.0000
  Fe  Fe273     1.0  0.92433  0.81793  0.46568  1.0000
  S   S547      1.0  0.89518  0.83384  0.47231  1.0000
  S   S548      1.0  0.93577  0.80002  0.44494  1.0000
  Fe  Fe274     1.0  0.90786  0.85475  0.47660  1.0000
  S   S549      1.0  0.89804  0.88470  0.46475  1.0000
  Fe  Fe275     1.0  0.89662  0.82067  0.50158  1.0000
  S   S550      1.0  0.87161  0.81116  0.52056  1.0000
  S   S551      1.0  0.93729  0.83998  0.46710  1.0000
  S   S552      1.0  0.92486  0.80316  0.49455  1.0000
  C   C2043     1.0  0.89531  0.76171  0.59916  1.0000
  H   H2456     1.0  0.84780  0.89903  0.45411  1.0000
  H   H2457     1.0  0.92024  0.77106  0.59095  1.0000
  H   H2458     1.0  0.97958  0.87580  0.49116  1.0000
  C   C2044     1.0  0.71347  0.96598  0.52461  1.0000
  H   H2459     1.0  0.51578  0.95167  0.34868  1.0000
  H   H2460     1.0  0.87868  0.79731  0.55806  1.0000
  H   H2461     1.0  0.54794  0.95590  0.36069  1.0000
  C   C2045     1.0  0.50528  0.90531  0.37446  1.0000
  C   C2046     1.0  0.99038  0.76735  0.51692  1.0000
  C   C2047     1.0  0.97981  0.74288  0.59039  1.0000
  H   H2462     1.0  0.61889  0.97911  0.38379  1.0000
  H   H2463     1.0  0.82849  0.92044  0.43713  1.0000
  S   S553      1.0  0.67670  0.96669  0.53682  1.0000
  Fe  Fe276     1.0  0.80806  0.95495  0.49504  1.0000
  Fe  Fe277     1.0  0.77246  0.98322  0.50429  1.0000
  S   S554      1.0  0.82381  0.92787  0.50847  1.0000
  H   H2464     1.0  0.82795  0.92697  0.45812  1.0000
  H   H2465     1.0  0.97694  0.74716  0.60330  1.0000
  H   H2466     1.0  0.95902  0.78040  0.35464  1.0000
  H   H2467     1.0  0.97645  0.86202  0.54054  1.0000
  S   S555      1.0  0.77814  0.95560  0.49763  1.0000
  Fe  Fe278     1.0  0.65098  0.96213  0.41987  1.0000
  C   C2048     1.0  0.98429  0.81558  0.55323  1.0000
  S   S556      1.0  0.64030  0.94179  0.41188  1.0000
  Fe  Fe279     1.0  0.67166  0.96856  0.44524  1.0000
  C   C2049     1.0  0.90694  0.77316  0.58772  1.0000
  S   S557      1.0  0.68819  0.95846  0.46731  1.0000
  C   C2050     1.0  0.72627  0.96392  0.57425  1.0000
  H   H2468     1.0  0.64538  0.93960  0.48846  1.0000
  H   H2469     1.0  0.70606  0.98636  0.34171  1.0000
  H   H2470     1.0  0.80441  0.91870  0.48633  1.0000
  S   S558      1.0  0.64331  0.96313  0.44990  1.0000
  S   S559      1.0  0.68038  0.96460  0.41612  1.0000
  H   H2471     1.0  0.56666  0.94642  0.61533  1.0000
  H   H2472     1.0  0.92360  0.77870  0.54178  1.0000
  C   C2051     1.0  0.90770  0.77208  0.39808  1.0000
  H   H2473     1.0  0.96088  0.83657  0.54605  1.0000
  C   C2052     1.0  0.62317  0.95437  0.51723  1.0000
  H   H2474     1.0  0.88011  0.77271  0.41476  1.0000
  C   C2053     1.0  0.85736  0.76285  0.54609  1.0000
  S   S560      1.0  0.59277  0.96359  0.58641  1.0000
  H   H2475     1.0  0.66889  0.95590  0.50464  1.0000
  H   H2476     1.0  0.81004  0.93781  0.44563  1.0000
  H   H2477     1.0  0.98099  0.76865  0.53004  1.0000
  H   H2478     1.0  0.64077  0.92189  0.50832  1.0000
  H   H2479     1.0  0.55849  0.94486  0.64890  1.0000
  H   H2480     1.0  0.58449  0.98223  0.35756  1.0000
  N   N139      1.0  0.91375  0.79817  0.55938  1.0000
  H   H2481     1.0  0.60481  0.98154  0.32618  1.0000
  H   H2482     1.0  0.96685  0.80428  0.47732  1.0000
  H   H2483     1.0  0.92948  0.79890  0.57831  1.0000
  C   C2054     1.0  0.90433  0.81777  0.55790  1.0000
  C   C2055     1.0  0.69014  0.97858  0.59116  1.0000
  H   H2484     1.0  0.86934  0.75383  0.60424  1.0000
  C   C2056     1.0  0.88372  0.78767  0.56951  1.0000
  H   H2485     1.0  0.99090  0.77894  0.57308  1.0000
  C   C2057     1.0  0.69355  0.96381  0.58285  1.0000
  H   H2486     1.0  0.94036  0.80494  0.55452  1.0000
  H   H2487     1.0  0.58338  0.96004  0.55074  1.0000
  C   C2058     1.0  0.72331  0.97893  0.58273  1.0000
  C   C2059     1.0  0.95754  0.73949  0.50483  1.0000
  C   C2060     1.0  0.72130  0.96222  0.44273  1.0000
  C   C2061     1.0  0.71136  0.96089  0.46095  1.0000
  C   C2062     1.0  0.72011  0.96103  0.47459  1.0000
  C   C2063     1.0  0.73864  0.96265  0.47010  1.0000
  H   H2488     1.0  0.96967  0.78240  0.50188  1.0000
  C   C2064     1.0  0.71155  0.95651  0.57443  1.0000
  H   H2489     1.0  0.71255  0.95975  0.48868  1.0000
  H   H2490     1.0  0.74521  0.96276  0.48076  1.0000
  H   H2491     1.0  0.97685  0.80513  0.55491  1.0000
  H   H2492     1.0  0.78751  0.93113  0.47266  1.0000
  H   H2493     1.0  0.78652  0.90858  0.48523  1.0000
  S   S561      1.0  0.64134  0.94473  0.32891  1.0000
  S   S562      1.0  0.64060  0.97653  0.58065  1.0000
  H   H2494     1.0  0.89984  0.82150  0.57162  1.0000
  C   C2065     1.0  0.64843  0.93310  0.50228  1.0000
  H   H2495     1.0  0.53614  0.95875  0.38367  1.0000
  H   H2496     1.0  0.71418  0.95406  0.51955  1.0000
  C   C2066     1.0  0.99397  0.82332  0.50748  1.0000
  H   H2497     1.0  0.89186  0.82128  0.55191  1.0000
  C   C2067     1.0  0.87759  0.89671  0.47714  1.0000
  C   C2068     1.0  0.86825  0.88818  0.49408  1.0000
  C   C2069     1.0  0.85178  0.89790  0.50352  1.0000
  C   C2070     1.0  0.84448  0.91619  0.49608  1.0000
  C   C2071     1.0  0.85378  0.92474  0.47911  1.0000
  C   C2072     1.0  0.87030  0.91502  0.46968  1.0000
  H   H2498     1.0  0.87363  0.87405  0.49988  1.0000
  H   H2499     1.0  0.79750  0.87925  0.48250  1.0000
  H   H2500     1.0  0.84843  0.93892  0.47341  1.0000
  H   H2501     1.0  0.87751  0.92171  0.45662  1.0000
  C   C2073     1.0  0.92322  0.78299  0.44895  1.0000
  C   C2074     1.0  0.90559  0.78418  0.46051  1.0000
  C   C2075     1.0  0.89529  0.77108  0.46253  1.0000
  C   C2076     1.0  0.90260  0.75677  0.45303  1.0000
  C   C2077     1.0  0.92028  0.75549  0.44168  1.0000
  C   C2078     1.0  0.93066  0.76843  0.43983  1.0000
  H   H2502     1.0  0.89973  0.79534  0.46766  1.0000
  H   H2503     1.0  0.88160  0.77217  0.47135  1.0000
  S   S563      1.0  0.62403  0.98607  0.54348  1.0000
  H   H2504     1.0  0.94435  0.76739  0.43108  1.0000
  C   C2079     1.0  0.85660  0.78150  0.53848  1.0000
  C   C2080     1.0  0.87259  0.78751  0.52794  1.0000
  C   C2081     1.0  0.88925  0.77471  0.52464  1.0000
  C   C2082     1.0  0.89013  0.75613  0.53273  1.0000
  H   H2505     1.0  0.84365  0.79133  0.54102  1.0000
  H   H2506     1.0  0.90153  0.77913  0.51621  1.0000
  H   H2507     1.0  0.97558  0.81050  0.45348  1.0000
  C   C2083     1.0  0.65371  0.96110  0.50551  1.0000
  C   C2084     1.0  0.97097  0.85016  0.49838  1.0000
  C   C2085     1.0  0.97592  0.83129  0.50481  1.0000
  H   H2508     1.0  0.81670  0.84973  0.49373  1.0000
  H   H2509     1.0  0.64306  0.92490  0.53887  1.0000
  H   H2510     1.0  0.95706  0.85643  0.49631  1.0000
  H   H2511     1.0  0.86588  0.86937  0.46507  1.0000
  H   H2512     1.0  0.80599  0.90255  0.43722  1.0000
  H   H2513     1.0  0.78840  0.92172  0.44397  1.0000
  C   C2086     1.0  0.84244  0.85769  0.48006  1.0000
  H   H2514     1.0  0.96366  0.74327  0.51388  1.0000
  C   C2087     1.0  0.69664  0.97470  0.53415  1.0000
  C   C2088     1.0  0.87229  0.77606  0.58091  1.0000
  H   H2515     1.0  0.78752  0.89914  0.45697  1.0000
  C   C2089     1.0  0.82320  0.86065  0.48484  1.0000
  H   H2516     1.0  0.66356  0.92691  0.49985  1.0000
  C   C2090     1.0  0.64162  0.94355  0.35190  1.0000
  C   C2091     1.0  0.65262  0.95309  0.35593  1.0000
  C   C2092     1.0  0.65242  0.95269  0.37431  1.0000
  C   C2093     1.0  0.64152  0.94239  0.38866  1.0000
  C   C2094     1.0  0.63089  0.93257  0.38457  1.0000
  C   C2095     1.0  0.63074  0.93334  0.36627  1.0000
  H   H2517     1.0  0.66115  0.96089  0.34480  1.0000
  H   H2518     1.0  0.66079  0.96011  0.37744  1.0000
  H   H2519     1.0  0.62261  0.92442  0.39562  1.0000
  H   H2520     1.0  0.62247  0.92570  0.36328  1.0000
  Fe  Fe280     1.0  0.65103  0.98408  0.55034  1.0000
  C   C2096     1.0  0.58718  0.96232  0.61013  1.0000
  H   H2521     1.0  0.62358  0.96691  0.48829  1.0000
  H   H2522     1.0  0.68217  0.95831  0.58247  1.0000
  H   H2523     1.0  0.92906  0.75982  0.36592  1.0000
  C   C2097     1.0  0.97482  0.83368  0.54826  1.0000
  C   C2098     1.0  0.54245  0.90754  0.36809  1.0000
  C   C2099     1.0  0.53265  0.91512  0.35402  1.0000
  N   N140      1.0  0.94108  0.77198  0.38066  1.0000
  H   H2524     1.0  0.95210  0.75552  0.40383  1.0000
  S   S564      1.0  0.60492  0.91755  0.32141  1.0000
  H   H2525     1.0  0.53936  0.92193  0.34076  1.0000
  Fe  Fe281     1.0  0.78248  0.97051  0.46826  1.0000
  S   S565      1.0  0.81293  0.96796  0.46499  1.0000
  H   H2526     1.0  0.85084  0.84460  0.48530  1.0000
  H   H2527     1.0  0.92853  0.80091  0.53115  1.0000
  H   H2528     1.0  0.66489  0.93133  0.52921  1.0000
  H   H2529     1.0  0.68867  0.98619  0.49576  1.0000
  C   C2100     1.0  0.58953  0.96448  0.39102  1.0000
  H   H2530     1.0  0.76057  0.96297  0.58111  1.0000
  H   H2531     1.0  0.50871  0.89039  0.40156  1.0000
  C   C2101     1.0  0.98357  0.84807  0.54510  1.0000
  H   H2532     1.0  0.50638  0.92023  0.34647  1.0000
  H   H2533     1.0  0.92568  0.74481  0.43394  1.0000
  S   S566      1.0  0.88953  0.74059  0.45539  1.0000
  H   H2534     1.0  0.90613  0.81390  0.41720  1.0000
  H   H2535     1.0  0.59833  0.97665  0.64283  1.0000
  H   H2536     1.0  0.57520  0.96242  0.39683  1.0000
  H   H2537     1.0  0.59584  0.95566  0.38072  1.0000
  H   H2538     1.0  0.59736  0.95903  0.40228  1.0000
  H   H2539     1.0  0.75811  0.97842  0.55940  1.0000
  H   H2540     1.0  0.71401  0.94542  0.56743  1.0000
  C   C2102     1.0  0.96570  0.74651  0.58080  1.0000
  C   C2103     1.0  0.94058  0.75043  0.50147  1.0000
  H   H2541     1.0  0.50251  0.94095  0.37918  1.0000
  C   C2104     1.0  0.51399  0.91411  0.35725  1.0000
  C   C2105     1.0  0.51531  0.89727  0.38827  1.0000
  C   C2106     1.0  0.57356  0.95304  0.62132  1.0000
  C   C2107     1.0  0.58508  0.97191  0.52194  1.0000
  C   C2108     1.0  0.94634  0.78610  0.36423  1.0000
  H   H2542     1.0  0.64923  0.97217  0.51334  1.0000
  H   H2543     1.0  0.50531  0.97499  0.34142  1.0000
  C   C2109     1.0  0.98403  0.77537  0.50065  1.0000
  C   C2110     1.0  0.59654  0.97367  0.50446  1.0000
  H   H2544     1.0  0.90563  0.79763  0.53501  1.0000
  H   H2545     1.0  0.59100  0.98212  0.49268  1.0000
  H   H2546     1.0  0.93500  0.79182  0.35654  1.0000
  H   H2547     1.0  0.67604  0.98445  0.59740  1.0000
  C   C2111     1.0  0.51752  0.96582  0.34651  1.0000
  H   H2548     1.0  0.65199  0.96733  0.49121  1.0000
  H   H2549     1.0  0.93705  0.74453  0.38578  1.0000
  H   H2550     1.0  0.89987  0.75138  0.61053  1.0000
  C   C2112     1.0  0.92243  0.79531  0.39958  1.0000
  C   C2113     1.0  0.64961  0.93675  0.53177  1.0000
  H   H2551     1.0  0.64659  0.94617  0.54135  1.0000
  H   H2552     1.0  0.71472  0.96192  0.43214  1.0000
  N   N141      1.0  0.98914  0.78358  0.46608  1.0000
  H   H2553     1.0  0.94947  0.79767  0.36783  1.0000
  H   H2554     1.0  0.91821  0.75440  0.48820  1.0000
  C   C2114     1.0  0.87809  0.76306  0.59567  1.0000
  H   H2555     1.0  0.90725  0.76020  0.39367  1.0000
  C   C2115     1.0  0.59154  0.96992  0.63690  1.0000
  C   C2116     1.0  0.92363  0.77981  0.39257  1.0000
  C   C2117     1.0  0.61526  0.96495  0.50209  1.0000
  N   N142      1.0  0.80870  0.91031  0.46088  1.0000
  C   C2118     1.0  0.79718  0.90829  0.44927  1.0000
  C   C2119     1.0  0.79627  0.91743  0.47698  1.0000
  C   C2120     1.0  0.81935  0.92442  0.44995  1.0000
  C   C2121     1.0  0.82052  0.89233  0.46716  1.0000
  C   C2122     1.0  0.84020  0.88877  0.46239  1.0000
  C   C2123     1.0  0.81236  0.87764  0.47841  1.0000
  C   C2124     1.0  0.85088  0.87165  0.46869  1.0000
  C   C2125     1.0  0.93143  0.74593  0.49063  1.0000
  C   C2126     1.0  0.99592  0.77431  0.48319  1.0000
  C   C2127     1.0  0.91806  0.79365  0.54105  1.0000
  C   C2128     1.0  0.59614  0.97081  0.61791  1.0000
  S   S567      1.0  0.95228  0.74619  0.55164  1.0000
  H   H2556     1.0  0.90312  0.74648  0.53043  1.0000
  C   C2129     1.0  0.75715  0.97762  0.57421  1.0000
  H   H2557     1.0  0.74011  0.97184  0.61047  1.0000
  Fe  Fe282     1.0  0.61459  0.94093  0.32519  1.0000
  C   C2130     1.0  0.93165  0.79575  0.56457  1.0000
  H   H2558     1.0  0.84498  0.75835  0.55441  1.0000
  C   C2131     1.0  0.87423  0.75018  0.54364  1.0000
  C   C2132     1.0  0.59225  0.96121  0.53707  1.0000
  H   H2559     1.0  0.96274  0.77562  0.47516  1.0000
  H   H2560     1.0  0.94004  0.78159  0.56451  1.0000
  H   H2561     1.0  0.53221  0.94206  0.37405  1.0000
  C   C2133     1.0  0.97562  0.77409  0.46431  1.0000
  Fe  Fe283     1.0  0.57826  0.96773  0.32166  1.0000
  H   H2562     1.0  0.87906  0.79961  0.42658  1.0000
  Fe  Fe284     1.0  0.61298  0.98158  0.57372  1.0000
  C   C2134     1.0  0.96948  0.74096  0.56412  1.0000
  C   C2135     1.0  0.97983  0.80294  0.46664  1.0000
  H   H2563     1.0  0.74230  0.96567  0.51431  1.0000
  H   H2564     1.0  0.91353  0.82690  0.54867  1.0000
  S   S568      1.0  0.77236  0.96432  0.44630  1.0000
  H   H2565     1.0  0.60657  0.97811  0.60933  1.0000
  C   C2136     1.0  0.95603  0.76565  0.39110  1.0000
  C   C2137     1.0  0.74000  0.96340  0.43829  1.0000
  C   C2138     1.0  0.56888  0.95225  0.64030  1.0000
  C   C2139     1.0  0.57788  0.96068  0.64807  1.0000
  H   H2566     1.0  0.61556  0.94472  0.54726  1.0000
  H   H2567     1.0  0.85899  0.77694  0.57802  1.0000
  H   H2568     1.0  0.95190  0.75349  0.58636  1.0000
  C   C2140     1.0  0.90148  0.78649  0.57243  1.0000
  H   H2569     1.0  0.95901  0.77695  0.39531  1.0000
  C   C2141     1.0  0.89118  0.79444  0.41681  1.0000
  N   N143      1.0  0.59018  0.98391  0.38274  1.0000
  C   C2142     1.0  0.98373  0.86113  0.49554  1.0000
  S   S569      1.0  0.80198  0.98136  0.50456  1.0000
  C   C2143     1.0  0.93992  0.75610  0.37410  1.0000
  H   H2570     1.0  0.54136  0.89254  0.39601  1.0000
  C   C2144     1.0  0.90641  0.80251  0.41145  1.0000
  C   C2145     1.0  0.74872  0.96360  0.45197  1.0000
  C   C2146     1.0  0.53380  0.89845  0.38512  1.0000
  H   H2571     1.0  0.93433  0.76224  0.50768  1.0000
  C   C2147     1.0  0.72948  0.97253  0.52168  1.0000
  H   H2572     1.0  0.96928  0.75883  0.38304  1.0000
  H   H2573     1.0  0.95326  0.75046  0.36527  1.0000
  H   H2574     1.0  0.61528  0.97603  0.36303  1.0000
  H   H2575     1.0  0.68669  0.97595  0.35195  1.0000
  H   H2576     1.0  0.52987  0.96741  0.33522  1.0000
  N   N144      1.0  0.51921  0.97004  0.36351  1.0000
  H   H2577     1.0  0.57065  0.97895  0.52380  1.0000
  C   C2148     1.0  0.50158  0.96967  0.37730  1.0000
  H   H2578     1.0  0.64096  0.98552  0.64294  1.0000
  H   H2579     1.0  0.99789  0.80872  0.51241  1.0000
  H   H2580     1.0  0.76830  0.98399  0.57465  1.0000
  C   C2149     1.0  0.73892  0.98615  0.60237  1.0000
  C   C2150     1.0  0.70476  0.98605  0.59114  1.0000
  C   C2151     1.0  0.50620  0.93052  0.75759  1.0000
  H   H2581     1.0  0.50746  0.74955  0.98402  1.0000
  C   C2152     1.0  0.50815  0.77217  0.94862  1.0000
  Fe  Fe285     1.0  0.51376  0.93983  0.67433  1.0000
  S   S570      1.0  0.52220  0.96673  0.66544  1.0000
  Fe  Fe286     1.0  0.50417  0.97260  0.69201  1.0000
  H   H2582     1.0  0.58225  0.98203  0.71453  1.0000
  S   S571      1.0  0.52656  0.96098  0.70782  1.0000
  C   C2153     1.0  0.51204  0.95585  0.76622  1.0000
  C   C2154     1.0  0.60454  0.97964  0.67910  1.0000
  Fe  Fe287     1.0  0.51756  0.93459  0.71331  1.0000
  H   H2583     1.0  0.56924  0.97677  0.70106  1.0000
  S   S572      1.0  0.57139  0.96047  0.67160  1.0000
  S   S573      1.0  0.53718  0.92517  0.68858  1.0000
  H   H2584     1.0  0.51611  0.77330  0.95769  1.0000
  Fe  Fe288     1.0  0.54389  0.95287  0.68186  1.0000
  C   C2155     1.0  0.50249  0.75511  0.92946  1.0000
  C   C2156     1.0  0.49960  0.88417  0.67993  1.0000
  S   S574      1.0  0.50753  0.92944  0.65278  1.0000
  H   H2585     1.0  0.52018  0.96597  0.76371  1.0000
  C   C2157     1.0  0.51233  0.75625  0.94174  1.0000
  S   S575      1.0  0.52912  0.73747  0.94932  1.0000
  H   H2586     1.0  0.50758  0.88242  0.66636  1.0000
  C   C2158     1.0  0.51695  0.94329  0.75477  1.0000
  S   S576      1.0  0.51034  0.91715  0.74133  1.0000
  C   C2159     1.0  0.50705  0.89005  0.69127  1.0000
  H   H2587     1.0  0.62827  0.96107  0.66692  1.0000
  H   H2588     1.0  0.52914  0.94341  0.74381  1.0000
  H   H2589     1.0  0.50589  0.74295  0.92386  1.0000
  H   H2590     1.0  0.52089  0.89271  0.68644  1.0000
  H   H2591     1.0  0.59947  0.96827  0.68873  1.0000
  H   H2592     1.0  0.50283  0.89819  0.71648  1.0000
  C   C2160     1.0  0.62118  0.97525  0.66651  1.0000
